MODEL 1
REMARK VINA RESULT:      -8.8      0.000      0.000
REMARK  0 active torsions:
REMARK  status: ('A' for Active; 'I' for Inactive)
ROOT
HETATM    1  C1  UNL     1      21.965   2.940  49.122  1.00  0.00    -0.026 C 
HETATM    2  C2  UNL     1      21.840   1.856  49.937  1.00  0.00     0.003 C 
HETATM    3  C3  UNL     1      22.987   1.830  50.909  1.00  0.00     0.050 C 
HETATM    4  C4  UNL     1      23.240   0.892  51.875  1.00  0.00    -0.013 C 
HETATM    5  C5  UNL     1      24.491   1.141  52.743  1.00  0.00     0.090 A 
HETATM    6  N1  UNL     1      24.403   0.048  53.427  1.00  0.00    -0.267 NA
HETATM    7  C6  UNL     1      25.059  -0.631  54.449  1.00  0.00     0.228 C 
HETATM    8  N2  UNL     1      26.317  -0.508  55.067  1.00  0.00    -0.243 NA
HETATM    9  C7  UNL     1      26.967   0.644  54.349  1.00  0.00     0.055 A 
HETATM   10  C8  UNL     1      28.137   0.299  53.771  1.00  0.00     0.030 A 
HETATM   11  C9  UNL     1      27.994   1.077  52.575  1.00  0.00     0.010 A 
HETATM   12  C10 UNL     1      26.796   1.836  52.444  1.00  0.00     0.090 A 
HETATM   13  C11 UNL     1      25.769   1.879  53.406  1.00  0.00     0.062 A 
HETATM   14  C12 UNL     1      25.765   1.205  54.600  1.00  0.00     0.022 A 
HETATM   15  C13 UNL     1      24.484   2.527  53.367  1.00  0.00     0.072 A 
HETATM   16  C14 UNL     1      25.271   2.616  52.398  1.00  0.00     0.085 A 
HETATM   17  N3  UNL     1      26.192   2.617  51.467  1.00  0.00    -0.380 N 
HETATM   18  C15 UNL     1      26.771   2.963  50.241  1.00  0.00     0.146 C 
HETATM   19  C16 UNL     1      25.980   4.043  49.572  1.00  0.00    -0.011 C 
HETATM   20  C17 UNL     1      24.913   4.820  49.669  1.00  0.00    -0.025 C 
HETATM   21  C18 UNL     1      24.510   5.844  48.627  1.00  0.00     0.054 C 
HETATM   22  C19 UNL     1      23.186   5.301  48.110  1.00  0.00    -0.023 C 
HETATM   23  C20 UNL     1      22.631   4.174  48.614  1.00  0.00    -0.008 C 
ENDROOT
TORSDOF 0
ENDMDL
MODEL 2
REMARK VINA RESULT:      -8.7      1.912      6.241
REMARK  0 active torsions:
REMARK  status: ('A' for Active; 'I' for Inactive)
ROOT
HETATM    1  C1  UNL     1      25.252  -0.675  54.308  1.00  0.00    -0.026 C 
HETATM    2  C2  UNL     1      26.161   0.040  53.589  1.00  0.00     0.003 C 
HETATM    3  C3  UNL     1      25.445   1.104  52.802  1.00  0.00     0.050 C 
HETATM    4  C4  UNL     1      25.996   2.014  51.938  1.00  0.00    -0.013 C 
HETATM    5  C5  UNL     1      25.008   3.003  51.285  1.00  0.00     0.090 A 
HETATM    6  N1  UNL     1      25.881   3.591  50.535  1.00  0.00    -0.267 NA
HETATM    7  C6  UNL     1      25.968   4.611  49.593  1.00  0.00     0.228 C 
HETATM    8  N2  UNL     1      25.031   5.344  48.842  1.00  0.00    -0.243 NA
HETATM    9  C7  UNL     1      23.701   4.776  49.260  1.00  0.00     0.055 A 
HETATM   10  C8  UNL     1      23.002   4.277  48.219  1.00  0.00     0.030 A 
HETATM   11  C9  UNL     1      22.450   3.136  48.890  1.00  0.00     0.010 A 
HETATM   12  C10 UNL     1      22.813   2.960  50.255  1.00  0.00     0.090 A 
HETATM   13  C11 UNL     1      23.653   3.830  50.978  1.00  0.00     0.062 A 
HETATM   14  C12 UNL     1      24.242   4.963  50.482  1.00  0.00     0.022 A 
HETATM   15  C13 UNL     1      24.163   3.729  52.320  1.00  0.00     0.072 A 
HETATM   16  C14 UNL     1      23.411   2.841  51.857  1.00  0.00     0.085 A 
HETATM   17  N3  UNL     1      22.624   1.997  51.239  1.00  0.00    -0.380 N 
HETATM   18  C15 UNL     1      21.825   0.856  51.105  1.00  0.00     0.146 C 
HETATM   19  C16 UNL     1      21.611   0.205  52.436  1.00  0.00    -0.011 C 
HETATM   20  C17 UNL     1      21.891   0.268  53.728  1.00  0.00    -0.025 C 
HETATM   21  C18 UNL     1      21.386  -0.724  54.756  1.00  0.00     0.054 C 
HETATM   22  C19 UNL     1      22.663  -1.394  55.240  1.00  0.00    -0.023 C 
HETATM   23  C20 UNL     1      23.881  -1.028  54.777  1.00  0.00    -0.008 C 
ENDROOT
TORSDOF 0
ENDMDL
MODEL 3
REMARK VINA RESULT:      -8.7      1.434      3.505
REMARK  0 active torsions:
REMARK  status: ('A' for Active; 'I' for Inactive)
ROOT
HETATM    1  C1  UNL     1      23.769   3.796  49.082  1.00  0.00    -0.026 C 
HETATM    2  C2  UNL     1      25.021   4.080  49.540  1.00  0.00     0.003 C 
HETATM    3  C3  UNL     1      25.455   3.005  50.497  1.00  0.00     0.050 C 
HETATM    4  C4  UNL     1      26.635   2.934  51.191  1.00  0.00    -0.013 C 
HETATM    5  C5  UNL     1      26.811   1.693  52.091  1.00  0.00     0.090 A 
HETATM    6  N1  UNL     1      27.951   2.045  52.587  1.00  0.00    -0.267 NA
HETATM    7  C6  UNL     1      28.916   1.590  53.480  1.00  0.00     0.228 C 
HETATM    8  N2  UNL     1      28.957   0.581  54.460  1.00  0.00    -0.243 NA
HETATM    9  C7  UNL     1      27.585  -0.038  54.406  1.00  0.00     0.055 A 
HETATM   10  C8  UNL     1      26.944   0.025  55.592  1.00  0.00     0.030 A 
HETATM   11  C9  UNL     1      25.630   0.294  55.083  1.00  0.00     0.010 A 
HETATM   12  C10 UNL     1      25.501   0.396  53.668  1.00  0.00     0.090 A 
HETATM   13  C11 UNL     1      26.562   0.240  52.756  1.00  0.00     0.062 A 
HETATM   14  C12 UNL     1      27.864  -0.032  53.086  1.00  0.00     0.022 A 
HETATM   15  C13 UNL     1      26.590   0.398  51.325  1.00  0.00     0.072 A 
HETATM   16  C14 UNL     1      25.529   0.578  51.964  1.00  0.00     0.085 A 
HETATM   17  N3  UNL     1      24.502   0.733  52.762  1.00  0.00    -0.380 N 
HETATM   18  C15 UNL     1      23.167   0.989  53.095  1.00  0.00     0.146 C 
HETATM   19  C16 UNL     1      22.317   1.023  51.864  1.00  0.00    -0.011 C 
HETATM   20  C17 UNL     1      22.319   0.919  50.544  1.00  0.00    -0.025 C 
HETATM   21  C18 UNL     1      21.081   1.045  49.680  1.00  0.00     0.054 C 
HETATM   22  C19 UNL     1      21.360   2.302  48.867  1.00  0.00    -0.023 C 
HETATM   23  C20 UNL     1      22.518   2.991  48.993  1.00  0.00    -0.008 C 
ENDROOT
TORSDOF 0
ENDMDL
MODEL 4
REMARK VINA RESULT:      -8.7      1.331      1.852
REMARK  0 active torsions:
REMARK  status: ('A' for Active; 'I' for Inactive)
ROOT
HETATM    1  C1  UNL     1      22.526   5.146  48.355  1.00  0.00    -0.026 C 
HETATM    2  C2  UNL     1      21.834   4.097  48.879  1.00  0.00     0.003 C 
HETATM    3  C3  UNL     1      22.678   3.414  49.920  1.00  0.00     0.050 C 
HETATM    4  C4  UNL     1      22.356   2.306  50.659  1.00  0.00    -0.013 C 
HETATM    5  C5  UNL     1      23.423   1.841  51.672  1.00  0.00     0.090 A 
HETATM    6  N1  UNL     1      22.784   0.792  52.071  1.00  0.00    -0.267 NA
HETATM    7  C6  UNL     1      22.917  -0.269  52.962  1.00  0.00     0.228 C 
HETATM    8  N2  UNL     1      23.985  -0.805  53.705  1.00  0.00    -0.243 NA
HETATM    9  C7  UNL     1      25.160   0.063  53.339  1.00  0.00     0.055 A 
HETATM   10  C8  UNL     1      26.179  -0.644  52.806  1.00  0.00     0.030 A 
HETATM   11  C9  UNL     1      26.577   0.314  51.816  1.00  0.00     0.010 A 
HETATM   12  C10 UNL     1      25.826   1.522  51.757  1.00  0.00     0.090 A 
HETATM   13  C11 UNL     1      24.745   1.834  52.604  1.00  0.00     0.062 A 
HETATM   14  C12 UNL     1      24.257   1.031  53.602  1.00  0.00     0.022 A 
HETATM   15  C13 UNL     1      23.856   2.966  52.600  1.00  0.00     0.072 A 
HETATM   16  C14 UNL     1      24.775   2.876  51.754  1.00  0.00     0.085 A 
HETATM   17  N3  UNL     1      25.772   2.644  50.938  1.00  0.00    -0.380 N 
HETATM   18  C15 UNL     1      26.653   2.915  49.884  1.00  0.00     0.146 C 
HETATM   19  C16 UNL     1      26.494   4.327  49.417  1.00  0.00    -0.011 C 
HETATM   20  C17 UNL     1      25.827   5.456  49.594  1.00  0.00    -0.025 C 
HETATM   21  C18 UNL     1      26.061   6.717  48.787  1.00  0.00     0.054 C 
HETATM   22  C19 UNL     1      24.748   6.892  48.038  1.00  0.00    -0.023 C 
HETATM   23  C20 UNL     1      23.708   6.043  48.212  1.00  0.00    -0.008 C 
ENDROOT
TORSDOF 0
ENDMDL
MODEL 5
REMARK VINA RESULT:      -8.5      2.377      4.126
REMARK  0 active torsions:
REMARK  status: ('A' for Active; 'I' for Inactive)
ROOT
HETATM    1  C1  UNL     1      20.456   4.357  51.152  1.00  0.00    -0.026 C 
HETATM    2  C2  UNL     1      21.601   4.761  51.769  1.00  0.00     0.003 C 
HETATM    3  C3  UNL     1      22.447   3.557  52.082  1.00  0.00     0.050 C 
HETATM    4  C4  UNL     1      23.659   3.534  52.721  1.00  0.00    -0.013 C 
HETATM    5  C5  UNL     1      24.304   2.142  52.886  1.00  0.00     0.090 A 
HETATM    6  N1  UNL     1      25.328   2.546  53.563  1.00  0.00    -0.267 NA
HETATM    7  C6  UNL     1      26.478   2.045  54.167  1.00  0.00     0.228 C 
HETATM    8  N2  UNL     1      26.932   0.758  54.507  1.00  0.00    -0.243 NA
HETATM    9  C7  UNL     1      25.821  -0.154  54.063  1.00  0.00     0.055 A 
HETATM   10  C8  UNL     1      25.323  -0.894  55.076  1.00  0.00     0.030 A 
HETATM   11  C9  UNL     1      23.944  -0.845  54.688  1.00  0.00     0.010 A 
HETATM   12  C10 UNL     1      23.636  -0.105  53.511  1.00  0.00     0.090 A 
HETATM   13  C11 UNL     1      24.588   0.559  52.713  1.00  0.00     0.062 A 
HETATM   14  C12 UNL     1      25.939   0.592  52.945  1.00  0.00     0.022 A 
HETATM   15  C13 UNL     1      24.411   1.403  51.561  1.00  0.00     0.072 A 
HETATM   16  C14 UNL     1      23.422   0.893  52.134  1.00  0.00     0.085 A 
HETATM   17  N3  UNL     1      22.490   0.296  52.835  1.00  0.00    -0.380 N 
HETATM   18  C15 UNL     1      21.185  -0.088  53.165  1.00  0.00     0.146 C 
HETATM   19  C16 UNL     1      20.237   0.277  52.066  1.00  0.00    -0.011 C 
HETATM   20  C17 UNL     1      20.128   0.845  50.876  1.00  0.00    -0.025 C 
HETATM   21  C18 UNL     1      18.825   0.979  50.114  1.00  0.00     0.054 C 
HETATM   22  C19 UNL     1      18.613   2.485  50.062  1.00  0.00    -0.023 C 
HETATM   23  C20 UNL     1      19.511   3.350  50.590  1.00  0.00    -0.008 C 
ENDROOT
TORSDOF 0
ENDMDL
MODEL 6
REMARK VINA RESULT:      -8.4      2.896      6.391
REMARK  0 active torsions:
REMARK  status: ('A' for Active; 'I' for Inactive)
ROOT
HETATM    1  C1  UNL     1      24.893  -0.917  55.268  1.00  0.00    -0.026 C 
HETATM    2  C2  UNL     1      23.596  -1.329  55.327  1.00  0.00     0.003 C 
HETATM    3  C3  UNL     1      22.802  -0.622  54.263  1.00  0.00     0.050 C 
HETATM    4  C4  UNL     1      21.460  -0.740  54.009  1.00  0.00    -0.013 C 
HETATM    5  C5  UNL     1      20.924   0.101  52.832  1.00  0.00     0.090 A 
HETATM    6  N1  UNL     1      19.684  -0.228  52.983  1.00  0.00    -0.267 NA
HETATM    7  C6  UNL     1      18.436   0.007  52.413  1.00  0.00     0.228 C 
HETATM    8  N2  UNL     1      17.932   0.946  51.495  1.00  0.00    -0.243 NA
HETATM    9  C7  UNL     1      19.120   1.810  51.164  1.00  0.00     0.055 A 
HETATM   10  C8  UNL     1      18.907   3.112  51.446  1.00  0.00     0.030 A 
HETATM   11  C9  UNL     1      20.220   3.418  51.935  1.00  0.00     0.010 A 
HETATM   12  C10 UNL     1      21.161   2.349  51.952  1.00  0.00     0.090 A 
HETATM   13  C11 UNL     1      20.889   1.038  51.514  1.00  0.00     0.062 A 
HETATM   14  C12 UNL     1      19.693   0.597  51.011  1.00  0.00     0.022 A 
HETATM   15  C13 UNL     1      21.709  -0.144  51.553  1.00  0.00     0.072 A 
HETATM   16  C14 UNL     1      22.143   0.944  51.992  1.00  0.00     0.085 A 
HETATM   17  N3  UNL     1      22.456   2.145  52.413  1.00  0.00    -0.380 N 
HETATM   18  C15 UNL     1      23.282   3.134  52.958  1.00  0.00     0.146 C 
HETATM   19  C16 UNL     1      24.690   2.641  53.068  1.00  0.00    -0.011 C 
HETATM   20  C17 UNL     1      25.494   1.609  52.864  1.00  0.00    -0.025 C 
HETATM   21  C18 UNL     1      26.978   1.614  53.171  1.00  0.00     0.054 C 
HETATM   22  C19 UNL     1      27.101   0.578  54.279  1.00  0.00    -0.023 C 
HETATM   23  C20 UNL     1      26.029  -0.118  54.727  1.00  0.00    -0.008 C 
ENDROOT
TORSDOF 0
ENDMDL
MODEL 7
REMARK VINA RESULT:      -8.0      2.849      6.157
REMARK  0 active torsions:
REMARK  status: ('A' for Active; 'I' for Inactive)
ROOT
HETATM    1  C1  UNL     1      26.264   3.026  50.326  1.00  0.00    -0.026 C 
HETATM    2  C2  UNL     1      25.236   3.374  49.503  1.00  0.00     0.003 C 
HETATM    3  C3  UNL     1      23.930   3.114  50.203  1.00  0.00     0.050 C 
HETATM    4  C4  UNL     1      22.667   3.307  49.708  1.00  0.00    -0.013 C 
HETATM    5  C5  UNL     1      21.510   2.967  50.670  1.00  0.00     0.090 A 
HETATM    6  N1  UNL     1      20.559   3.205  49.829  1.00  0.00    -0.267 NA
HETATM    7  C6  UNL     1      19.169   3.191  49.751  1.00  0.00     0.228 C 
HETATM    8  N2  UNL     1      18.142   2.662  50.554  1.00  0.00    -0.243 NA
HETATM    9  C7  UNL     1      18.869   1.997  51.692  1.00  0.00     0.055 A 
HETATM   10  C8  UNL     1      18.581   0.682  51.791  1.00  0.00     0.030 A 
HETATM   11  C9  UNL     1      19.893   0.226  52.145  1.00  0.00     0.010 A 
HETATM   12  C10 UNL     1      20.911   1.218  52.241  1.00  0.00     0.090 A 
HETATM   13  C11 UNL     1      20.708   2.595  52.025  1.00  0.00     0.062 A 
HETATM   14  C12 UNL     1      19.515   3.183  51.694  1.00  0.00     0.022 A 
HETATM   15  C13 UNL     1      21.651   3.683  52.005  1.00  0.00     0.072 A 
HETATM   16  C14 UNL     1      22.035   2.512  52.226  1.00  0.00     0.085 A 
HETATM   17  N3  UNL     1      22.286   1.245  52.439  1.00  0.00    -0.380 N 
HETATM   18  C15 UNL     1      23.078   0.129  52.735  1.00  0.00     0.146 C 
HETATM   19  C16 UNL     1      24.443   0.557  53.176  1.00  0.00    -0.011 C 
HETATM   20  C17 UNL     1      25.233   1.596  53.394  1.00  0.00    -0.025 C 
HETATM   21  C18 UNL     1      26.665   1.487  53.879  1.00  0.00     0.054 C 
HETATM   22  C19 UNL     1      27.465   2.031  52.704  1.00  0.00    -0.023 C 
HETATM   23  C20 UNL     1      26.862   2.498  51.585  1.00  0.00    -0.008 C 
ENDROOT
TORSDOF 0
ENDMDL
MODEL 8
REMARK VINA RESULT:      -8.0      2.968      6.989
REMARK  0 active torsions:
REMARK  status: ('A' for Active; 'I' for Inactive)
ROOT
HETATM    1  C1  UNL     1      24.670   0.064  52.986  1.00  0.00    -0.026 C 
HETATM    2  C2  UNL     1      25.163   1.014  52.143  1.00  0.00     0.003 C 
HETATM    3  C3  UNL     1      24.111   2.062  51.906  1.00  0.00     0.050 C 
HETATM    4  C4  UNL     1      24.202   3.168  51.102  1.00  0.00    -0.013 C 
HETATM    5  C5  UNL     1      22.958   4.080  51.071  1.00  0.00     0.090 A 
HETATM    6  N1  UNL     1      23.416   4.905  50.188  1.00  0.00    -0.267 NA
HETATM    7  C6  UNL     1      23.043   6.059  49.505  1.00  0.00     0.228 C 
HETATM    8  N2  UNL     1      21.829   6.743  49.315  1.00  0.00    -0.243 NA
HETATM    9  C7  UNL     1      20.820   5.918  50.068  1.00  0.00     0.055 A 
HETATM   10  C8  UNL     1      19.816   5.483  49.279  1.00  0.00     0.030 A 
HETATM   11  C9  UNL     1      19.668   4.181  49.860  1.00  0.00     0.010 A 
HETATM   12  C10 UNL     1      20.547   3.855  50.932  1.00  0.00     0.090 A 
HETATM   13  C11 UNL     1      21.525   4.723  51.455  1.00  0.00     0.062 A 
HETATM   14  C12 UNL     1      21.777   5.997  51.017  1.00  0.00     0.022 A 
HETATM   15  C13 UNL     1      22.524   4.498  52.467  1.00  0.00     0.072 A 
HETATM   16  C14 UNL     1      21.730   3.586  52.144  1.00  0.00     0.085 A 
HETATM   17  N3  UNL     1      20.839   2.735  51.701  1.00  0.00    -0.380 N 
HETATM   18  C15 UNL     1      20.150   1.518  51.643  1.00  0.00     0.146 C 
HETATM   19  C16 UNL     1      20.527   0.645  52.799  1.00  0.00    -0.011 C 
HETATM   20  C17 UNL     1      21.282   0.552  53.882  1.00  0.00    -0.025 C 
HETATM   21  C18 UNL     1      21.303  -0.653  54.802  1.00  0.00     0.054 C 
HETATM   22  C19 UNL     1      22.719  -1.183  54.637  1.00  0.00    -0.023 C 
HETATM   23  C20 UNL     1      23.625  -0.565  53.843  1.00  0.00    -0.008 C 
ENDROOT
TORSDOF 0
ENDMDL
MODEL 9
REMARK VINA RESULT:      -7.7      2.730      4.729
REMARK  0 active torsions:
REMARK  status: ('A' for Active; 'I' for Inactive)
ROOT
HETATM    1  C1  UNL     1      23.992   3.019  48.642  1.00  0.00    -0.026 C 
HETATM    2  C2  UNL     1      22.709   2.567  48.565  1.00  0.00     0.003 C 
HETATM    3  C3  UNL     1      22.308   1.983  49.891  1.00  0.00     0.050 C 
HETATM    4  C4  UNL     1      21.110   1.403  50.218  1.00  0.00    -0.013 C 
HETATM    5  C5  UNL     1      20.980   0.905  51.672  1.00  0.00     0.090 A 
HETATM    6  N1  UNL     1      19.802   0.393  51.536  1.00  0.00    -0.267 NA
HETATM    7  C6  UNL     1      18.835  -0.280  52.277  1.00  0.00     0.228 C 
HETATM    8  N2  UNL     1      18.822  -0.927  53.526  1.00  0.00    -0.243 NA
HETATM    9  C7  UNL     1      20.230  -0.773  54.034  1.00  0.00     0.055 A 
HETATM   10  C8  UNL     1      20.822  -1.960  54.284  1.00  0.00     0.030 A 
HETATM   11  C9  UNL     1      22.134  -1.621  53.814  1.00  0.00     0.010 A 
HETATM   12  C10 UNL     1      22.309  -0.304  53.302  1.00  0.00     0.090 A 
HETATM   13  C11 UNL     1      21.295   0.672  53.242  1.00  0.00     0.062 A 
HETATM   14  C12 UNL     1      20.001   0.504  53.662  1.00  0.00     0.022 A 
HETATM   15  C13 UNL     1      21.311   1.997  52.679  1.00  0.00     0.072 A 
HETATM   16  C14 UNL     1      22.334   1.277  52.638  1.00  0.00     0.085 A 
HETATM   17  N3  UNL     1      23.318   0.413  52.669  1.00  0.00    -0.380 N 
HETATM   18  C15 UNL     1      24.621  -0.051  52.453  1.00  0.00     0.146 C 
HETATM   19  C16 UNL     1      25.512   1.071  52.023  1.00  0.00    -0.011 C 
HETATM   20  C17 UNL     1      25.566   2.364  51.742  1.00  0.00    -0.025 C 
HETATM   21  C18 UNL     1      26.825   3.087  51.310  1.00  0.00     0.054 C 
HETATM   22  C19 UNL     1      26.498   3.521  49.888  1.00  0.00    -0.023 C 
HETATM   23  C20 UNL     1      25.294   3.267  49.323  1.00  0.00    -0.008 C 
ENDROOT
TORSDOF 0
ENDMDL
