MODEL 1
REMARK VINA RESULT:      -7.2      0.000      0.000
REMARK  6 active torsions:
REMARK  status: ('A' for Active; 'I' for Inactive)
REMARK    1  A    between atoms: C2_2  and  O1_3 
REMARK    2  A    between atoms: O1_3  and  C3_4 
REMARK    3  A    between atoms: C8_9  and  N1_10 
REMARK       I    between atoms: N1_10  and  C9_11 
REMARK    4  A    between atoms: C9_11  and  C10_13 
REMARK    5  A    between atoms: C11_14  and  C12_15 
REMARK    6  A    between atoms: C12_15  and  N2_16 
ROOT
HETATM    1  C3  UNL     1      25.618   1.363  53.551  1.00  0.00     0.097 A 
HETATM    2  C4  UNL     1      26.936   1.770  53.625  1.00  0.00     0.071 A 
HETATM    3  C5  UNL     1      27.999   0.869  53.554  1.00  0.00     0.064 A 
HETATM    4  C6  UNL     1      27.685  -0.467  53.405  1.00  0.00    -0.002 A 
HETATM    5  C7  UNL     1      26.357  -0.828  53.336  1.00  0.00     0.046 A 
HETATM    6  C8  UNL     1      25.286   0.034  53.403  1.00  0.00     0.069 A 
HETATM    7  C15 UNL     1      28.825  -1.146  53.360  1.00  0.00    -0.051 A 
HETATM    8  C16 UNL     1      28.933  -2.629  53.204  1.00  0.00     0.046 C 
HETATM    9  C17 UNL     1      29.942  -0.180  53.488  1.00  0.00     0.184 A 
HETATM   10  N3  UNL     1      29.267   1.084  53.607  1.00  0.00    -0.285 NA
ENDROOT
BRANCH   6  11
HETATM   11  N1  UNL     1      23.922  -0.336  53.333  1.00  0.00    -0.321 N 
HETATM   12  C9  UNL     1      23.105  -0.953  54.279  1.00  0.00     0.245 C 
HETATM   13  O2  UNL     1      23.589  -1.258  55.394  1.00  0.00    -0.268 OA
HETATM   14  H8  UNL     1      23.398  -0.134  52.442  1.00  0.00     0.169 HD
BRANCH  12  15
HETATM   15  C10 UNL     1      21.701  -1.267  54.044  1.00  0.00     0.072 C 
HETATM   16  C11 UNL     1      20.871  -0.353  53.573  1.00  0.00     0.008 C 
BRANCH  16  17
HETATM   17  C12 UNL     1      19.448  -0.509  53.286  1.00  0.00     0.299 C 
BRANCH  17  18
HETATM   18  N2  UNL     1      18.944   0.191  52.155  1.00  0.00     0.083 N 
HETATM   19  C13 UNL     1      19.869   0.538  51.136  1.00  0.00     0.309 C 
HETATM   20  C14 UNL     1      17.773  -0.461  51.653  1.00  0.00     0.309 C 
ENDBRANCH  17  18
ENDBRANCH  16  17
ENDBRANCH  12  15
ENDBRANCH   6  11
BRANCH   1  21
HETATM   21  O1  UNL     1      24.599   2.283  53.625  1.00  0.00    -0.349 OA
BRANCH  21  22
HETATM   22  C2  UNL     1      24.192   3.212  52.685  1.00  0.00     0.171 C 
HETATM   23  C1  UNL     1      22.872   2.759  52.098  1.00  0.00     0.034 C 
ENDBRANCH  21  22
ENDBRANCH   1  21
TORSDOF 6
ENDMDL
MODEL 2
REMARK VINA RESULT:      -6.9      3.294      7.141
REMARK  6 active torsions:
REMARK  status: ('A' for Active; 'I' for Inactive)
REMARK    1  A    between atoms: C2_2  and  O1_3 
REMARK    2  A    between atoms: O1_3  and  C3_4 
REMARK    3  A    between atoms: C8_9  and  N1_10 
REMARK       I    between atoms: N1_10  and  C9_11 
REMARK    4  A    between atoms: C9_11  and  C10_13 
REMARK    5  A    between atoms: C11_14  and  C12_15 
REMARK    6  A    between atoms: C12_15  and  N2_16 
ROOT
HETATM    1  C3  UNL     1      25.443  -0.108  53.709  1.00  0.00     0.097 A 
HETATM    2  C4  UNL     1      24.648  -0.829  54.578  1.00  0.00     0.071 A 
HETATM    3  C5  UNL     1      23.264  -0.919  54.420  1.00  0.00     0.064 A 
HETATM    4  C6  UNL     1      22.706  -0.253  53.348  1.00  0.00    -0.002 A 
HETATM    5  C7  UNL     1      23.538   0.454  52.508  1.00  0.00     0.046 A 
HETATM    6  C8  UNL     1      24.904   0.565  52.634  1.00  0.00     0.069 A 
HETATM    7  C15 UNL     1      21.396  -0.464  53.380  1.00  0.00    -0.051 A 
HETATM    8  C16 UNL     1      20.416   0.083  52.391  1.00  0.00     0.046 C 
HETATM    9  C17 UNL     1      21.096  -1.324  54.549  1.00  0.00     0.184 A 
HETATM   10  N3  UNL     1      22.392  -1.542  55.133  1.00  0.00    -0.285 NA
ENDROOT
BRANCH   6  11
HETATM   11  N1  UNL     1      25.758   1.291  51.772  1.00  0.00    -0.321 N 
HETATM   12  C9  UNL     1      25.703   2.621  51.358  1.00  0.00     0.245 C 
HETATM   13  O2  UNL     1      24.774   3.350  51.777  1.00  0.00    -0.268 OA
HETATM   14  H8  UNL     1      26.581   0.789  51.350  1.00  0.00     0.169 HD
BRANCH  12  15
HETATM   15  C10 UNL     1      26.677   3.222  50.455  1.00  0.00     0.072 C 
HETATM   16  C11 UNL     1      26.337   4.214  49.652  1.00  0.00     0.008 C 
BRANCH  16  17
HETATM   17  C12 UNL     1      27.189   4.916  48.697  1.00  0.00     0.299 C 
BRANCH  17  18
HETATM   18  N2  UNL     1      26.922   6.299  48.498  1.00  0.00     0.083 N 
HETATM   19  C13 UNL     1      26.165   6.967  49.495  1.00  0.00     0.309 C 
HETATM   20  C14 UNL     1      28.125   6.989  48.148  1.00  0.00     0.309 C 
ENDBRANCH  17  18
ENDBRANCH  16  17
ENDBRANCH  12  15
ENDBRANCH   6  11
BRANCH   1  21
HETATM   21  O1  UNL     1      26.803  -0.044  53.900  1.00  0.00    -0.349 OA
BRANCH  21  22
HETATM   22  C2  UNL     1      27.794  -0.875  53.409  1.00  0.00     0.171 C 
HETATM   23  C1  UNL     1      29.141  -0.252  53.710  1.00  0.00     0.034 C 
ENDBRANCH  21  22
ENDBRANCH   1  21
TORSDOF 6
ENDMDL
MODEL 3
REMARK VINA RESULT:      -6.8      3.683      7.092
REMARK  6 active torsions:
REMARK  status: ('A' for Active; 'I' for Inactive)
REMARK    1  A    between atoms: C2_2  and  O1_3 
REMARK    2  A    between atoms: O1_3  and  C3_4 
REMARK    3  A    between atoms: C8_9  and  N1_10 
REMARK       I    between atoms: N1_10  and  C9_11 
REMARK    4  A    between atoms: C9_11  and  C10_13 
REMARK    5  A    between atoms: C11_14  and  C12_15 
REMARK    6  A    between atoms: C12_15  and  N2_16 
ROOT
HETATM    1  C3  UNL     1      26.638   0.398  53.282  1.00  0.00     0.097 A 
HETATM    2  C4  UNL     1      26.136  -0.353  54.327  1.00  0.00     0.071 A 
HETATM    3  C5  UNL     1      24.774  -0.622  54.465  1.00  0.00     0.064 A 
HETATM    4  C6  UNL     1      23.928  -0.103  53.505  1.00  0.00    -0.002 A 
HETATM    5  C7  UNL     1      24.472   0.641  52.481  1.00  0.00     0.046 A 
HETATM    6  C8  UNL     1      25.809   0.924  52.315  1.00  0.00     0.069 A 
HETATM    7  C15 UNL     1      22.691  -0.469  53.818  1.00  0.00    -0.051 A 
HETATM    8  C16 UNL     1      21.469  -0.115  53.032  1.00  0.00     0.046 C 
HETATM    9  C17 UNL     1      22.749  -1.277  55.059  1.00  0.00     0.184 A 
HETATM   10  N3  UNL     1      24.153  -1.295  55.369  1.00  0.00    -0.285 NA
ENDROOT
BRANCH   6  11
HETATM   11  N1  UNL     1      26.368   1.689  51.264  1.00  0.00    -0.321 N 
HETATM   12  C9  UNL     1      26.015   2.946  50.777  1.00  0.00     0.245 C 
HETATM   13  O2  UNL     1      25.058   3.557  51.307  1.00  0.00    -0.268 OA
HETATM   14  H8  UNL     1      27.183   1.283  50.735  1.00  0.00     0.169 HD
BRANCH  12  15
HETATM   15  C10 UNL     1      26.706   3.601  49.673  1.00  0.00     0.072 C 
HETATM   16  C11 UNL     1      26.581   4.900  49.470  1.00  0.00     0.008 C 
BRANCH  16  17
HETATM   17  C12 UNL     1      27.202   5.699  48.417  1.00  0.00     0.299 C 
BRANCH  17  18
HETATM   18  N2  UNL     1      27.111   7.113  48.549  1.00  0.00     0.083 N 
HETATM   19  C13 UNL     1      28.163   7.888  47.995  1.00  0.00     0.309 C 
HETATM   20  C14 UNL     1      25.812   7.562  48.151  1.00  0.00     0.309 C 
ENDBRANCH  17  18
ENDBRANCH  16  17
ENDBRANCH  12  15
ENDBRANCH   6  11
BRANCH   1  21
HETATM   21  O1  UNL     1      27.987   0.640  53.183  1.00  0.00    -0.349 OA
BRANCH  21  22
HETATM   22  C2  UNL     1      28.990   0.385  54.101  1.00  0.00     0.171 C 
HETATM   23  C1  UNL     1      29.830  -0.768  53.594  1.00  0.00     0.034 C 
ENDBRANCH  21  22
ENDBRANCH   1  21
TORSDOF 6
ENDMDL
MODEL 4
REMARK VINA RESULT:      -6.7      4.309      8.026
REMARK  6 active torsions:
REMARK  status: ('A' for Active; 'I' for Inactive)
REMARK    1  A    between atoms: C2_2  and  O1_3 
REMARK    2  A    between atoms: O1_3  and  C3_4 
REMARK    3  A    between atoms: C8_9  and  N1_10 
REMARK       I    between atoms: N1_10  and  C9_11 
REMARK    4  A    between atoms: C9_11  and  C10_13 
REMARK    5  A    between atoms: C11_14  and  C12_15 
REMARK    6  A    between atoms: C12_15  and  N2_16 
ROOT
HETATM    1  C3  UNL     1      26.386   1.692  52.540  1.00  0.00     0.097 A 
HETATM    2  C4  UNL     1      25.944   0.588  53.244  1.00  0.00     0.071 A 
HETATM    3  C5  UNL     1      24.594   0.241  53.313  1.00  0.00     0.064 A 
HETATM    4  C6  UNL     1      23.699   1.051  52.643  1.00  0.00    -0.002 A 
HETATM    5  C7  UNL     1      24.184   2.141  51.955  1.00  0.00     0.046 A 
HETATM    6  C8  UNL     1      25.507   2.512  51.866  1.00  0.00     0.069 A 
HETATM    7  C15 UNL     1      22.483   0.552  52.834  1.00  0.00    -0.051 A 
HETATM    8  C16 UNL     1      21.222   1.131  52.276  1.00  0.00     0.046 C 
HETATM    9  C17 UNL     1      22.610  -0.658  53.681  1.00  0.00     0.184 A 
HETATM   10  N3  UNL     1      24.025  -0.742  53.918  1.00  0.00    -0.285 NA
ENDROOT
BRANCH   6  11
HETATM   11  N1  UNL     1      26.006   3.632  51.160  1.00  0.00    -0.321 N 
HETATM   12  C9  UNL     1      26.511   3.729  49.865  1.00  0.00     0.245 C 
HETATM   13  O2  UNL     1      26.562   2.700  49.153  1.00  0.00    -0.268 OA
HETATM   14  H8  UNL     1      26.018   4.563  51.652  1.00  0.00     0.169 HD
BRANCH  12  15
HETATM   15  C10 UNL     1      26.989   4.977  49.282  1.00  0.00     0.072 C 
HETATM   16  C11 UNL     1      28.111   5.016  48.586  1.00  0.00     0.008 C 
BRANCH  16  17
HETATM   17  C12 UNL     1      28.719   6.177  47.944  1.00  0.00     0.299 C 
BRANCH  17  18
HETATM   18  N2  UNL     1      30.076   6.452  48.272  1.00  0.00     0.083 N 
HETATM   19  C13 UNL     1      31.048   5.495  47.880  1.00  0.00     0.309 C 
HETATM   20  C14 UNL     1      30.415   7.788  47.889  1.00  0.00     0.309 C 
ENDBRANCH  17  18
ENDBRANCH  16  17
ENDBRANCH  12  15
ENDBRANCH   6  11
BRANCH   1  21
HETATM   21  O1  UNL     1      27.725   2.000  52.497  1.00  0.00    -0.349 OA
BRANCH  21  22
HETATM   22  C2  UNL     1      28.550   2.452  53.512  1.00  0.00     0.171 C 
HETATM   23  C1  UNL     1      29.283   1.266  54.103  1.00  0.00     0.034 C 
ENDBRANCH  21  22
ENDBRANCH   1  21
TORSDOF 6
ENDMDL
MODEL 5
REMARK VINA RESULT:      -6.6      4.307      7.443
REMARK  6 active torsions:
REMARK  status: ('A' for Active; 'I' for Inactive)
REMARK    1  A    between atoms: C2_2  and  O1_3 
REMARK    2  A    between atoms: O1_3  and  C3_4 
REMARK    3  A    between atoms: C8_9  and  N1_10 
REMARK       I    between atoms: N1_10  and  C9_11 
REMARK    4  A    between atoms: C9_11  and  C10_13 
REMARK    5  A    between atoms: C11_14  and  C12_15 
REMARK    6  A    between atoms: C12_15  and  N2_16 
ROOT
HETATM    1  C3  UNL     1      23.740   2.314  51.629  1.00  0.00     0.097 A 
HETATM    2  C4  UNL     1      23.302   1.203  52.323  1.00  0.00     0.071 A 
HETATM    3  C5  UNL     1      24.123   0.506  53.210  1.00  0.00     0.064 A 
HETATM    4  C6  UNL     1      25.412   0.971  53.374  1.00  0.00    -0.002 A 
HETATM    5  C7  UNL     1      25.807   2.083  52.662  1.00  0.00     0.046 A 
HETATM    6  C8  UNL     1      25.024   2.792  51.780  1.00  0.00     0.069 A 
HETATM    7  C15 UNL     1      26.019   0.177  54.249  1.00  0.00    -0.051 A 
HETATM    8  C16 UNL     1      27.433   0.333  54.710  1.00  0.00     0.046 C 
HETATM    9  C17 UNL     1      25.053  -0.864  54.672  1.00  0.00     0.184 A 
HETATM   10  N3  UNL     1      23.870  -0.535  53.924  1.00  0.00    -0.285 NA
ENDROOT
BRANCH   6  11
HETATM   11  N1  UNL     1      25.429   3.933  51.048  1.00  0.00    -0.321 N 
HETATM   12  C9  UNL     1      26.199   4.035  49.890  1.00  0.00     0.245 C 
HETATM   13  O2  UNL     1      26.636   2.989  49.357  1.00  0.00    -0.268 OA
HETATM   14  H8  UNL     1      25.125   4.879  51.395  1.00  0.00     0.169 HD
BRANCH  12  15
HETATM   15  C10 UNL     1      26.527   5.305  49.254  1.00  0.00     0.072 C 
HETATM   16  C11 UNL     1      27.612   5.432  48.512  1.00  0.00     0.008 C 
BRANCH  16  17
HETATM   17  C12 UNL     1      28.076   6.627  47.814  1.00  0.00     0.299 C 
BRANCH  17  18
HETATM   18  N2  UNL     1      29.473   6.895  47.864  1.00  0.00     0.083 N 
HETATM   19  C13 UNL     1      29.900   7.986  48.665  1.00  0.00     0.309 C 
HETATM   20  C14 UNL     1      30.198   5.689  48.124  1.00  0.00     0.309 C 
ENDBRANCH  17  18
ENDBRANCH  16  17
ENDBRANCH  12  15
ENDBRANCH   6  11
BRANCH   1  21
HETATM   21  O1  UNL     1      22.899   2.972  50.764  1.00  0.00    -0.349 OA
BRANCH  21  22
HETATM   22  C2  UNL     1      22.214   2.479  49.668  1.00  0.00     0.171 C 
HETATM   23  C1  UNL     1      22.993   2.824  48.416  1.00  0.00     0.034 C 
ENDBRANCH  21  22
ENDBRANCH   1  21
TORSDOF 6
ENDMDL
MODEL 6
REMARK VINA RESULT:      -6.6      3.102      5.045
REMARK  6 active torsions:
REMARK  status: ('A' for Active; 'I' for Inactive)
REMARK    1  A    between atoms: C2_2  and  O1_3 
REMARK    2  A    between atoms: O1_3  and  C3_4 
REMARK    3  A    between atoms: C8_9  and  N1_10 
REMARK       I    between atoms: N1_10  and  C9_11 
REMARK    4  A    between atoms: C9_11  and  C10_13 
REMARK    5  A    between atoms: C11_14  and  C12_15 
REMARK    6  A    between atoms: C12_15  and  N2_16 
ROOT
HETATM    1  C3  UNL     1      24.646   0.353  53.095  1.00  0.00     0.097 A 
HETATM    2  C4  UNL     1      25.569  -0.665  53.230  1.00  0.00     0.071 A 
HETATM    3  C5  UNL     1      26.908  -0.421  53.539  1.00  0.00     0.064 A 
HETATM    4  C6  UNL     1      27.286   0.895  53.707  1.00  0.00    -0.002 A 
HETATM    5  C7  UNL     1      26.333   1.879  53.563  1.00  0.00     0.046 A 
HETATM    6  C8  UNL     1      25.006   1.674  53.259  1.00  0.00     0.069 A 
HETATM    7  C15 UNL     1      28.584   0.908  53.991  1.00  0.00    -0.051 A 
HETATM    8  C16 UNL     1      29.392   2.139  54.249  1.00  0.00     0.046 C 
HETATM    9  C17 UNL     1      29.066  -0.493  54.006  1.00  0.00     0.184 A 
HETATM   10  N3  UNL     1      27.881  -1.248  53.697  1.00  0.00    -0.285 NA
ENDROOT
BRANCH   6  11
HETATM   11  N1  UNL     1      24.026   2.683  53.110  1.00  0.00    -0.321 N 
HETATM   12  C9  UNL     1      23.677   3.443  51.994  1.00  0.00     0.245 C 
HETATM   13  O2  UNL     1      24.286   3.255  50.916  1.00  0.00    -0.268 OA
HETATM   14  H8  UNL     1      23.443   2.937  53.949  1.00  0.00     0.169 HD
BRANCH  12  15
HETATM   15  C10 UNL     1      22.628   4.455  52.009  1.00  0.00     0.072 C 
HETATM   16  C11 UNL     1      22.652   5.470  51.165  1.00  0.00     0.008 C 
BRANCH  16  17
HETATM   17  C12 UNL     1      21.684   6.557  51.055  1.00  0.00     0.299 C 
BRANCH  17  18
HETATM   18  N2  UNL     1      21.881   7.484  49.993  1.00  0.00     0.083 N 
HETATM   19  C13 UNL     1      20.832   8.402  49.726  1.00  0.00     0.309 C 
HETATM   20  C14 UNL     1      23.160   8.112  50.118  1.00  0.00     0.309 C 
ENDBRANCH  17  18
ENDBRANCH  16  17
ENDBRANCH  12  15
ENDBRANCH   6  11
BRANCH   1  21
HETATM   21  O1  UNL     1      23.336   0.071  52.790  1.00  0.00    -0.349 OA
BRANCH  21  22
HETATM   22  C2  UNL     1      22.545  -0.978  53.224  1.00  0.00     0.171 C 
HETATM   23  C1  UNL     1      21.928  -0.600  54.554  1.00  0.00     0.034 C 
ENDBRANCH  21  22
ENDBRANCH   1  21
TORSDOF 6
ENDMDL
MODEL 7
REMARK VINA RESULT:      -6.4      2.084      3.670
REMARK  6 active torsions:
REMARK  status: ('A' for Active; 'I' for Inactive)
REMARK    1  A    between atoms: C2_2  and  O1_3 
REMARK    2  A    between atoms: O1_3  and  C3_4 
REMARK    3  A    between atoms: C8_9  and  N1_10 
REMARK       I    between atoms: N1_10  and  C9_11 
REMARK    4  A    between atoms: C9_11  and  C10_13 
REMARK    5  A    between atoms: C11_14  and  C12_15 
REMARK    6  A    between atoms: C12_15  and  N2_16 
ROOT
HETATM    1  C3  UNL     1      24.379  -0.015  53.179  1.00  0.00     0.097 A 
HETATM    2  C4  UNL     1      25.433  -0.874  53.422  1.00  0.00     0.071 A 
HETATM    3  C5  UNL     1      26.740  -0.418  53.598  1.00  0.00     0.064 A 
HETATM    4  C6  UNL     1      26.949   0.944  53.522  1.00  0.00    -0.002 A 
HETATM    5  C7  UNL     1      25.868   1.763  53.278  1.00  0.00     0.046 A 
HETATM    6  C8  UNL     1      24.568   1.348  53.099  1.00  0.00     0.069 A 
HETATM    7  C15 UNL     1      28.244   1.165  53.715  1.00  0.00    -0.051 A 
HETATM    8  C16 UNL     1      28.893   2.512  53.713  1.00  0.00     0.046 C 
HETATM    9  C17 UNL     1      28.907  -0.142  53.931  1.00  0.00     0.184 A 
HETATM   10  N3  UNL     1      27.820  -1.079  53.828  1.00  0.00    -0.285 NA
ENDROOT
BRANCH   6  11
HETATM   11  N1  UNL     1      23.459   2.188  52.848  1.00  0.00    -0.321 N 
HETATM   12  C9  UNL     1      23.040   2.801  51.668  1.00  0.00     0.245 C 
HETATM   13  O2  UNL     1      23.705   2.623  50.621  1.00  0.00    -0.268 OA
HETATM   14  H8  UNL     1      22.817   2.416  53.651  1.00  0.00     0.169 HD
BRANCH  12  15
HETATM   15  C10 UNL     1      21.855   3.646  51.579  1.00  0.00     0.072 C 
HETATM   16  C11 UNL     1      20.644   3.129  51.676  1.00  0.00     0.008 C 
BRANCH  16  17
HETATM   17  C12 UNL     1      19.368   3.836  51.608  1.00  0.00     0.299 C 
BRANCH  17  18
HETATM   18  N2  UNL     1      18.355   3.250  50.799  1.00  0.00     0.083 N 
HETATM   19  C13 UNL     1      17.611   4.117  49.957  1.00  0.00     0.309 C 
HETATM   20  C14 UNL     1      18.872   2.106  50.113  1.00  0.00     0.309 C 
ENDBRANCH  17  18
ENDBRANCH  16  17
ENDBRANCH  12  15
ENDBRANCH   6  11
BRANCH   1  21
HETATM   21  O1  UNL     1      23.106  -0.505  53.011  1.00  0.00    -0.349 OA
BRANCH  21  22
HETATM   22  C2  UNL     1      22.337  -1.257  53.881  1.00  0.00     0.171 C 
HETATM   23  C1  UNL     1      21.505  -0.317  54.728  1.00  0.00     0.034 C 
ENDBRANCH  21  22
ENDBRANCH   1  21
TORSDOF 6
ENDMDL
MODEL 8
REMARK VINA RESULT:      -6.2      7.764      9.679
REMARK  6 active torsions:
REMARK  status: ('A' for Active; 'I' for Inactive)
REMARK    1  A    between atoms: C2_2  and  O1_3 
REMARK    2  A    between atoms: O1_3  and  C3_4 
REMARK    3  A    between atoms: C8_9  and  N1_10 
REMARK       I    between atoms: N1_10  and  C9_11 
REMARK    4  A    between atoms: C9_11  and  C10_13 
REMARK    5  A    between atoms: C11_14  and  C12_15 
REMARK    6  A    between atoms: C12_15  and  N2_16 
ROOT
HETATM    1  C3  UNL     1      31.823   6.856  48.972  1.00  0.00     0.097 A 
HETATM    2  C4  UNL     1      33.173   6.633  48.783  1.00  0.00     0.071 A 
HETATM    3  C5  UNL     1      33.663   5.444  48.241  1.00  0.00     0.064 A 
HETATM    4  C6  UNL     1      32.738   4.481  47.893  1.00  0.00    -0.002 A 
HETATM    5  C7  UNL     1      31.402   4.746  48.099  1.00  0.00     0.046 A 
HETATM    6  C8  UNL     1      30.885   5.905  48.631  1.00  0.00     0.069 A 
HETATM    7  C15 UNL     1      33.404   3.442  47.403  1.00  0.00    -0.051 A 
HETATM    8  C16 UNL     1      32.775   2.179  46.907  1.00  0.00     0.046 C 
HETATM    9  C17 UNL     1      34.850   3.762  47.440  1.00  0.00     0.184 A 
HETATM   10  N3  UNL     1      34.876   5.085  48.004  1.00  0.00    -0.285 NA
ENDROOT
BRANCH   6  11
HETATM   11  N1  UNL     1      29.513   6.177  48.844  1.00  0.00    -0.321 N 
HETATM   12  C9  UNL     1      28.573   6.780  48.010  1.00  0.00     0.245 C 
HETATM   13  O2  UNL     1      28.930   7.169  46.873  1.00  0.00    -0.268 OA
HETATM   14  H8  UNL     1      29.090   5.898  49.767  1.00  0.00     0.169 HD
BRANCH  12  15
HETATM   15  C10 UNL     1      27.180   6.986  48.387  1.00  0.00     0.072 C 
HETATM   16  C11 UNL     1      26.419   5.970  48.752  1.00  0.00     0.008 C 
BRANCH  16  17
HETATM   17  C12 UNL     1      25.017   6.010  49.155  1.00  0.00     0.299 C 
BRANCH  17  18
HETATM   18  N2  UNL     1      24.739   6.519  50.455  1.00  0.00     0.083 N 
HETATM   19  C13 UNL     1      24.218   7.837  50.542  1.00  0.00     0.309 C 
HETATM   20  C14 UNL     1      23.984   5.565  51.207  1.00  0.00     0.309 C 
ENDBRANCH  17  18
ENDBRANCH  16  17
ENDBRANCH  12  15
ENDBRANCH   6  11
BRANCH   1  21
HETATM   21  O1  UNL     1      31.381   8.041  49.509  1.00  0.00    -0.349 OA
BRANCH  21  22
HETATM   22  C2  UNL     1      31.283   9.287  48.915  1.00  0.00     0.171 C 
HETATM   23  C1  UNL     1      29.995   9.940  49.371  1.00  0.00     0.034 C 
ENDBRANCH  21  22
ENDBRANCH   1  21
TORSDOF 6
ENDMDL
MODEL 9
REMARK VINA RESULT:      -6.1      1.848      2.494
REMARK  6 active torsions:
REMARK  status: ('A' for Active; 'I' for Inactive)
REMARK    1  A    between atoms: C2_2  and  O1_3 
REMARK    2  A    between atoms: O1_3  and  C3_4 
REMARK    3  A    between atoms: C8_9  and  N1_10 
REMARK       I    between atoms: N1_10  and  C9_11 
REMARK    4  A    between atoms: C9_11  and  C10_13 
REMARK    5  A    between atoms: C11_14  and  C12_15 
REMARK    6  A    between atoms: C12_15  and  N2_16 
ROOT
HETATM    1  C3  UNL     1      23.811   1.499  51.603  1.00  0.00     0.097 A 
HETATM    2  C4  UNL     1      25.011   2.108  51.292  1.00  0.00     0.071 A 
HETATM    3  C5  UNL     1      26.163   1.915  52.055  1.00  0.00     0.064 A 
HETATM    4  C6  UNL     1      26.062   1.082  53.151  1.00  0.00    -0.002 A 
HETATM    5  C7  UNL     1      24.846   0.497  53.424  1.00  0.00     0.046 A 
HETATM    6  C8  UNL     1      23.691   0.665  52.694  1.00  0.00     0.069 A 
HETATM    7  C15 UNL     1      27.255   1.036  53.733  1.00  0.00    -0.051 A 
HETATM    8  C16 UNL     1      27.580   0.243  54.958  1.00  0.00     0.046 C 
HETATM    9  C17 UNL     1      28.180   1.896  52.957  1.00  0.00     0.184 A 
HETATM   10  N3  UNL     1      27.345   2.403  51.902  1.00  0.00    -0.285 NA
ENDROOT
BRANCH   6  11
HETATM   11  N1  UNL     1      22.441   0.065  52.974  1.00  0.00    -0.321 N 
HETATM   12  C9  UNL     1      22.074  -0.829  53.978  1.00  0.00     0.245 C 
HETATM   13  O2  UNL     1      22.940  -1.206  54.802  1.00  0.00    -0.268 OA
HETATM   14  H8  UNL     1      21.626   0.302  52.350  1.00  0.00     0.169 HD
BRANCH  12  15
HETATM   15  C10 UNL     1      20.724  -1.356  54.130  1.00  0.00     0.072 C 
HETATM   16  C11 UNL     1      19.734  -0.915  53.375  1.00  0.00     0.008 C 
BRANCH  16  17
HETATM   17  C12 UNL     1      18.337  -1.337  53.404  1.00  0.00     0.299 C 
BRANCH  17  18
HETATM   18  N2  UNL     1      17.528  -0.947  52.300  1.00  0.00     0.083 N 
HETATM   19  C13 UNL     1      16.241  -0.422  52.589  1.00  0.00     0.309 C 
HETATM   20  C14 UNL     1      18.281  -0.128  51.401  1.00  0.00     0.309 C 
ENDBRANCH  17  18
ENDBRANCH  16  17
ENDBRANCH  12  15
ENDBRANCH   6  11
BRANCH   1  21
HETATM   21  O1  UNL     1      22.698   1.715  50.825  1.00  0.00    -0.349 OA
BRANCH  21  22
HETATM   22  C2  UNL     1      22.436   2.749  49.944  1.00  0.00     0.171 C 
HETATM   23  C1  UNL     1      22.490   2.206  48.532  1.00  0.00     0.034 C 
ENDBRANCH  21  22
ENDBRANCH   1  21
TORSDOF 6
ENDMDL
