MODEL 1
REMARK VINA RESULT:      -6.0      0.000      0.000
REMARK  8 active torsions:
REMARK  status: ('A' for Active; 'I' for Inactive)
REMARK    1  A    between atoms: N1_2  and  C2_3 
REMARK    2  A    between atoms: C2_3  and  C3_4 
REMARK    3  A    between atoms: C3_4  and  N2_5 
REMARK    4  A    between atoms: C4_7  and  C5_8 
REMARK    5  A    between atoms: C5_8  and  O1_9 
REMARK    6  A    between atoms: O1_9  and  C6_10 
REMARK    7  A    between atoms: N3_13  and  C9_14 
REMARK    8  A    between atoms: C12_18  and  O3_19 
ROOT
HETATM    1  C6  UNL     1      23.631   2.071  52.578  1.00  0.00     0.103 A 
HETATM    2  C7  UNL     1      23.522   0.942  53.250  1.00  0.00     0.067 A 
HETATM    3  C8  UNL     1      22.213   0.301  53.490  1.00  0.00     0.043 A 
HETATM    4  N3  UNL     1      22.423  -0.792  54.141  1.00  0.00    -0.226 NA
HETATM    5  C10 UNL     1      20.928   0.872  53.019  1.00  0.00     0.089 A 
HETATM    6  C11 UNL     1      21.227   2.127  52.285  1.00  0.00     0.019 A 
HETATM    7  C12 UNL     1      22.404   2.721  52.050  1.00  0.00     0.098 A 
ENDROOT
BRANCH   1   8
HETATM    8  O1  UNL     1      24.693   2.889  52.201  1.00  0.00    -0.347 OA
BRANCH   8   9
HETATM    9  C5  UNL     1      25.426   2.662  50.997  1.00  0.00     0.196 C 
BRANCH   9  10
HETATM   10  C4  UNL     1      26.834   2.477  51.389  1.00  0.00     0.163 C 
HETATM   11  N2  UNL     1      27.262   1.715  52.436  1.00  0.00    -0.322 N 
HETATM   12 CL1  UNL     1      28.402   2.530  53.483  1.00  0.00     0.008 Cl
BRANCH  11  13
HETATM   13  C3  UNL     1      27.245   0.354  52.612  1.00  0.00     0.166 C 
BRANCH  13  14
HETATM   14  C2  UNL     1      27.560  -0.073  54.016  1.00  0.00     0.289 C 
BRANCH  14  15
HETATM   15  N1  UNL     1      28.479  -1.210  53.923  1.00  0.00     0.080 N 
HETATM   16  C1  UNL     1      29.814  -0.820  53.577  1.00  0.00     0.306 C 
HETATM   17  H4  UNL     1      28.500  -1.780  54.776  1.00  0.00     0.315 HD
ENDBRANCH  14  15
ENDBRANCH  13  14
ENDBRANCH  11  13
ENDBRANCH   9  10
ENDBRANCH   8   9
ENDBRANCH   1   8
BRANCH   7  18
HETATM   18  O3  UNL     1      22.293   3.898  51.321  1.00  0.00    -0.353 OA
HETATM   19  C13 UNL     1      21.971   5.138  51.923  1.00  0.00     0.210 C 
ENDBRANCH   7  18
BRANCH   4  20
HETATM   20  C9  UNL     1      21.322  -1.616  54.506  1.00  0.00     0.376 C 
HETATM   21  O2  UNL     1      22.284  -1.785  55.330  1.00  0.00    -0.281 OA
ENDBRANCH   4  20
TORSDOF 8
ENDMDL
MODEL 2
REMARK VINA RESULT:      -6.0      3.181      5.363
REMARK  8 active torsions:
REMARK  status: ('A' for Active; 'I' for Inactive)
REMARK    1  A    between atoms: N1_2  and  C2_3 
REMARK    2  A    between atoms: C2_3  and  C3_4 
REMARK    3  A    between atoms: C3_4  and  N2_5 
REMARK    4  A    between atoms: C4_7  and  C5_8 
REMARK    5  A    between atoms: C5_8  and  O1_9 
REMARK    6  A    between atoms: O1_9  and  C6_10 
REMARK    7  A    between atoms: N3_13  and  C9_14 
REMARK    8  A    between atoms: C12_18  and  O3_19 
ROOT
HETATM    1  C6  UNL     1      24.442   2.127  52.956  1.00  0.00     0.103 A 
HETATM    2  C7  UNL     1      25.653   2.179  53.474  1.00  0.00     0.067 A 
HETATM    3  C8  UNL     1      26.349   0.967  53.952  1.00  0.00     0.043 A 
HETATM    4  N3  UNL     1      27.515   1.324  54.374  1.00  0.00    -0.226 NA
HETATM    5  C10 UNL     1      25.750  -0.388  53.908  1.00  0.00     0.089 A 
HETATM    6  C11 UNL     1      24.401  -0.271  53.300  1.00  0.00     0.019 A 
HETATM    7  C12 UNL     1      23.754   0.813  52.854  1.00  0.00     0.098 A 
ENDROOT
BRANCH   1   8
HETATM    8  O1  UNL     1      23.556   3.067  52.434  1.00  0.00    -0.347 OA
BRANCH   8   9
HETATM    9  C5  UNL     1      23.646   4.451  52.772  1.00  0.00     0.196 C 
BRANCH   9  10
HETATM   10  C4  UNL     1      23.201   5.204  51.587  1.00  0.00     0.163 C 
HETATM   11  N2  UNL     1      23.842   6.289  51.063  1.00  0.00    -0.322 N 
HETATM   12 CL1  UNL     1      22.787   7.648  50.749  1.00  0.00     0.008 Cl
BRANCH  11  13
HETATM   13  C3  UNL     1      25.051   6.383  50.419  1.00  0.00     0.166 C 
BRANCH  13  14
HETATM   14  C2  UNL     1      25.375   5.184  49.576  1.00  0.00     0.289 C 
BRANCH  14  15
HETATM   15  N1  UNL     1      26.372   4.400  50.312  1.00  0.00     0.080 N 
HETATM   16  C1  UNL     1      26.452   3.041  49.864  1.00  0.00     0.306 C 
HETATM   17  H4  UNL     1      27.306   4.821  50.293  1.00  0.00     0.315 HD
ENDBRANCH  14  15
ENDBRANCH  13  14
ENDBRANCH  11  13
ENDBRANCH   9  10
ENDBRANCH   8   9
ENDBRANCH   1   8
BRANCH   7  18
HETATM   18  O3  UNL     1      22.493   0.534  52.344  1.00  0.00    -0.353 OA
HETATM   19  C13 UNL     1      21.606  -0.376  52.967  1.00  0.00     0.210 C 
ENDBRANCH   7  18
BRANCH   4  20
HETATM   20  C9  UNL     1      28.405   0.344  54.892  1.00  0.00     0.376 C 
HETATM   21  O2  UNL     1      28.923   1.506  55.008  1.00  0.00    -0.281 OA
ENDBRANCH   4  20
TORSDOF 8
ENDMDL
MODEL 3
REMARK VINA RESULT:      -5.9      3.256      6.184
REMARK  8 active torsions:
REMARK  status: ('A' for Active; 'I' for Inactive)
REMARK    1  A    between atoms: N1_2  and  C2_3 
REMARK    2  A    between atoms: C2_3  and  C3_4 
REMARK    3  A    between atoms: C3_4  and  N2_5 
REMARK    4  A    between atoms: C4_7  and  C5_8 
REMARK    5  A    between atoms: C5_8  and  O1_9 
REMARK    6  A    between atoms: O1_9  and  C6_10 
REMARK    7  A    between atoms: N3_13  and  C9_14 
REMARK    8  A    between atoms: C12_18  and  O3_19 
ROOT
HETATM    1  C6  UNL     1      25.254   0.181  52.866  1.00  0.00     0.103 A 
HETATM    2  C7  UNL     1      26.198  -0.678  53.194  1.00  0.00     0.067 A 
HETATM    3  C8  UNL     1      27.624  -0.293  53.231  1.00  0.00     0.043 A 
HETATM    4  N3  UNL     1      28.300  -1.325  53.610  1.00  0.00    -0.226 NA
HETATM    5  C10 UNL     1      28.110   1.065  52.890  1.00  0.00     0.089 A 
HETATM    6  C11 UNL     1      26.931   1.900  52.551  1.00  0.00     0.019 A 
HETATM    7  C12 UNL     1      25.633   1.576  52.518  1.00  0.00     0.098 A 
ENDROOT
BRANCH   1   8
HETATM    8  O1  UNL     1      23.867   0.118  52.747  1.00  0.00    -0.347 OA
BRANCH   8   9
HETATM    9  C5  UNL     1      23.049  -0.429  53.781  1.00  0.00     0.196 C 
BRANCH   9  10
HETATM   10  C4  UNL     1      21.808  -0.893  53.137  1.00  0.00     0.163 C 
HETATM   11  N2  UNL     1      20.738  -0.101  52.839  1.00  0.00    -0.322 N 
HETATM   12 CL1  UNL     1      19.205  -0.758  53.369  1.00  0.00     0.008 Cl
BRANCH  11  13
HETATM   13  C3  UNL     1      20.604   0.903  51.913  1.00  0.00     0.166 C 
BRANCH  13  14
HETATM   14  C2  UNL     1      21.249   0.592  50.594  1.00  0.00     0.289 C 
BRANCH  14  15
HETATM   15  N1  UNL     1      22.478   1.386  50.519  1.00  0.00     0.080 N 
HETATM   16  C1  UNL     1      22.466   2.330  49.442  1.00  0.00     0.306 C 
HETATM   17  H4  UNL     1      22.696   1.871  51.396  1.00  0.00     0.315 HD
ENDBRANCH  14  15
ENDBRANCH  13  14
ENDBRANCH  11  13
ENDBRANCH   9  10
ENDBRANCH   8   9
ENDBRANCH   1   8
BRANCH   7  18
HETATM   18  O3  UNL     1      24.808   2.630  52.151  1.00  0.00    -0.353 OA
HETATM   19  C13 UNL     1      24.175   3.467  53.102  1.00  0.00     0.210 C 
ENDBRANCH   7  18
BRANCH   4  20
HETATM   20  C9  UNL     1      29.714  -1.231  53.734  1.00  0.00     0.376 C 
HETATM   21  O2  UNL     1      29.375  -2.445  53.525  1.00  0.00    -0.281 OA
ENDBRANCH   4  20
TORSDOF 8
ENDMDL
MODEL 4
REMARK VINA RESULT:      -5.8      2.920      5.452
REMARK  8 active torsions:
REMARK  status: ('A' for Active; 'I' for Inactive)
REMARK    1  A    between atoms: N1_2  and  C2_3 
REMARK    2  A    between atoms: C2_3  and  C3_4 
REMARK    3  A    between atoms: C3_4  and  N2_5 
REMARK    4  A    between atoms: C4_7  and  C5_8 
REMARK    5  A    between atoms: C5_8  and  O1_9 
REMARK    6  A    between atoms: O1_9  and  C6_10 
REMARK    7  A    between atoms: N3_13  and  C9_14 
REMARK    8  A    between atoms: C12_18  and  O3_19 
ROOT
HETATM    1  C6  UNL     1      24.398   1.880  52.997  1.00  0.00     0.103 A 
HETATM    2  C7  UNL     1      25.624   2.031  53.456  1.00  0.00     0.067 A 
HETATM    3  C8  UNL     1      26.416   0.888  53.956  1.00  0.00     0.043 A 
HETATM    4  N3  UNL     1      27.574   1.336  54.307  1.00  0.00    -0.226 NA
HETATM    5  C10 UNL     1      25.903  -0.501  54.000  1.00  0.00     0.089 A 
HETATM    6  C11 UNL     1      24.524  -0.497  53.450  1.00  0.00     0.019 A 
HETATM    7  C12 UNL     1      23.791   0.523  52.986  1.00  0.00     0.098 A 
ENDROOT
BRANCH   1   8
HETATM    8  O1  UNL     1      23.433   2.737  52.475  1.00  0.00    -0.347 OA
BRANCH   8   9
HETATM    9  C5  UNL     1      23.567   4.156  52.555  1.00  0.00     0.196 C 
BRANCH   9  10
HETATM   10  C4  UNL     1      24.239   4.587  51.317  1.00  0.00     0.163 C 
HETATM   11  N2  UNL     1      24.124   3.966  50.107  1.00  0.00    -0.322 N 
HETATM   12 CL1  UNL     1      25.658   3.656  49.325  1.00  0.00     0.008 Cl
BRANCH  11  13
HETATM   13  C3  UNL     1      23.054   3.871  49.254  1.00  0.00     0.166 C 
BRANCH  13  14
HETATM   14  C2  UNL     1      22.855   2.492  48.694  1.00  0.00     0.289 C 
BRANCH  14  15
HETATM   15  N1  UNL     1      22.351   1.655  49.787  1.00  0.00     0.080 N 
HETATM   16  C1  UNL     1      21.005   1.213  49.573  1.00  0.00     0.306 C 
HETATM   17  H4  UNL     1      22.950   0.846  49.981  1.00  0.00     0.315 HD
ENDBRANCH  14  15
ENDBRANCH  13  14
ENDBRANCH  11  13
ENDBRANCH   9  10
ENDBRANCH   8   9
ENDBRANCH   1   8
BRANCH   7  18
HETATM   18  O3  UNL     1      22.530   0.143  52.547  1.00  0.00    -0.353 OA
HETATM   19  C13 UNL     1      21.442  -0.045  53.433  1.00  0.00     0.210 C 
ENDBRANCH   7  18
BRANCH   4  20
HETATM   20  C9  UNL     1      28.546   0.438  54.828  1.00  0.00     0.376 C 
HETATM   21  O2  UNL     1      28.968   1.640  54.926  1.00  0.00    -0.281 OA
ENDBRANCH   4  20
TORSDOF 8
ENDMDL
MODEL 5
REMARK VINA RESULT:      -5.8      3.253      6.747
REMARK  8 active torsions:
REMARK  status: ('A' for Active; 'I' for Inactive)
REMARK    1  A    between atoms: N1_2  and  C2_3 
REMARK    2  A    between atoms: C2_3  and  C3_4 
REMARK    3  A    between atoms: C3_4  and  N2_5 
REMARK    4  A    between atoms: C4_7  and  C5_8 
REMARK    5  A    between atoms: C5_8  and  O1_9 
REMARK    6  A    between atoms: O1_9  and  C6_10 
REMARK    7  A    between atoms: N3_13  and  C9_14 
REMARK    8  A    between atoms: C12_18  and  O3_19 
ROOT
HETATM    1  C6  UNL     1      24.104  -0.324  53.350  1.00  0.00     0.103 A 
HETATM    2  C7  UNL     1      25.184  -0.546  54.073  1.00  0.00     0.067 A 
HETATM    3  C8  UNL     1      26.418   0.246  53.894  1.00  0.00     0.043 A 
HETATM    4  N3  UNL     1      27.284  -0.177  54.753  1.00  0.00    -0.226 NA
HETATM    5  C10 UNL     1      26.553   1.328  52.891  1.00  0.00     0.089 A 
HETATM    6  C11 UNL     1      25.261   1.449  52.172  1.00  0.00     0.019 A 
HETATM    7  C12 UNL     1      24.129   0.748  52.322  1.00  0.00     0.098 A 
ENDROOT
BRANCH   1   8
HETATM    8  O1  UNL     1      22.831  -0.886  53.290  1.00  0.00    -0.347 OA
BRANCH   8   9
HETATM    9  C5  UNL     1      22.018  -1.028  54.455  1.00  0.00     0.196 C 
BRANCH   9  10
HETATM   10  C4  UNL     1      21.001   0.036  54.392  1.00  0.00     0.163 C 
HETATM   11  N2  UNL     1      20.204   0.295  53.314  1.00  0.00    -0.322 N 
HETATM   12 CL1  UNL     1      20.165   1.983  52.856  1.00  0.00     0.008 Cl
BRANCH  11  13
HETATM   13  C3  UNL     1      19.181  -0.438  52.767  1.00  0.00     0.166 C 
BRANCH  13  14
HETATM   14  C2  UNL     1      18.532  -1.378  53.741  1.00  0.00     0.289 C 
BRANCH  14  15
HETATM   15  N1  UNL     1      17.228  -1.744  53.179  1.00  0.00     0.080 N 
HETATM   16  C1  UNL     1      16.467  -0.607  52.755  1.00  0.00     0.306 C 
HETATM   17  H4  UNL     1      17.297  -2.416  52.408  1.00  0.00     0.315 HD
ENDBRANCH  14  15
ENDBRANCH  13  14
ENDBRANCH  11  13
ENDBRANCH   9  10
ENDBRANCH   8   9
ENDBRANCH   1   8
BRANCH   7  18
HETATM   18  O3  UNL     1      23.114   1.147  51.463  1.00  0.00    -0.353 OA
HETATM   19  C13 UNL     1      23.230   2.280  50.623  1.00  0.00     0.210 C 
ENDBRANCH   7  18
BRANCH   4  20
HETATM   20  C9  UNL     1      28.574   0.420  54.801  1.00  0.00     0.376 C 
HETATM   21  O2  UNL     1      28.678  -0.817  54.498  1.00  0.00    -0.281 OA
ENDBRANCH   4  20
TORSDOF 8
ENDMDL
MODEL 6
REMARK VINA RESULT:      -5.7      3.040      6.071
REMARK  8 active torsions:
REMARK  status: ('A' for Active; 'I' for Inactive)
REMARK    1  A    between atoms: N1_2  and  C2_3 
REMARK    2  A    between atoms: C2_3  and  C3_4 
REMARK    3  A    between atoms: C3_4  and  N2_5 
REMARK    4  A    between atoms: C4_7  and  C5_8 
REMARK    5  A    between atoms: C5_8  and  O1_9 
REMARK    6  A    between atoms: O1_9  and  C6_10 
REMARK    7  A    between atoms: N3_13  and  C9_14 
REMARK    8  A    between atoms: C12_18  and  O3_19 
ROOT
HETATM    1  C6  UNL     1      24.049   1.583  53.076  1.00  0.00     0.103 A 
HETATM    2  C7  UNL     1      25.218   2.178  53.209  1.00  0.00     0.067 A 
HETATM    3  C8  UNL     1      26.412   1.453  53.688  1.00  0.00     0.043 A 
HETATM    4  N3  UNL     1      27.402   2.281  53.687  1.00  0.00    -0.226 NA
HETATM    5  C10 UNL     1      26.396   0.021  54.072  1.00  0.00     0.089 A 
HETATM    6  C11 UNL     1      25.020  -0.493  53.861  1.00  0.00     0.019 A 
HETATM    7  C12 UNL     1      23.926   0.143  53.422  1.00  0.00     0.098 A 
ENDROOT
BRANCH   1   8
HETATM    8  O1  UNL     1      22.783   1.989  52.661  1.00  0.00    -0.347 OA
BRANCH   8   9
HETATM    9  C5  UNL     1      22.400   1.964  51.285  1.00  0.00     0.196 C 
BRANCH   9  10
HETATM   10  C4  UNL     1      23.290   2.904  50.582  1.00  0.00     0.163 C 
HETATM   11  N2  UNL     1      22.948   4.169  50.201  1.00  0.00    -0.322 N 
HETATM   12 CL1  UNL     1      23.342   4.534  48.536  1.00  0.00     0.008 Cl
BRANCH  11  13
HETATM   13  C3  UNL     1      22.693   5.287  50.954  1.00  0.00     0.166 C 
BRANCH  13  14
HETATM   14  C2  UNL     1      23.647   5.468  52.098  1.00  0.00     0.289 C 
BRANCH  14  15
HETATM   15  N1  UNL     1      24.407   6.693  51.834  1.00  0.00     0.080 N 
HETATM   16  C1  UNL     1      23.727   7.589  50.946  1.00  0.00     0.306 C 
HETATM   17  H4  UNL     1      24.670   7.195  52.689  1.00  0.00     0.315 HD
ENDBRANCH  14  15
ENDBRANCH  13  14
ENDBRANCH  11  13
ENDBRANCH   9  10
ENDBRANCH   8   9
ENDBRANCH   1   8
BRANCH   7  18
HETATM   18  O3  UNL     1      22.804  -0.670  53.353  1.00  0.00    -0.353 OA
HETATM   19  C13 UNL     1      22.150  -1.163  54.508  1.00  0.00     0.210 C 
ENDBRANCH   7  18
BRANCH   4  20
HETATM   20  C9  UNL     1      28.687   1.839  54.106  1.00  0.00     0.376 C 
HETATM   21  O2  UNL     1      28.806   2.673  53.145  1.00  0.00    -0.281 OA
ENDBRANCH   4  20
TORSDOF 8
ENDMDL
MODEL 7
REMARK VINA RESULT:      -5.6      2.297      4.316
REMARK  8 active torsions:
REMARK  status: ('A' for Active; 'I' for Inactive)
REMARK    1  A    between atoms: N1_2  and  C2_3 
REMARK    2  A    between atoms: C2_3  and  C3_4 
REMARK    3  A    between atoms: C3_4  and  N2_5 
REMARK    4  A    between atoms: C4_7  and  C5_8 
REMARK    5  A    between atoms: C5_8  and  O1_9 
REMARK    6  A    between atoms: O1_9  and  C6_10 
REMARK    7  A    between atoms: N3_13  and  C9_14 
REMARK    8  A    between atoms: C12_18  and  O3_19 
ROOT
HETATM    1  C6  UNL     1      24.135   1.118  53.027  1.00  0.00     0.103 A 
HETATM    2  C7  UNL     1      24.271   2.380  52.670  1.00  0.00     0.067 A 
HETATM    3  C8  UNL     1      23.110   3.214  52.297  1.00  0.00     0.043 A 
HETATM    4  N3  UNL     1      23.547   4.398  52.027  1.00  0.00    -0.226 NA
HETATM    5  C10 UNL     1      21.717   2.708  52.275  1.00  0.00     0.089 A 
HETATM    6  C11 UNL     1      21.740   1.287  52.702  1.00  0.00     0.019 A 
HETATM    7  C12 UNL     1      22.777   0.515  53.051  1.00  0.00     0.098 A 
ENDROOT
BRANCH   1   8
HETATM    8  O1  UNL     1      25.011   0.110  53.421  1.00  0.00    -0.347 OA
BRANCH   8   9
HETATM    9  C5  UNL     1      25.917  -0.499  52.501  1.00  0.00     0.196 C 
BRANCH   9  10
HETATM   10  C4  UNL     1      26.887  -1.261  53.305  1.00  0.00     0.163 C 
HETATM   11  N2  UNL     1      28.244  -1.158  53.200  1.00  0.00    -0.322 N 
HETATM   12 CL1  UNL     1      29.061  -2.699  53.072  1.00  0.00     0.008 Cl
BRANCH  11  13
HETATM   13  C3  UNL     1      29.086  -0.125  53.529  1.00  0.00     0.166 C 
BRANCH  13  14
HETATM   14  C2  UNL     1      28.714   0.566  54.809  1.00  0.00     0.289 C 
BRANCH  14  15
HETATM   15  N1  UNL     1      28.078   1.834  54.442  1.00  0.00     0.080 N 
HETATM   16  C1  UNL     1      28.383   2.243  53.103  1.00  0.00     0.306 C 
HETATM   17  H4  UNL     1      27.061   1.825  54.573  1.00  0.00     0.315 HD
ENDBRANCH  14  15
ENDBRANCH  13  14
ENDBRANCH  11  13
ENDBRANCH   9  10
ENDBRANCH   8   9
ENDBRANCH   1   8
BRANCH   7  18
HETATM   18  O3  UNL     1      22.412  -0.779  53.395  1.00  0.00    -0.353 OA
HETATM   19  C13 UNL     1      22.070  -1.146  54.719  1.00  0.00     0.210 C 
ENDBRANCH   7  18
BRANCH   4  20
HETATM   20  C9  UNL     1      22.630   5.413  51.636  1.00  0.00     0.376 C 
HETATM   21  O2  UNL     1      23.758   5.604  51.068  1.00  0.00    -0.281 OA
ENDBRANCH   4  20
TORSDOF 8
ENDMDL
MODEL 8
REMARK VINA RESULT:      -5.5      3.198      5.883
REMARK  8 active torsions:
REMARK  status: ('A' for Active; 'I' for Inactive)
REMARK    1  A    between atoms: N1_2  and  C2_3 
REMARK    2  A    between atoms: C2_3  and  C3_4 
REMARK    3  A    between atoms: C3_4  and  N2_5 
REMARK    4  A    between atoms: C4_7  and  C5_8 
REMARK    5  A    between atoms: C5_8  and  O1_9 
REMARK    6  A    between atoms: O1_9  and  C6_10 
REMARK    7  A    between atoms: N3_13  and  C9_14 
REMARK    8  A    between atoms: C12_18  and  O3_19 
ROOT
HETATM    1  C6  UNL     1      25.711   3.689  49.991  1.00  0.00     0.103 A 
HETATM    2  C7  UNL     1      26.896   3.835  49.433  1.00  0.00     0.067 A 
HETATM    3  C8  UNL     1      27.345   5.130  48.884  1.00  0.00     0.043 A 
HETATM    4  N3  UNL     1      28.545   4.973  48.436  1.00  0.00    -0.226 NA
HETATM    5  C10 UNL     1      26.508   6.353  48.895  1.00  0.00     0.089 A 
HETATM    6  C11 UNL     1      25.221   6.021  49.554  1.00  0.00     0.019 A 
HETATM    7  C12 UNL     1      24.797   4.858  50.065  1.00  0.00     0.098 A 
ENDROOT
BRANCH   1   8
HETATM    8  O1  UNL     1      25.027   2.627  50.580  1.00  0.00    -0.347 OA
BRANCH   8   9
HETATM    9  C5  UNL     1      25.277   2.229  51.928  1.00  0.00     0.196 C 
BRANCH   9  10
HETATM   10  C4  UNL     1      26.732   2.028  52.045  1.00  0.00     0.163 C 
HETATM   11  N2  UNL     1      27.377   1.628  53.179  1.00  0.00    -0.322 N 
HETATM   12 CL1  UNL     1      28.762   2.614  53.588  1.00  0.00     0.008 Cl
BRANCH  11  13
HETATM   13  C3  UNL     1      27.361   0.422  53.834  1.00  0.00     0.166 C 
BRANCH  13  14
HETATM   14  C2  UNL     1      27.284  -0.760  52.911  1.00  0.00     0.289 C 
BRANCH  14  15
HETATM   15  N1  UNL     1      28.309  -1.712  53.348  1.00  0.00     0.080 N 
HETATM   16  C1  UNL     1      29.569  -1.087  53.624  1.00  0.00     0.306 C 
HETATM   17  H4  UNL     1      28.020  -2.270  54.158  1.00  0.00     0.315 HD
ENDBRANCH  14  15
ENDBRANCH  13  14
ENDBRANCH  11  13
ENDBRANCH   9  10
ENDBRANCH   8   9
ENDBRANCH   1   8
BRANCH   7  18
HETATM   18  O3  UNL     1      23.520   4.925  50.607  1.00  0.00    -0.353 OA
HETATM   19  C13 UNL     1      22.630   5.989  50.327  1.00  0.00     0.210 C 
ENDBRANCH   7  18
BRANCH   4  20
HETATM   20  C9  UNL     1      29.226   6.075  47.848  1.00  0.00     0.376 C 
HETATM   21  O2  UNL     1      30.027   5.417  48.595  1.00  0.00    -0.281 OA
ENDBRANCH   4  20
TORSDOF 8
ENDMDL
MODEL 9
REMARK VINA RESULT:      -5.5      3.245      6.237
REMARK  8 active torsions:
REMARK  status: ('A' for Active; 'I' for Inactive)
REMARK    1  A    between atoms: N1_2  and  C2_3 
REMARK    2  A    between atoms: C2_3  and  C3_4 
REMARK    3  A    between atoms: C3_4  and  N2_5 
REMARK    4  A    between atoms: C4_7  and  C5_8 
REMARK    5  A    between atoms: C5_8  and  O1_9 
REMARK    6  A    between atoms: O1_9  and  C6_10 
REMARK    7  A    between atoms: N3_13  and  C9_14 
REMARK    8  A    between atoms: C12_18  and  O3_19 
ROOT
HETATM    1  C6  UNL     1      24.321   1.184  52.838  1.00  0.00     0.103 A 
HETATM    2  C7  UNL     1      25.295   0.699  53.582  1.00  0.00     0.067 A 
HETATM    3  C8  UNL     1      26.716   0.901  53.235  1.00  0.00     0.043 A 
HETATM    4  N3  UNL     1      27.429   0.343  54.154  1.00  0.00    -0.226 NA
HETATM    5  C10 UNL     1      27.163   1.640  52.030  1.00  0.00     0.089 A 
HETATM    6  C11 UNL     1      25.955   2.118  51.313  1.00  0.00     0.019 A 
HETATM    7  C12 UNL     1      24.660   1.952  51.612  1.00  0.00     0.098 A 
ENDROOT
BRANCH   1   8
HETATM    8  O1  UNL     1      22.930   1.160  52.905  1.00  0.00    -0.347 OA
BRANCH   8   9
HETATM    9  C5  UNL     1      22.186  -0.029  52.637  1.00  0.00     0.196 C 
BRANCH   9  10
HETATM   10  C4  UNL     1      21.189   0.319  51.610  1.00  0.00     0.163 C 
HETATM   11  N2  UNL     1      20.006   0.955  51.851  1.00  0.00    -0.322 N 
HETATM   12 CL1  UNL     1      18.624   0.177  51.114  1.00  0.00     0.008 Cl
BRANCH  11  13
HETATM   13  C3  UNL     1      19.753   2.245  52.246  1.00  0.00     0.166 C 
BRANCH  13  14
HETATM   14  C2  UNL     1      20.443   3.276  51.401  1.00  0.00     0.289 C 
BRANCH  14  15
HETATM   15  N1  UNL     1      21.499   3.869  52.225  1.00  0.00     0.080 N 
HETATM   16  C1  UNL     1      21.864   5.188  51.798  1.00  0.00     0.306 C 
HETATM   17  H4  UNL     1      21.267   3.886  53.224  1.00  0.00     0.315 HD
ENDBRANCH  14  15
ENDBRANCH  13  14
ENDBRANCH  11  13
ENDBRANCH   9  10
ENDBRANCH   8   9
ENDBRANCH   1   8
BRANCH   7  18
HETATM   18  O3  UNL     1      23.801   2.547  50.698  1.00  0.00    -0.353 OA
HETATM   19  C13 UNL     1      24.268   3.272  49.576  1.00  0.00     0.210 C 
ENDBRANCH   7  18
BRANCH   4  20
HETATM   20  C9  UNL     1      28.848   0.390  54.068  1.00  0.00     0.376 C 
HETATM   21  O2  UNL     1      28.469   0.775  55.225  1.00  0.00    -0.281 OA
ENDBRANCH   4  20
TORSDOF 8
ENDMDL
