MODEL 1
REMARK VINA RESULT:      -7.4      0.000      0.000
REMARK  6 active torsions:
REMARK  status: ('A' for Active; 'I' for Inactive)
REMARK    1  A    between atoms: O1_2  and  C2_3 
REMARK    2  A    between atoms: C4_5  and  N1_6 
REMARK       I    between atoms: N1_6  and  C5_7 
REMARK    3  A    between atoms: C5_7  and  C6_9 
REMARK    4  A    between atoms: C7_10  and  C8_11 
REMARK    5  A    between atoms: C8_11  and  N2_12 
REMARK    6  A    between atoms: N2_12  and  C9_13 
ROOT
HETATM    1  N1  UNL     1      24.519   2.184  50.942  1.00  0.00    -0.324 N 
HETATM    2  C5  UNL     1      24.243   2.045  52.322  1.00  0.00     0.245 C 
HETATM    3  O2  UNL     1      24.599   2.947  53.118  1.00  0.00    -0.268 OA
HETATM    4  H5  UNL     1      24.186   1.390  50.364  1.00  0.00     0.169 HD
ENDROOT
BRANCH   2   5
HETATM    5  C6  UNL     1      23.556   0.885  52.867  1.00  0.00     0.072 C 
HETATM    6  C7  UNL     1      24.113  -0.059  53.602  1.00  0.00     0.008 C 
BRANCH   6   7
HETATM    7  C8  UNL     1      25.447  -0.367  54.140  1.00  0.00     0.297 C 
BRANCH   7   8
HETATM    8  N2  UNL     1      26.459  -0.632  53.163  1.00  0.00     0.093 N 
HETATM    9  H10 UNL     1      26.647  -1.659  53.188  1.00  0.00     0.316 HD
BRANCH   8  10
HETATM   10  C9  UNL     1      27.718   0.041  53.390  1.00  0.00     0.247 C 
HETATM   11  C10 UNL     1      27.668   1.378  52.712  1.00  0.00     0.054 C 
HETATM   12  C11 UNL     1      28.491   2.419  53.425  1.00  0.00     0.119 C 
HETATM   13  N3  UNL     1      29.516   1.696  54.157  1.00  0.00    -0.206 NA
HETATM   14  O3  UNL     1      28.904   1.115  55.205  1.00  0.00    -0.304 OA
HETATM   15  H16 UNL     1      29.875   0.980  53.469  1.00  0.00     0.153 HD
HETATM   16  C12 UNL     1      28.033   0.110  54.850  1.00  0.00     0.229 C 
ENDBRANCH   8  10
ENDBRANCH   7   8
ENDBRANCH   6   7
ENDBRANCH   2   5
BRANCH   1  17
HETATM   17  C4  UNL     1      25.187   3.286  50.350  1.00  0.00     0.036 A 
HETATM   18  C3  UNL     1      26.491   3.204  49.705  1.00  0.00     0.065 A 
HETATM   19  C2  UNL     1      26.843   4.396  49.256  1.00  0.00     0.085 A 
HETATM   20  C14 UNL     1      25.784   5.408  49.563  1.00  0.00     0.251 A 
HETATM   21  C13 UNL     1      24.792   4.543  50.264  1.00  0.00     0.046 A 
HETATM   22  F1  UNL     1      25.174   5.833  48.381  1.00  0.00    -0.238 F 
BRANCH  19  23
HETATM   23  O1  UNL     1      28.045   4.610  48.595  1.00  0.00    -0.357 OA
HETATM   24  C1  UNL     1      28.458   5.922  48.271  1.00  0.00     0.209 C 
ENDBRANCH  19  23
ENDBRANCH   1  17
TORSDOF 6
ENDMDL
MODEL 2
REMARK VINA RESULT:      -7.0      3.082      5.713
REMARK  6 active torsions:
REMARK  status: ('A' for Active; 'I' for Inactive)
REMARK    1  A    between atoms: O1_2  and  C2_3 
REMARK    2  A    between atoms: C4_5  and  N1_6 
REMARK       I    between atoms: N1_6  and  C5_7 
REMARK    3  A    between atoms: C5_7  and  C6_9 
REMARK    4  A    between atoms: C7_10  and  C8_11 
REMARK    5  A    between atoms: C8_11  and  N2_12 
REMARK    6  A    between atoms: N2_12  and  C9_13 
ROOT
HETATM    1  N1  UNL     1      23.190   1.393  51.559  1.00  0.00    -0.324 N 
HETATM    2  C5  UNL     1      23.603   2.744  51.624  1.00  0.00     0.245 C 
HETATM    3  O2  UNL     1      23.394   3.405  52.670  1.00  0.00    -0.268 OA
HETATM    4  H5  UNL     1      23.406   0.931  50.656  1.00  0.00     0.169 HD
ENDROOT
BRANCH   2   5
HETATM    5  C6  UNL     1      24.267   3.412  50.516  1.00  0.00     0.072 C 
HETATM    6  C7  UNL     1      25.540   3.278  50.195  1.00  0.00     0.008 C 
BRANCH   6   7
HETATM    7  C8  UNL     1      26.709   2.536  50.689  1.00  0.00     0.297 C 
BRANCH   7   8
HETATM    8  N2  UNL     1      27.049   2.764  52.060  1.00  0.00     0.093 N 
HETATM    9  H10 UNL     1      27.997   3.201  52.073  1.00  0.00     0.316 HD
BRANCH   8  10
HETATM   10  C9  UNL     1      27.114   1.574  52.879  1.00  0.00     0.247 C 
HETATM   11  C10 UNL     1      28.552   1.308  53.214  1.00  0.00     0.054 C 
HETATM   12  C11 UNL     1      28.720   0.645  54.557  1.00  0.00     0.119 C 
HETATM   13  N3  UNL     1      27.475  -0.053  54.824  1.00  0.00    -0.206 NA
HETATM   14  O3  UNL     1      26.563   0.887  55.133  1.00  0.00    -0.304 OA
HETATM   15  H16 UNL     1      27.244  -0.536  53.913  1.00  0.00     0.153 HD
HETATM   16  C12 UNL     1      26.224   1.698  54.074  1.00  0.00     0.229 C 
ENDBRANCH   8  10
ENDBRANCH   7   8
ENDBRANCH   6   7
ENDBRANCH   2   5
BRANCH   1  17
HETATM   17  C4  UNL     1      22.536   0.688  52.600  1.00  0.00     0.036 A 
HETATM   18  C3  UNL     1      23.214  -0.180  53.554  1.00  0.00     0.065 A 
HETATM   19  C2  UNL     1      22.333  -0.691  54.397  1.00  0.00     0.085 A 
HETATM   20  C14 UNL     1      20.955  -0.202  54.079  1.00  0.00     0.251 A 
HETATM   21  C13 UNL     1      21.252   0.670  52.907  1.00  0.00     0.046 A 
HETATM   22  F1  UNL     1      20.503   0.640  55.096  1.00  0.00    -0.238 F 
BRANCH  19  23
HETATM   23  O1  UNL     1      22.704  -1.558  55.416  1.00  0.00    -0.357 OA
HETATM   24  C1  UNL     1      24.014  -1.520  55.944  1.00  0.00     0.209 C 
ENDBRANCH  19  23
ENDBRANCH   1  17
TORSDOF 6
ENDMDL
MODEL 3
REMARK VINA RESULT:      -6.8      3.401      6.058
REMARK  6 active torsions:
REMARK  status: ('A' for Active; 'I' for Inactive)
REMARK    1  A    between atoms: O1_2  and  C2_3 
REMARK    2  A    between atoms: C4_5  and  N1_6 
REMARK       I    between atoms: N1_6  and  C5_7 
REMARK    3  A    between atoms: C5_7  and  C6_9 
REMARK    4  A    between atoms: C7_10  and  C8_11 
REMARK    5  A    between atoms: C8_11  and  N2_12 
REMARK    6  A    between atoms: N2_12  and  C9_13 
ROOT
HETATM    1  N1  UNL     1      23.095   1.386  51.429  1.00  0.00    -0.324 N 
HETATM    2  C5  UNL     1      23.478   2.733  51.623  1.00  0.00     0.245 C 
HETATM    3  O2  UNL     1      23.113   3.337  52.661  1.00  0.00    -0.268 OA
HETATM    4  H5  UNL     1      23.445   0.973  50.544  1.00  0.00     0.169 HD
ENDROOT
BRANCH   2   5
HETATM    5  C6  UNL     1      24.287   3.462  50.659  1.00  0.00     0.072 C 
HETATM    6  C7  UNL     1      25.574   3.271  50.440  1.00  0.00     0.008 C 
BRANCH   6   7
HETATM    7  C8  UNL     1      26.641   2.399  50.953  1.00  0.00     0.297 C 
BRANCH   7   8
HETATM    8  N2  UNL     1      26.838   2.435  52.370  1.00  0.00     0.093 N 
HETATM    9  H10 UNL     1      27.853   2.616  52.534  1.00  0.00     0.316 HD
BRANCH   8  10
HETATM   10  C9  UNL     1      26.502   1.212  53.065  1.00  0.00     0.247 C 
HETATM   11  C10 UNL     1      26.424   0.103  52.058  1.00  0.00     0.054 C 
HETATM   12  C11 UNL     1      26.820  -1.231  52.636  1.00  0.00     0.119 C 
HETATM   13  N3  UNL     1      26.573  -1.144  54.065  1.00  0.00    -0.206 NA
HETATM   14  O3  UNL     1      27.542  -0.364  54.577  1.00  0.00    -0.304 OA
HETATM   15  H16 UNL     1      25.624  -0.688  54.140  1.00  0.00     0.153 HD
HETATM   16  C12 UNL     1      27.458   0.953  54.184  1.00  0.00     0.229 C 
ENDBRANCH   8  10
ENDBRANCH   7   8
ENDBRANCH   6   7
ENDBRANCH   2   5
BRANCH   1  17
HETATM   17  C4  UNL     1      22.307   0.623  52.328  1.00  0.00     0.036 A 
HETATM   18  C3  UNL     1      20.864   0.458  52.215  1.00  0.00     0.065 A 
HETATM   19  C2  UNL     1      20.423  -0.304  53.200  1.00  0.00     0.085 A 
HETATM   20  C14 UNL     1      21.554  -0.731  54.082  1.00  0.00     0.251 A 
HETATM   21  C13 UNL     1      22.691  -0.057  53.392  1.00  0.00     0.046 A 
HETATM   22  F1  UNL     1      21.769  -2.104  53.951  1.00  0.00    -0.238 F 
BRANCH  19  23
HETATM   23  O1  UNL     1      19.080  -0.628  53.339  1.00  0.00    -0.357 OA
HETATM   24  C1  UNL     1      18.195  -0.487  52.247  1.00  0.00     0.209 C 
ENDBRANCH  19  23
ENDBRANCH   1  17
TORSDOF 6
ENDMDL
MODEL 4
REMARK VINA RESULT:      -6.6      1.687      2.318
REMARK  6 active torsions:
REMARK  status: ('A' for Active; 'I' for Inactive)
REMARK    1  A    between atoms: O1_2  and  C2_3 
REMARK    2  A    between atoms: C4_5  and  N1_6 
REMARK       I    between atoms: N1_6  and  C5_7 
REMARK    3  A    between atoms: C5_7  and  C6_9 
REMARK    4  A    between atoms: C7_10  and  C8_11 
REMARK    5  A    between atoms: C8_11  and  N2_12 
REMARK    6  A    between atoms: N2_12  and  C9_13 
ROOT
HETATM    1  N1  UNL     1      23.703   1.851  51.089  1.00  0.00    -0.324 N 
HETATM    2  C5  UNL     1      23.765   1.518  52.462  1.00  0.00     0.245 C 
HETATM    3  O2  UNL     1      24.112   2.390  53.295  1.00  0.00    -0.268 OA
HETATM    4  H5  UNL     1      23.406   1.067  50.479  1.00  0.00     0.169 HD
ENDROOT
BRANCH   2   5
HETATM    5  C6  UNL     1      23.440   0.190  52.959  1.00  0.00     0.072 C 
HETATM    6  C7  UNL     1      24.206  -0.540  53.747  1.00  0.00     0.008 C 
BRANCH   6   7
HETATM    7  C8  UNL     1      25.519  -0.416  54.399  1.00  0.00     0.297 C 
BRANCH   7   8
HETATM    8  N2  UNL     1      26.620  -0.975  53.677  1.00  0.00     0.093 N 
HETATM    9  H10 UNL     1      26.909  -1.842  54.181  1.00  0.00     0.316 HD
BRANCH   8  10
HETATM   10  C9  UNL     1      27.786  -0.124  53.586  1.00  0.00     0.247 C 
HETATM   11  C10 UNL     1      27.411   1.109  52.818  1.00  0.00     0.054 C 
HETATM   12  C11 UNL     1      28.189   2.323  53.257  1.00  0.00     0.119 C 
HETATM   13  N3  UNL     1      29.429   1.826  53.828  1.00  0.00    -0.206 NA
HETATM   14  O3  UNL     1      29.118   1.295  55.024  1.00  0.00    -0.304 OA
HETATM   15  H16 UNL     1      29.755   1.087  53.146  1.00  0.00     0.153 HD
HETATM   16  C12 UNL     1      28.354   0.152  54.941  1.00  0.00     0.229 C 
ENDBRANCH   8  10
ENDBRANCH   7   8
ENDBRANCH   6   7
ENDBRANCH   2   5
BRANCH   1  17
HETATM   17  C4  UNL     1      24.010   3.123  50.543  1.00  0.00     0.036 A 
HETATM   18  C3  UNL     1      23.303   4.352  50.879  1.00  0.00     0.065 A 
HETATM   19  C2  UNL     1      23.822   5.364  50.206  1.00  0.00     0.085 A 
HETATM   20  C14 UNL     1      24.949   4.898  49.340  1.00  0.00     0.251 A 
HETATM   21  C13 UNL     1      24.945   3.443  49.668  1.00  0.00     0.046 A 
HETATM   22  F1  UNL     1      26.158   5.408  49.815  1.00  0.00    -0.238 F 
BRANCH  19  23
HETATM   23  O1  UNL     1      23.339   6.660  50.333  1.00  0.00    -0.357 OA
HETATM   24  C1  UNL     1      21.989   6.888  50.682  1.00  0.00     0.209 C 
ENDBRANCH  19  23
ENDBRANCH   1  17
TORSDOF 6
ENDMDL
MODEL 5
REMARK VINA RESULT:      -6.5      3.482      5.908
REMARK  6 active torsions:
REMARK  status: ('A' for Active; 'I' for Inactive)
REMARK    1  A    between atoms: O1_2  and  C2_3 
REMARK    2  A    between atoms: C4_5  and  N1_6 
REMARK       I    between atoms: N1_6  and  C5_7 
REMARK    3  A    between atoms: C5_7  and  C6_9 
REMARK    4  A    between atoms: C7_10  and  C8_11 
REMARK    5  A    between atoms: C8_11  and  N2_12 
REMARK    6  A    between atoms: N2_12  and  C9_13 
ROOT
HETATM    1  N1  UNL     1      25.631   2.119  51.643  1.00  0.00    -0.324 N 
HETATM    2  C5  UNL     1      24.539   2.794  52.237  1.00  0.00     0.245 C 
HETATM    3  O2  UNL     1      24.403   2.772  53.484  1.00  0.00    -0.268 OA
HETATM    4  H5  UNL     1      25.660   2.195  50.609  1.00  0.00     0.169 HD
ENDROOT
BRANCH   2   5
HETATM    5  C6  UNL     1      23.553   3.522  51.455  1.00  0.00     0.072 C 
HETATM    6  C7  UNL     1      22.266   3.236  51.388  1.00  0.00     0.008 C 
BRANCH   6   7
HETATM    7  C8  UNL     1      21.349   2.234  51.953  1.00  0.00     0.297 C 
BRANCH   7   8
HETATM    8  N2  UNL     1      21.623   0.876  51.595  1.00  0.00     0.093 N 
HETATM    9  H10 UNL     1      20.896   0.588  50.904  1.00  0.00     0.316 HD
BRANCH   8  10
HETATM   10  C9  UNL     1      21.572  -0.066  52.690  1.00  0.00     0.247 C 
HETATM   11  C10 UNL     1      22.973  -0.499  53.007  1.00  0.00     0.054 C 
HETATM   12  C11 UNL     1      23.160  -0.830  54.465  1.00  0.00     0.119 C 
HETATM   13  N3  UNL     1      21.850  -1.203  54.968  1.00  0.00    -0.206 NA
HETATM   14  O3  UNL     1      21.138  -0.066  55.070  1.00  0.00    -0.304 OA
HETATM   15  H16 UNL     1      21.456  -1.844  54.227  1.00  0.00     0.153 HD
HETATM   16  C12 UNL     1      20.834   0.508  53.856  1.00  0.00     0.229 C 
ENDBRANCH   8  10
ENDBRANCH   7   8
ENDBRANCH   6   7
ENDBRANCH   2   5
BRANCH   1  17
HETATM   17  C4  UNL     1      26.622   1.390  52.349  1.00  0.00     0.036 A 
HETATM   18  C3  UNL     1      26.684  -0.065  52.406  1.00  0.00     0.065 A 
HETATM   19  C2  UNL     1      27.717  -0.439  53.140  1.00  0.00     0.085 A 
HETATM   20  C14 UNL     1      28.459   0.756  53.652  1.00  0.00     0.251 A 
HETATM   21  C13 UNL     1      27.635   1.848  53.060  1.00  0.00     0.046 A 
HETATM   22  F1  UNL     1      29.714   0.833  53.047  1.00  0.00    -0.238 F 
BRANCH  19  23
HETATM   23  O1  UNL     1      28.018  -1.775  53.364  1.00  0.00    -0.357 OA
HETATM   24  C1  UNL     1      29.357  -2.223  53.326  1.00  0.00     0.209 C 
ENDBRANCH  19  23
ENDBRANCH   1  17
TORSDOF 6
ENDMDL
MODEL 6
REMARK VINA RESULT:      -6.5      3.871      6.069
REMARK  6 active torsions:
REMARK  status: ('A' for Active; 'I' for Inactive)
REMARK    1  A    between atoms: O1_2  and  C2_3 
REMARK    2  A    between atoms: C4_5  and  N1_6 
REMARK       I    between atoms: N1_6  and  C5_7 
REMARK    3  A    between atoms: C5_7  and  C6_9 
REMARK    4  A    between atoms: C7_10  and  C8_11 
REMARK    5  A    between atoms: C8_11  and  N2_12 
REMARK    6  A    between atoms: N2_12  and  C9_13 
ROOT
HETATM    1  N1  UNL     1      23.603  -0.531  53.389  1.00  0.00    -0.324 N 
HETATM    2  C5  UNL     1      22.950  -1.139  54.486  1.00  0.00     0.245 C 
HETATM    3  O2  UNL     1      23.590  -1.357  55.543  1.00  0.00    -0.268 OA
HETATM    4  H5  UNL     1      22.993  -0.391  52.562  1.00  0.00     0.169 HD
ENDROOT
BRANCH   2   5
HETATM    5  C6  UNL     1      21.550  -1.531  54.443  1.00  0.00     0.072 C 
HETATM    6  C7  UNL     1      20.565  -0.797  53.960  1.00  0.00     0.008 C 
BRANCH   6   7
HETATM    7  C8  UNL     1      20.404   0.528  53.342  1.00  0.00     0.297 C 
BRANCH   7   8
HETATM    8  N2  UNL     1      20.330   0.536  51.913  1.00  0.00     0.093 N 
HETATM    9  H10 UNL     1      20.787  -0.340  51.577  1.00  0.00     0.316 HD
BRANCH   8  10
HETATM   10  C9  UNL     1      21.004   1.644  51.273  1.00  0.00     0.247 C 
HETATM   11  C10 UNL     1      21.701   2.448  52.331  1.00  0.00     0.054 C 
HETATM   12  C11 UNL     1      22.959   3.104  51.822  1.00  0.00     0.119 C 
HETATM   13  N3  UNL     1      22.787   3.255  50.388  1.00  0.00    -0.206 NA
HETATM   14  O3  UNL     1      22.924   2.028  49.852  1.00  0.00    -0.304 OA
HETATM   15  H16 UNL     1      21.802   3.621  50.278  1.00  0.00     0.153 HD
HETATM   16  C12 UNL     1      21.903   1.164  50.180  1.00  0.00     0.229 C 
ENDBRANCH   8  10
ENDBRANCH   7   8
ENDBRANCH   6   7
ENDBRANCH   2   5
BRANCH   1  17
HETATM   17  C4  UNL     1      24.963  -0.130  53.367  1.00  0.00     0.036 A 
HETATM   18  C3  UNL     1      25.441   1.170  53.817  1.00  0.00     0.065 A 
HETATM   19  C2  UNL     1      26.753   1.239  53.669  1.00  0.00     0.085 A 
HETATM   20  C14 UNL     1      27.286  -0.037  53.096  1.00  0.00     0.251 A 
HETATM   21  C13 UNL     1      26.018  -0.810  52.960  1.00  0.00     0.046 A 
HETATM   22  F1  UNL     1      28.056  -0.703  54.050  1.00  0.00    -0.238 F 
BRANCH  19  23
HETATM   23  O1  UNL     1      27.477   2.370  54.020  1.00  0.00    -0.357 OA
HETATM   24  C1  UNL     1      28.855   2.459  53.720  1.00  0.00     0.209 C 
ENDBRANCH  19  23
ENDBRANCH   1  17
TORSDOF 6
ENDMDL
MODEL 7
REMARK VINA RESULT:      -6.4      2.952      5.558
REMARK  6 active torsions:
REMARK  status: ('A' for Active; 'I' for Inactive)
REMARK    1  A    between atoms: O1_2  and  C2_3 
REMARK    2  A    between atoms: C4_5  and  N1_6 
REMARK       I    between atoms: N1_6  and  C5_7 
REMARK    3  A    between atoms: C5_7  and  C6_9 
REMARK    4  A    between atoms: C7_10  and  C8_11 
REMARK    5  A    between atoms: C8_11  and  N2_12 
REMARK    6  A    between atoms: N2_12  and  C9_13 
ROOT
HETATM    1  N1  UNL     1      24.859   0.272  52.794  1.00  0.00    -0.324 N 
HETATM    2  C5  UNL     1      23.995  -0.512  53.593  1.00  0.00     0.245 C 
HETATM    3  O2  UNL     1      24.357  -0.852  54.746  1.00  0.00    -0.268 OA
HETATM    4  H5  UNL     1      24.474   0.503  51.860  1.00  0.00     0.169 HD
ENDROOT
BRANCH   2   5
HETATM    5  C6  UNL     1      22.687  -0.948  53.132  1.00  0.00     0.072 C 
HETATM    6  C7  UNL     1      21.646  -0.163  52.928  1.00  0.00     0.008 C 
BRANCH   6   7
HETATM    7  C8  UNL     1      21.333   1.270  53.040  1.00  0.00     0.297 C 
BRANCH   7   8
HETATM    8  N2  UNL     1      21.595   2.051  51.871  1.00  0.00     0.093 N 
HETATM    9  H10 UNL     1      21.773   1.383  51.088  1.00  0.00     0.316 HD
BRANCH   8  10
HETATM   10  C9  UNL     1      22.748   2.920  51.963  1.00  0.00     0.247 C 
HETATM   11  C10 UNL     1      23.557   2.766  50.710  1.00  0.00     0.054 C 
HETATM   12  C11 UNL     1      24.282   4.032  50.330  1.00  0.00     0.119 C 
HETATM   13  N3  UNL     1      24.459   4.783  51.561  1.00  0.00    -0.206 NA
HETATM   14  O3  UNL     1      23.253   5.285  51.883  1.00  0.00    -0.304 OA
HETATM   15  H16 UNL     1      24.782   4.064  52.264  1.00  0.00     0.153 HD
HETATM   16  C12 UNL     1      22.335   4.327  52.253  1.00  0.00     0.229 C 
ENDBRANCH   8  10
ENDBRANCH   7   8
ENDBRANCH   6   7
ENDBRANCH   2   5
BRANCH   1  17
HETATM   17  C4  UNL     1      26.145   0.725  53.185  1.00  0.00     0.036 A 
HETATM   18  C3  UNL     1      27.336  -0.115  53.216  1.00  0.00     0.065 A 
HETATM   19  C2  UNL     1      28.373   0.596  53.623  1.00  0.00     0.085 A 
HETATM   20  C14 UNL     1      27.965   2.008  53.907  1.00  0.00     0.251 A 
HETATM   21  C13 UNL     1      26.513   1.930  53.578  1.00  0.00     0.046 A 
HETATM   22  F1  UNL     1      28.538   2.867  52.968  1.00  0.00    -0.238 F 
BRANCH  19  23
HETATM   23  O1  UNL     1      29.641   0.046  53.746  1.00  0.00    -0.357 OA
HETATM   24  C1  UNL     1      29.841  -1.340  53.557  1.00  0.00     0.209 C 
ENDBRANCH  19  23
ENDBRANCH   1  17
TORSDOF 6
ENDMDL
MODEL 8
REMARK VINA RESULT:      -6.2      2.050      2.648
REMARK  6 active torsions:
REMARK  status: ('A' for Active; 'I' for Inactive)
REMARK    1  A    between atoms: O1_2  and  C2_3 
REMARK    2  A    between atoms: C4_5  and  N1_6 
REMARK       I    between atoms: N1_6  and  C5_7 
REMARK    3  A    between atoms: C5_7  and  C6_9 
REMARK    4  A    between atoms: C7_10  and  C8_11 
REMARK    5  A    between atoms: C8_11  and  N2_12 
REMARK    6  A    between atoms: N2_12  and  C9_13 
ROOT
HETATM    1  N1  UNL     1      24.986   4.420  50.923  1.00  0.00    -0.324 N 
HETATM    2  C5  UNL     1      23.775   3.747  50.642  1.00  0.00     0.245 C 
HETATM    3  O2  UNL     1      23.448   3.532  49.450  1.00  0.00    -0.268 OA
HETATM    4  H5  UNL     1      25.169   4.550  51.935  1.00  0.00     0.169 HD
ENDROOT
BRANCH   2   5
HETATM    5  C6  UNL     1      22.876   3.287  51.689  1.00  0.00     0.072 C 
HETATM    6  C7  UNL     1      23.206   2.481  52.681  1.00  0.00     0.008 C 
BRANCH   6   7
HETATM    7  C8  UNL     1      24.409   1.775  53.147  1.00  0.00     0.297 C 
BRANCH   7   8
HETATM    8  N2  UNL     1      24.640   0.494  52.553  1.00  0.00     0.093 N 
HETATM    9  H10 UNL     1      23.808  -0.099  52.767  1.00  0.00     0.316 HD
BRANCH   8  10
HETATM   10  C9  UNL     1      25.804  -0.207  53.046  1.00  0.00     0.247 C 
HETATM   11  C10 UNL     1      27.022   0.386  52.402  1.00  0.00     0.054 C 
HETATM   12  C11 UNL     1      28.237   0.321  53.290  1.00  0.00     0.119 C 
HETATM   13  N3  UNL     1      28.015  -0.790  54.200  1.00  0.00    -0.206 NA
HETATM   14  O3  UNL     1      27.091  -0.383  55.088  1.00  0.00    -0.304 OA
HETATM   15  H16 UNL     1      27.649  -1.566  53.583  1.00  0.00     0.153 HD
HETATM   16  C12 UNL     1      25.841  -0.198  54.541  1.00  0.00     0.229 C 
ENDBRANCH   8  10
ENDBRANCH   7   8
ENDBRANCH   6   7
ENDBRANCH   2   5
BRANCH   1  17
HETATM   17  C4  UNL     1      25.901   4.896  49.949  1.00  0.00     0.036 A 
HETATM   18  C3  UNL     1      25.864   6.234  49.375  1.00  0.00     0.065 A 
HETATM   19  C2  UNL     1      26.844   6.371  48.499  1.00  0.00     0.085 A 
HETATM   20  C14 UNL     1      27.645   5.111  48.403  1.00  0.00     0.251 A 
HETATM   21  C13 UNL     1      26.916   4.264  49.391  1.00  0.00     0.046 A 
HETATM   22  F1  UNL     1      28.923   5.318  48.925  1.00  0.00    -0.238 F 
BRANCH  19  23
HETATM   23  O1  UNL     1      27.047   7.551  47.797  1.00  0.00    -0.357 OA
HETATM   24  C1  UNL     1      26.026   8.078  46.974  1.00  0.00     0.209 C 
ENDBRANCH  19  23
ENDBRANCH   1  17
TORSDOF 6
ENDMDL
MODEL 9
REMARK VINA RESULT:      -6.1      4.339      6.733
REMARK  6 active torsions:
REMARK  status: ('A' for Active; 'I' for Inactive)
REMARK    1  A    between atoms: O1_2  and  C2_3 
REMARK    2  A    between atoms: C4_5  and  N1_6 
REMARK       I    between atoms: N1_6  and  C5_7 
REMARK    3  A    between atoms: C5_7  and  C6_9 
REMARK    4  A    between atoms: C7_10  and  C8_11 
REMARK    5  A    between atoms: C8_11  and  N2_12 
REMARK    6  A    between atoms: N2_12  and  C9_13 
ROOT
HETATM    1  N1  UNL     1      21.058   1.957  52.717  1.00  0.00    -0.324 N 
HETATM    2  C5  UNL     1      22.317   1.944  52.075  1.00  0.00     0.245 C 
HETATM    3  O2  UNL     1      22.625   0.979  51.334  1.00  0.00    -0.268 OA
HETATM    4  H5  UNL     1      20.894   2.795  53.306  1.00  0.00     0.169 HD
ENDROOT
BRANCH   2   5
HETATM    5  C6  UNL     1      23.287   3.016  52.237  1.00  0.00     0.072 C 
HETATM    6  C7  UNL     1      24.503   2.879  52.731  1.00  0.00     0.008 C 
BRANCH   6   7
HETATM    7  C8  UNL     1      25.339   1.794  53.266  1.00  0.00     0.297 C 
BRANCH   7   8
HETATM    8  N2  UNL     1      25.687   0.767  52.331  1.00  0.00     0.093 N 
HETATM    9  H10 UNL     1      24.949   0.031  52.395  1.00  0.00     0.316 HD
BRANCH   8  10
HETATM   10  C9  UNL     1      26.958   0.123  52.578  1.00  0.00     0.247 C 
HETATM   11  C10 UNL     1      27.606   0.791  53.754  1.00  0.00     0.054 C 
HETATM   12  C11 UNL     1      28.468  -0.153  54.552  1.00  0.00     0.119 C 
HETATM   13  N3  UNL     1      28.875  -1.204  53.637  1.00  0.00    -0.206 NA
HETATM   14  O3  UNL     1      27.795  -1.979  53.433  1.00  0.00    -0.304 OA
HETATM   15  H16 UNL     1      29.159  -0.691  52.757  1.00  0.00     0.153 HD
HETATM   16  C12 UNL     1      26.788  -1.354  52.733  1.00  0.00     0.229 C 
ENDBRANCH   8  10
ENDBRANCH   7   8
ENDBRANCH   6   7
ENDBRANCH   2   5
BRANCH   1  17
HETATM   17  C4  UNL     1      20.073   0.943  52.602  1.00  0.00     0.036 A 
HETATM   18  C3  UNL     1      19.961  -0.197  53.502  1.00  0.00     0.065 A 
HETATM   19  C2  UNL     1      18.948  -0.961  53.132  1.00  0.00     0.085 A 
HETATM   20  C14 UNL     1      18.271  -0.389  51.925  1.00  0.00     0.251 A 
HETATM   21  C13 UNL     1      19.107   0.826  51.709  1.00  0.00     0.046 A 
HETATM   22  F1  UNL     1      16.995   0.062  52.264  1.00  0.00    -0.238 F 
BRANCH  19  23
HETATM   23  O1  UNL     1      18.610  -2.121  53.815  1.00  0.00    -0.357 OA
HETATM   24  C1  UNL     1      17.451  -2.847  53.461  1.00  0.00     0.209 C 
ENDBRANCH  19  23
ENDBRANCH   1  17
TORSDOF 6
ENDMDL
