MODEL 1
REMARK VINA RESULT:      -9.9      0.000      0.000
REMARK  1 active torsions:
REMARK  status: ('A' for Active; 'I' for Inactive)
REMARK    1  A    between atoms: C5_6  and  C6_7 
ROOT
HETATM    1  C6  UNL     1      25.674   0.552  52.383  1.00  0.00     0.070 C 
HETATM    2  C7  UNL     1      25.326   1.569  51.581  1.00  0.00     0.036 A 
HETATM    3  C8  UNL     1      26.406   2.474  51.182  1.00  0.00     0.195 A 
HETATM    4  N1  UNL     1      25.964   3.563  50.372  1.00  0.00    -0.278 NA
HETATM    5  C9  UNL     1      24.782   3.813  49.966  1.00  0.00     0.229 A 
HETATM    6  N2  UNL     1      23.728   2.897  50.357  1.00  0.00    -0.225 NA
HETATM    7  C10 UNL     1      23.993   1.879  51.090  1.00  0.00     0.135 A 
HETATM    8  N3  UNL     1      22.573   1.539  51.015  1.00  0.00    -0.370 N 
HETATM    9  C11 UNL     1      21.449   1.925  51.911  1.00  0.00     0.160 C 
HETATM   10  C12 UNL     1      21.395   0.822  52.895  1.00  0.00    -0.038 A 
HETATM   11  C13 UNL     1      20.384   0.079  53.450  1.00  0.00     0.009 A 
HETATM   12  C14 UNL     1      20.655  -0.965  54.303  1.00  0.00     0.003 A 
HETATM   13  C15 UNL     1      21.922  -1.355  54.670  1.00  0.00     0.031 A 
HETATM   14  C16 UNL     1      23.018  -0.684  54.176  1.00  0.00     0.048 A 
HETATM   15  C17 UNL     1      22.568   0.314  53.358  1.00  0.00     0.039 A 
HETATM   16  N4  UNL     1      24.428  -0.830  54.285  1.00  0.00    -0.300 N 
HETATM   17  N5  UNL     1      25.102  -0.546  53.068  1.00  0.00    -0.299 N 
HETATM   18  H7  UNL     1      22.214   0.910  50.227  1.00  0.00     0.161 HD
HETATM   19  H14 UNL     1      24.588  -1.116  55.254  1.00  0.00     0.187 HD
HETATM   20  H15 UNL     1      25.050  -1.545  52.778  1.00  0.00     0.187 HD
ENDROOT
BRANCH   1  21
HETATM   21  C5  UNL     1      27.018   0.293  52.876  1.00  0.00    -0.006 A 
HETATM   22  C4  UNL     1      27.630  -0.947  52.769  1.00  0.00     0.014 A 
HETATM   23  C3  UNL     1      28.873  -1.283  53.257  1.00  0.00     0.003 A 
HETATM   24  C2  UNL     1      29.594  -0.302  53.919  1.00  0.00     0.024 A 
HETATM   25  C1  UNL     1      29.099   0.956  54.086  1.00  0.00     0.035 A 
HETATM   26 CL1  UNL     1      29.949   2.253  54.909  1.00  0.00    -0.084 Cl
HETATM   27  C18 UNL     1      27.851   1.191  53.563  1.00  0.00     0.037 A 
ENDBRANCH   1  21
TORSDOF 1
ENDMDL
MODEL 2
REMARK VINA RESULT:      -9.8      1.716      4.687
REMARK  1 active torsions:
REMARK  status: ('A' for Active; 'I' for Inactive)
REMARK    1  A    between atoms: C5_6  and  C6_7 
ROOT
HETATM    1  C6  UNL     1      25.775   1.646  52.744  1.00  0.00     0.070 C 
HETATM    2  C7  UNL     1      24.545   1.139  52.919  1.00  0.00     0.036 A 
HETATM    3  C8  UNL     1      24.472  -0.151  53.607  1.00  0.00     0.195 A 
HETATM    4  N1  UNL     1      23.144  -0.661  53.716  1.00  0.00    -0.278 NA
HETATM    5  C9  UNL     1      22.059  -0.129  53.307  1.00  0.00     0.229 A 
HETATM    6  N2  UNL     1      22.150   1.156  52.643  1.00  0.00    -0.225 NA
HETATM    7  C10 UNL     1      23.289   1.722  52.476  1.00  0.00     0.135 A 
HETATM    8  N3  UNL     1      22.574   2.818  51.825  1.00  0.00    -0.370 N 
HETATM    9  C11 UNL     1      22.235   3.019  50.390  1.00  0.00     0.160 C 
HETATM   10  C12 UNL     1      23.379   3.798  49.869  1.00  0.00    -0.038 A 
HETATM   11  C13 UNL     1      23.502   4.896  49.054  1.00  0.00     0.009 A 
HETATM   12  C14 UNL     1      24.731   5.461  48.804  1.00  0.00     0.003 A 
HETATM   13  C15 UNL     1      25.916   4.999  49.327  1.00  0.00     0.031 A 
HETATM   14  C16 UNL     1      25.919   3.903  50.159  1.00  0.00     0.048 A 
HETATM   15  C17 UNL     1      24.629   3.472  50.294  1.00  0.00     0.039 A 
HETATM   16  N4  UNL     1      26.905   3.199  50.903  1.00  0.00    -0.300 N 
HETATM   17  N5  UNL     1      26.427   2.760  52.165  1.00  0.00    -0.299 N 
HETATM   18  H7  UNL     1      22.221   3.646  52.404  1.00  0.00     0.161 HD
HETATM   19  H14 UNL     1      27.734   3.198  50.304  1.00  0.00     0.187 HD
HETATM   20  H15 UNL     1      26.752   3.638  52.621  1.00  0.00     0.187 HD
ENDROOT
BRANCH   1  21
HETATM   21  C5  UNL     1      27.012   1.015  53.177  1.00  0.00    -0.006 A 
HETATM   22  C4  UNL     1      28.024   1.713  53.821  1.00  0.00     0.014 A 
HETATM   23  C3  UNL     1      29.240   1.200  54.213  1.00  0.00     0.003 A 
HETATM   24  C2  UNL     1      29.495  -0.135  53.947  1.00  0.00     0.024 A 
HETATM   25  C1  UNL     1      28.578  -0.925  53.320  1.00  0.00     0.035 A 
HETATM   26 CL1  UNL     1      28.822  -2.623  52.950  1.00  0.00    -0.084 Cl
HETATM   27  C18 UNL     1      27.396  -0.320  52.970  1.00  0.00     0.037 A 
ENDBRANCH   1  21
TORSDOF 1
ENDMDL
MODEL 3
REMARK VINA RESULT:      -9.4      2.603      6.353
REMARK  1 active torsions:
REMARK  status: ('A' for Active; 'I' for Inactive)
REMARK    1  A    between atoms: C5_6  and  C6_7 
ROOT
HETATM    1  C6  UNL     1      24.053   1.716  51.800  1.00  0.00     0.070 C 
HETATM    2  C7  UNL     1      23.325   0.877  52.551  1.00  0.00     0.036 A 
HETATM    3  C8  UNL     1      21.871   1.026  52.460  1.00  0.00     0.195 A 
HETATM    4  N1  UNL     1      21.154   0.142  53.319  1.00  0.00    -0.278 NA
HETATM    5  C9  UNL     1      21.625  -0.738  54.114  1.00  0.00     0.229 A 
HETATM    6  N2  UNL     1      23.065  -0.883  54.179  1.00  0.00    -0.225 NA
HETATM    7  C10 UNL     1      23.826  -0.143  53.459  1.00  0.00     0.135 A 
HETATM    8  N3  UNL     1      24.962  -0.849  54.050  1.00  0.00    -0.370 N 
HETATM    9  C11 UNL     1      25.758  -0.531  55.265  1.00  0.00     0.160 C 
HETATM   10  C12 UNL     1      26.872   0.291  54.745  1.00  0.00    -0.038 A 
HETATM   11  C13 UNL     1      28.228   0.317  54.957  1.00  0.00     0.009 A 
HETATM   12  C14 UNL     1      29.042   1.167  54.247  1.00  0.00     0.003 A 
HETATM   13  C15 UNL     1      28.595   2.043  53.286  1.00  0.00     0.031 A 
HETATM   14  C16 UNL     1      27.254   2.107  52.985  1.00  0.00     0.048 A 
HETATM   15  C17 UNL     1      26.600   1.208  53.779  1.00  0.00     0.039 A 
HETATM   16  N4  UNL     1      26.460   2.824  52.048  1.00  0.00    -0.300 N 
HETATM   17  N5  UNL     1      25.401   2.041  51.518  1.00  0.00    -0.299 N 
HETATM   18  H7  UNL     1      25.342  -1.735  53.584  1.00  0.00     0.161 HD
HETATM   19  H14 UNL     1      26.883   3.754  52.001  1.00  0.00     0.187 HD
HETATM   20  H15 UNL     1      25.999   1.725  50.725  1.00  0.00     0.187 HD
ENDROOT
BRANCH   1  21
HETATM   21  C5  UNL     1      23.513   2.744  50.925  1.00  0.00    -0.006 A 
HETATM   22  C4  UNL     1      23.442   2.595  49.548  1.00  0.00     0.014 A 
HETATM   23  C3  UNL     1      22.995   3.539  48.651  1.00  0.00     0.003 A 
HETATM   24  C2  UNL     1      22.571   4.759  49.155  1.00  0.00     0.024 A 
HETATM   25  C1  UNL     1      22.591   5.024  50.491  1.00  0.00     0.035 A 
HETATM   26 CL1  UNL     1      22.070   6.539  51.207  1.00  0.00    -0.084 Cl
HETATM   27  C18 UNL     1      23.055   4.017  51.302  1.00  0.00     0.037 A 
ENDBRANCH   1  21
TORSDOF 1
ENDMDL
MODEL 4
REMARK VINA RESULT:      -9.3      2.419      5.288
REMARK  1 active torsions:
REMARK  status: ('A' for Active; 'I' for Inactive)
REMARK    1  A    between atoms: C5_6  and  C6_7 
ROOT
HETATM    1  C6  UNL     1      24.801   2.449  52.346  1.00  0.00     0.070 C 
HETATM    2  C7  UNL     1      23.460   2.410  52.380  1.00  0.00     0.036 A 
HETATM    3  C8  UNL     1      22.866   1.244  53.036  1.00  0.00     0.195 A 
HETATM    4  N1  UNL     1      21.440   1.234  52.994  1.00  0.00    -0.278 NA
HETATM    5  C9  UNL     1      20.661   2.103  52.480  1.00  0.00     0.229 A 
HETATM    6  N2  UNL     1      21.267   3.260  51.850  1.00  0.00    -0.225 NA
HETATM    7  C10 UNL     1      22.543   3.386  51.815  1.00  0.00     0.135 A 
HETATM    8  N3  UNL     1      22.332   4.649  51.108  1.00  0.00    -0.370 N 
HETATM    9  C11 UNL     1      22.238   4.923  49.649  1.00  0.00     0.160 C 
HETATM   10  C12 UNL     1      23.631   5.240  49.266  1.00  0.00    -0.038 A 
HETATM   11  C13 UNL     1      24.217   6.207  48.487  1.00  0.00     0.009 A 
HETATM   12  C14 UNL     1      25.585   6.300  48.379  1.00  0.00     0.003 A 
HETATM   13  C15 UNL     1      26.470   5.463  49.019  1.00  0.00     0.031 A 
HETATM   14  C16 UNL     1      26.000   4.454  49.828  1.00  0.00     0.048 A 
HETATM   15  C17 UNL     1      24.634   4.506  49.817  1.00  0.00     0.039 A 
HETATM   16  N4  UNL     1      26.592   3.466  50.662  1.00  0.00    -0.300 N 
HETATM   17  N5  UNL     1      25.859   3.252  51.859  1.00  0.00    -0.299 N 
HETATM   18  H7  UNL     1      22.232   5.561  51.660  1.00  0.00     0.161 HD
HETATM   19  H14 UNL     1      27.426   3.161  50.156  1.00  0.00     0.187 HD
HETATM   20  H15 UNL     1      26.421   3.970  52.361  1.00  0.00     0.187 HD
ENDROOT
BRANCH   1  21
HETATM   21  C5  UNL     1      25.685   1.436  52.899  1.00  0.00    -0.006 A 
HETATM   22  C4  UNL     1      26.499   1.669  53.998  1.00  0.00     0.014 A 
HETATM   23  C3  UNL     1      27.398   0.781  54.544  1.00  0.00     0.003 A 
HETATM   24  C2  UNL     1      27.513  -0.468  53.955  1.00  0.00     0.024 A 
HETATM   25  C1  UNL     1      26.764  -0.816  52.871  1.00  0.00     0.035 A 
HETATM   26 CL1  UNL     1      26.848  -2.375  52.070  1.00  0.00    -0.084 Cl
HETATM   27  C18 UNL     1      25.897   0.140  52.401  1.00  0.00     0.037 A 
ENDBRANCH   1  21
TORSDOF 1
ENDMDL
MODEL 5
REMARK VINA RESULT:      -9.0      2.796      5.310
REMARK  1 active torsions:
REMARK  status: ('A' for Active; 'I' for Inactive)
REMARK    1  A    between atoms: C5_6  and  C6_7 
ROOT
HETATM    1  C6  UNL     1      25.272   3.510  50.125  1.00  0.00     0.070 C 
HETATM    2  C7  UNL     1      23.951   3.318  49.988  1.00  0.00     0.036 A 
HETATM    3  C8  UNL     1      23.225   4.349  49.243  1.00  0.00     0.195 A 
HETATM    4  N1  UNL     1      21.819   4.116  49.175  1.00  0.00    -0.278 NA
HETATM    5  C9  UNL     1      21.158   3.139  49.662  1.00  0.00     0.229 A 
HETATM    6  N2  UNL     1      21.896   2.120  50.381  1.00  0.00    -0.225 NA
HETATM    7  C10 UNL     1      23.168   2.214  50.518  1.00  0.00     0.135 A 
HETATM    8  N3  UNL     1      23.115   0.953  51.255  1.00  0.00    -0.370 N 
HETATM    9  C11 UNL     1      22.950   0.704  52.712  1.00  0.00     0.160 C 
HETATM   10  C12 UNL     1      24.340   0.639  53.214  1.00  0.00    -0.038 A 
HETATM   11  C13 UNL     1      25.014  -0.192  54.072  1.00  0.00     0.009 A 
HETATM   12  C14 UNL     1      26.364  -0.047  54.288  1.00  0.00     0.003 A 
HETATM   13  C15 UNL     1      27.145   0.912  53.686  1.00  0.00     0.031 A 
HETATM   14  C16 UNL     1      26.580   1.805  52.805  1.00  0.00     0.048 A 
HETATM   15  C17 UNL     1      25.247   1.520  52.713  1.00  0.00     0.039 A 
HETATM   16  N4  UNL     1      27.064   2.858  51.981  1.00  0.00    -0.300 N 
HETATM   17  N5  UNL     1      26.406   2.914  50.724  1.00  0.00    -0.299 N 
HETATM   18  H7  UNL     1      23.216   0.023  50.734  1.00  0.00     0.161 HD
HETATM   19  H14 UNL     1      27.790   3.314  52.537  1.00  0.00     0.187 HD
HETATM   20  H15 UNL     1      27.121   2.289  50.295  1.00  0.00     0.187 HD
ENDROOT
BRANCH   1  21
HETATM   21  C5  UNL     1      26.014   4.646  49.603  1.00  0.00    -0.006 A 
HETATM   22  C4  UNL     1      27.170   4.503  48.849  1.00  0.00     0.014 A 
HETATM   23  C3  UNL     1      27.955   5.526  48.366  1.00  0.00     0.003 A 
HETATM   24  C2  UNL     1      27.569   6.826  48.650  1.00  0.00     0.024 A 
HETATM   25  C1  UNL     1      26.450   7.094  49.380  1.00  0.00     0.035 A 
HETATM   26 CL1  UNL     1      25.893   8.710  49.779  1.00  0.00    -0.084 Cl
HETATM   27  C18 UNL     1      25.736   6.006  49.816  1.00  0.00     0.037 A 
ENDBRANCH   1  21
TORSDOF 1
ENDMDL
MODEL 6
REMARK VINA RESULT:      -8.9      2.373      4.719
REMARK  1 active torsions:
REMARK  status: ('A' for Active; 'I' for Inactive)
REMARK    1  A    between atoms: C5_6  and  C6_7 
ROOT
HETATM    1  C6  UNL     1      25.375   2.104  52.600  1.00  0.00     0.070 C 
HETATM    2  C7  UNL     1      26.368   1.507  53.276  1.00  0.00     0.036 A 
HETATM    3  C8  UNL     1      27.727   1.791  52.809  1.00  0.00     0.195 A 
HETATM    4  N1  UNL     1      28.735   1.089  53.534  1.00  0.00    -0.278 NA
HETATM    5  C9  UNL     1      28.585   0.285  54.513  1.00  0.00     0.229 A 
HETATM    6  N2  UNL     1      27.235   0.030  54.973  1.00  0.00    -0.225 NA
HETATM    7  C10 UNL     1      26.236   0.596  54.401  1.00  0.00     0.135 A 
HETATM    8  N3  UNL     1      25.377  -0.106  55.353  1.00  0.00    -0.370 N 
HETATM    9  C11 UNL     1      24.718  -1.436  55.245  1.00  0.00     0.160 C 
HETATM   10  C12 UNL     1      23.390  -1.120  54.677  1.00  0.00    -0.038 A 
HETATM   11  C13 UNL     1      22.107  -1.519  54.954  1.00  0.00     0.009 A 
HETATM   12  C14 UNL     1      21.034  -0.976  54.288  1.00  0.00     0.003 A 
HETATM   13  C15 UNL     1      21.137  -0.011  53.312  1.00  0.00     0.031 A 
HETATM   14  C16 UNL     1      22.374   0.468  52.948  1.00  0.00     0.048 A 
HETATM   15  C17 UNL     1      23.315  -0.177  53.700  1.00  0.00     0.039 A 
HETATM   16  N4  UNL     1      22.850   1.466  52.054  1.00  0.00    -0.300 N 
HETATM   17  N5  UNL     1      23.962   2.179  52.572  1.00  0.00    -0.299 N 
HETATM   18  H7  UNL     1      25.131   0.350  56.290  1.00  0.00     0.161 HD
HETATM   19  H14 UNL     1      22.235   1.402  51.239  1.00  0.00     0.187 HD
HETATM   20  H15 UNL     1      23.337   2.897  52.993  1.00  0.00     0.187 HD
ENDROOT
BRANCH   1  21
HETATM   21  C5  UNL     1      25.549   2.988  51.458  1.00  0.00    -0.006 A 
HETATM   22  C4  UNL     1      26.445   2.723  50.434  1.00  0.00     0.014 A 
HETATM   23  C3  UNL     1      26.704   3.535  49.352  1.00  0.00     0.003 A 
HETATM   24  C2  UNL     1      26.012   4.731  49.262  1.00  0.00     0.024 A 
HETATM   25  C1  UNL     1      25.103   5.102  50.207  1.00  0.00     0.035 A 
HETATM   26 CL1  UNL     1      24.185   6.597  50.164  1.00  0.00    -0.084 Cl
HETATM   27  C18 UNL     1      24.917   4.224  51.246  1.00  0.00     0.037 A 
ENDBRANCH   1  21
TORSDOF 1
ENDMDL
MODEL 7
REMARK VINA RESULT:      -8.8      4.072      7.497
REMARK  1 active torsions:
REMARK  status: ('A' for Active; 'I' for Inactive)
REMARK    1  A    between atoms: C5_6  and  C6_7 
ROOT
HETATM    1  C6  UNL     1      24.359   4.779  50.920  1.00  0.00     0.070 C 
HETATM    2  C7  UNL     1      23.569   5.851  50.756  1.00  0.00     0.036 A 
HETATM    3  C8  UNL     1      22.159   5.671  51.108  1.00  0.00     0.195 A 
HETATM    4  N1  UNL     1      21.360   6.828  50.863  1.00  0.00    -0.278 NA
HETATM    5  C9  UNL     1      21.732   7.958  50.402  1.00  0.00     0.229 A 
HETATM    6  N2  UNL     1      23.134   8.123  50.076  1.00  0.00    -0.225 NA
HETATM    7  C10 UNL     1      23.958   7.155  50.245  1.00  0.00     0.135 A 
HETATM    8  N3  UNL     1      25.004   8.046  49.746  1.00  0.00    -0.370 N 
HETATM    9  C11 UNL     1      25.497   8.258  48.358  1.00  0.00     0.160 C 
HETATM   10  C12 UNL     1      26.617   7.300  48.237  1.00  0.00    -0.038 A 
HETATM   11  C13 UNL     1      27.890   7.368  47.730  1.00  0.00     0.009 A 
HETATM   12  C14 UNL     1      28.756   6.305  47.835  1.00  0.00     0.003 A 
HETATM   13  C15 UNL     1      28.442   5.109  48.438  1.00  0.00     0.031 A 
HETATM   14  C16 UNL     1      27.193   4.922  48.984  1.00  0.00     0.048 A 
HETATM   15  C17 UNL     1      26.471   6.065  48.789  1.00  0.00     0.039 A 
HETATM   16  N4  UNL     1      26.551   3.880  49.710  1.00  0.00    -0.300 N 
HETATM   17  N5  UNL     1      25.701   4.372  50.734  1.00  0.00    -0.299 N 
HETATM   18  H7  UNL     1      25.552   8.664  50.428  1.00  0.00     0.161 HD
HETATM   19  H14 UNL     1      26.890   3.016  49.282  1.00  0.00     0.187 HD
HETATM   20  H15 UNL     1      26.477   4.337  51.428  1.00  0.00     0.187 HD
ENDROOT
BRANCH   1  21
HETATM   21  C5  UNL     1      23.923   3.481  51.408  1.00  0.00    -0.006 A 
HETATM   22  C4  UNL     1      24.402   2.922  52.584  1.00  0.00     0.014 A 
HETATM   23  C3  UNL     1      24.079   1.680  53.082  1.00  0.00     0.003 A 
HETATM   24  C2  UNL     1      23.193   0.902  52.354  1.00  0.00     0.024 A 
HETATM   25  C1  UNL     1      22.653   1.343  51.184  1.00  0.00     0.035 A 
HETATM   26 CL1  UNL     1      21.524   0.421  50.206  1.00  0.00    -0.084 Cl
HETATM   27  C18 UNL     1      23.038   2.595  50.772  1.00  0.00     0.037 A 
ENDBRANCH   1  21
TORSDOF 1
ENDMDL
MODEL 8
REMARK VINA RESULT:      -8.7      3.150      7.359
REMARK  1 active torsions:
REMARK  status: ('A' for Active; 'I' for Inactive)
REMARK    1  A    between atoms: C5_6  and  C6_7 
ROOT
HETATM    1  C6  UNL     1      21.728   0.586  52.050  1.00  0.00     0.070 C 
HETATM    2  C7  UNL     1      22.255  -0.045  53.109  1.00  0.00     0.036 A 
HETATM    3  C8  UNL     1      21.302  -0.532  54.109  1.00  0.00     0.195 A 
HETATM    4  N1  UNL     1      21.925  -1.147  55.235  1.00  0.00    -0.278 NA
HETATM    5  C9  UNL     1      23.170  -1.323  55.448  1.00  0.00     0.229 A 
HETATM    6  N2  UNL     1      24.098  -0.850  54.440  1.00  0.00    -0.225 NA
HETATM    7  C10 UNL     1      23.665  -0.273  53.380  1.00  0.00     0.135 A 
HETATM    8  N3  UNL     1      25.061  -0.140  52.963  1.00  0.00    -0.370 N 
HETATM    9  C11 UNL     1      26.028   0.964  53.201  1.00  0.00     0.160 C 
HETATM   10  C12 UNL     1      25.862   1.833  52.016  1.00  0.00    -0.038 A 
HETATM   11  C13 UNL     1      26.728   2.477  51.167  1.00  0.00     0.009 A 
HETATM   12  C14 UNL     1      26.267   3.168  50.072  1.00  0.00     0.003 A 
HETATM   13  C15 UNL     1      24.939   3.278  49.729  1.00  0.00     0.031 A 
HETATM   14  C16 UNL     1      23.977   2.673  50.505  1.00  0.00     0.048 A 
HETATM   15  C17 UNL     1      24.605   2.042  51.541  1.00  0.00     0.039 A 
HETATM   16  N4  UNL     1      22.564   2.529  50.435  1.00  0.00    -0.300 N 
HETATM   17  N5  UNL     1      22.124   1.249  50.864  1.00  0.00    -0.299 N 
HETATM   18  H7  UNL     1      25.522  -0.913  52.383  1.00  0.00     0.161 HD
HETATM   19  H14 UNL     1      22.226   3.425  50.077  1.00  0.00     0.187 HD
HETATM   20  H15 UNL     1      22.180   0.877  49.893  1.00  0.00     0.187 HD
ENDROOT
BRANCH   1  21
HETATM   21  C5  UNL     1      20.309   0.819  51.831  1.00  0.00    -0.006 A 
HETATM   22  C4  UNL     1      19.414  -0.205  51.559  1.00  0.00     0.014 A 
HETATM   23  C3  UNL     1      18.072  -0.059  51.289  1.00  0.00     0.003 A 
HETATM   24  C2  UNL     1      17.549   1.224  51.285  1.00  0.00     0.024 A 
HETATM   25  C1  UNL     1      18.329   2.312  51.540  1.00  0.00     0.035 A 
HETATM   26 CL1  UNL     1      17.744   3.967  51.556  1.00  0.00    -0.084 Cl
HETATM   27  C18 UNL     1      19.654   2.061  51.797  1.00  0.00     0.037 A 
ENDBRANCH   1  21
TORSDOF 1
ENDMDL
MODEL 9
REMARK VINA RESULT:      -8.7      2.401      3.441
REMARK  1 active torsions:
REMARK  status: ('A' for Active; 'I' for Inactive)
REMARK    1  A    between atoms: C5_6  and  C6_7 
ROOT
HETATM    1  C6  UNL     1      22.872   1.128  51.428  1.00  0.00     0.070 C 
HETATM    2  C7  UNL     1      22.567   1.830  50.326  1.00  0.00     0.036 A 
HETATM    3  C8  UNL     1      23.553   2.827  49.903  1.00  0.00     0.195 A 
HETATM    4  N1  UNL     1      23.149   3.575  48.758  1.00  0.00    -0.278 NA
HETATM    5  C9  UNL     1      22.072   3.463  48.084  1.00  0.00     0.229 A 
HETATM    6  N2  UNL     1      21.115   2.460  48.507  1.00  0.00    -0.225 NA
HETATM    7  C10 UNL     1      21.356   1.723  49.528  1.00  0.00     0.135 A 
HETATM    8  N3  UNL     1      20.067   1.078  49.284  1.00  0.00    -0.370 N 
HETATM    9  C11 UNL     1      18.716   1.412  49.812  1.00  0.00     0.160 C 
HETATM   10  C12 UNL     1      18.606   0.585  51.033  1.00  0.00    -0.038 A 
HETATM   11  C13 UNL     1      17.624  -0.207  51.572  1.00  0.00     0.009 A 
HETATM   12  C14 UNL     1      17.847  -0.939  52.714  1.00  0.00     0.003 A 
HETATM   13  C15 UNL     1      19.037  -0.951  53.405  1.00  0.00     0.031 A 
HETATM   14  C16 UNL     1      20.097  -0.195  52.960  1.00  0.00     0.048 A 
HETATM   15  C17 UNL     1      19.702   0.463  51.830  1.00  0.00     0.039 A 
HETATM   16  N4  UNL     1      21.446  -0.005  53.367  1.00  0.00    -0.300 N 
HETATM   17  N5  UNL     1      22.335   0.125  52.269  1.00  0.00    -0.299 N 
HETATM   18  H7  UNL     1      20.009   0.220  48.648  1.00  0.00     0.161 HD
HETATM   19  H14 UNL     1      21.416  -0.015  54.390  1.00  0.00     0.187 HD
HETATM   20  H15 UNL     1      22.513  -0.901  52.260  1.00  0.00     0.187 HD
ENDROOT
BRANCH   1  21
HETATM   21  C5  UNL     1      24.084   1.287  52.216  1.00  0.00    -0.006 A 
HETATM   22  C4  UNL     1      24.307   2.383  53.036  1.00  0.00     0.014 A 
HETATM   23  C3  UNL     1      25.447   2.630  53.768  1.00  0.00     0.003 A 
HETATM   24  C2  UNL     1      26.477   1.707  53.692  1.00  0.00     0.024 A 
HETATM   25  C1  UNL     1      26.375   0.588  52.921  1.00  0.00     0.035 A 
HETATM   26 CL1  UNL     1      27.631  -0.629  52.772  1.00  0.00    -0.084 Cl
HETATM   27  C18 UNL     1      25.199   0.433  52.229  1.00  0.00     0.037 A 
ENDBRANCH   1  21
TORSDOF 1
ENDMDL
