MODEL 1
REMARK VINA RESULT:      -6.8      0.000      0.000
REMARK  7 active torsions:
REMARK  status: ('A' for Active; 'I' for Inactive)
REMARK    1  A    between atoms: O1_2  and  C2_3 
REMARK    2  A    between atoms: C2_3  and  C3_4 
REMARK    3  A    between atoms: C3_4  and  O2_5 
REMARK    4  A    between atoms: C3_4  and  C5_7 
REMARK    5  A    between atoms: C7_11  and  N3_12 
REMARK    6  A    between atoms: N3_12  and  C8_13 
REMARK    7  A    between atoms: C8_13  and  C9_14 
ROOT
HETATM    1  C5  UNL     1      26.352  -0.257  53.690  1.00  0.00     0.092 A 
HETATM    2  N1  UNL     1      25.705  -0.958  54.666  1.00  0.00    -0.242 NA
HETATM    3  C6  UNL     1      24.356  -0.886  54.652  1.00  0.00     0.235 A 
HETATM    4  N2  UNL     1      23.662  -0.177  53.744  1.00  0.00    -0.223 NA
HETATM    5  C7  UNL     1      24.260   0.528  52.766  1.00  0.00     0.149 A 
HETATM    6  C14 UNL     1      25.658   0.497  52.724  1.00  0.00     0.107 A 
HETATM    7 CL1  UNL     1      26.531   1.380  51.490  1.00  0.00    -0.078 Cl
ENDROOT
BRANCH   5   8
HETATM    8  N3  UNL     1      23.511   1.274  51.813  1.00  0.00    -0.369 N 
HETATM    9  H11 UNL     1      23.561   0.979  50.814  1.00  0.00     0.161 HD
BRANCH   8  10
HETATM   10  C8  UNL     1      22.723   2.399  52.291  1.00  0.00     0.157 C 
BRANCH  10  11
HETATM   11  C9  UNL     1      23.318   3.668  51.860  1.00  0.00    -0.044 A 
HETATM   12  C10 UNL     1      23.381   4.732  52.645  1.00  0.00     0.092 A 
HETATM   13  N4  UNL     1      23.993   5.876  52.061  1.00  0.00    -0.375 N 
HETATM   14  C11 UNL     1      24.510   5.915  50.736  1.00  0.00     0.084 A 
HETATM   15  H15 UNL     1      24.068   6.737  52.633  1.00  0.00     0.164 HD
HETATM   16  C12 UNL     1      24.391   4.795  50.044  1.00  0.00    -0.005 A 
HETATM   17  C13 UNL     1      23.793   3.502  50.463  1.00  0.00     0.065 A 
ENDBRANCH  10  11
ENDBRANCH   8  10
ENDBRANCH   5   8
BRANCH   1  18
HETATM   18  C3  UNL     1      27.808  -0.320  53.685  1.00  0.00     0.198 C 
BRANCH  18  19
HETATM   19  C2  UNL     1      28.569   0.269  54.796  1.00  0.00     0.205 C 
BRANCH  19  20
HETATM   20  O1  UNL     1      28.649   1.606  54.889  1.00  0.00    -0.393 OA
HETATM   21  C1  UNL     1      28.964   2.378  53.832  1.00  0.00     0.201 C 
ENDBRANCH  19  20
ENDBRANCH  18  19
BRANCH  18  22
HETATM   22  O2  UNL     1      28.273  -1.638  53.434  1.00  0.00    -0.382 OA
HETATM   23  C4  UNL     1      29.660  -1.555  53.433  1.00  0.00     0.202 C 
ENDBRANCH  18  22
ENDBRANCH   1  18
TORSDOF 7
ENDMDL
MODEL 2
REMARK VINA RESULT:      -6.6      2.184      2.941
REMARK  7 active torsions:
REMARK  status: ('A' for Active; 'I' for Inactive)
REMARK    1  A    between atoms: O1_2  and  C2_3 
REMARK    2  A    between atoms: C2_3  and  C3_4 
REMARK    3  A    between atoms: C3_4  and  O2_5 
REMARK    4  A    between atoms: C3_4  and  C5_7 
REMARK    5  A    between atoms: C7_11  and  N3_12 
REMARK    6  A    between atoms: N3_12  and  C8_13 
REMARK    7  A    between atoms: C8_13  and  C9_14 
ROOT
HETATM    1  C5  UNL     1      25.456   0.764  53.182  1.00  0.00     0.092 A 
HETATM    2  N1  UNL     1      24.178   0.349  53.423  1.00  0.00    -0.242 NA
HETATM    3  C6  UNL     1      23.197   1.186  53.017  1.00  0.00     0.235 A 
HETATM    4  N2  UNL     1      23.433   2.363  52.410  1.00  0.00    -0.223 NA
HETATM    5  C7  UNL     1      24.677   2.809  52.154  1.00  0.00     0.149 A 
HETATM    6  C14 UNL     1      25.739   1.990  52.550  1.00  0.00     0.107 A 
HETATM    7 CL1  UNL     1      27.396   2.479  52.263  1.00  0.00    -0.078 Cl
ENDROOT
BRANCH   5   8
HETATM    8  N3  UNL     1      24.909   4.057  51.512  1.00  0.00    -0.369 N 
HETATM    9  H11 UNL     1      25.038   4.899  52.113  1.00  0.00     0.161 HD
BRANCH   8  10
HETATM   10  C8  UNL     1      24.951   4.081  50.058  1.00  0.00     0.157 C 
BRANCH  10  11
HETATM   11  C9  UNL     1      25.980   5.013  49.585  1.00  0.00    -0.044 A 
HETATM   12  C10 UNL     1      25.887   6.323  49.744  1.00  0.00     0.092 A 
HETATM   13  N4  UNL     1      26.979   7.072  49.224  1.00  0.00    -0.375 N 
HETATM   14  C11 UNL     1      28.105   6.495  48.574  1.00  0.00     0.084 A 
HETATM   15  H15 UNL     1      26.956   8.104  49.322  1.00  0.00     0.164 HD
HETATM   16  C12 UNL     1      28.090   5.176  48.472  1.00  0.00    -0.005 A 
HETATM   17  C13 UNL     1      27.058   4.218  48.943  1.00  0.00     0.065 A 
ENDBRANCH  10  11
ENDBRANCH   8  10
ENDBRANCH   5   8
BRANCH   1  18
HETATM   18  C3  UNL     1      26.530  -0.124  53.610  1.00  0.00     0.198 C 
BRANCH  18  19
HETATM   19  C2  UNL     1      27.224   0.128  54.881  1.00  0.00     0.205 C 
BRANCH  19  20
HETATM   20  O1  UNL     1      28.513  -0.230  54.997  1.00  0.00    -0.393 OA
HETATM   21  C1  UNL     1      29.410   0.004  54.021  1.00  0.00     0.201 C 
ENDBRANCH  19  20
ENDBRANCH  18  19
BRANCH  18  22
HETATM   22  O2  UNL     1      26.140  -1.488  53.541  1.00  0.00    -0.382 OA
HETATM   23  C4  UNL     1      26.797  -2.012  52.435  1.00  0.00     0.202 C 
ENDBRANCH  18  22
ENDBRANCH   1  18
TORSDOF 7
ENDMDL
MODEL 3
REMARK VINA RESULT:      -6.3      3.768      6.655
REMARK  7 active torsions:
REMARK  status: ('A' for Active; 'I' for Inactive)
REMARK    1  A    between atoms: O1_2  and  C2_3 
REMARK    2  A    between atoms: C2_3  and  C3_4 
REMARK    3  A    between atoms: C3_4  and  O2_5 
REMARK    4  A    between atoms: C3_4  and  C5_7 
REMARK    5  A    between atoms: C7_11  and  N3_12 
REMARK    6  A    between atoms: N3_12  and  C8_13 
REMARK    7  A    between atoms: C8_13  and  C9_14 
ROOT
HETATM    1  C5  UNL     1      21.230   0.822  53.115  1.00  0.00     0.092 A 
HETATM    2  N1  UNL     1      20.696   0.242  54.230  1.00  0.00    -0.242 NA
HETATM    3  C6  UNL     1      21.526  -0.558  54.935  1.00  0.00     0.235 A 
HETATM    4  N2  UNL     1      22.805  -0.788  54.588  1.00  0.00    -0.223 NA
HETATM    5  C7  UNL     1      23.369  -0.236  53.498  1.00  0.00     0.149 A 
HETATM    6  C14 UNL     1      22.564   0.603  52.721  1.00  0.00     0.107 A 
HETATM    7 CL1  UNL     1      23.203   1.370  51.283  1.00  0.00    -0.078 Cl
ENDROOT
BRANCH   5   8
HETATM    8  N3  UNL     1      24.724  -0.491  53.144  1.00  0.00    -0.369 N 
HETATM    9  H11 UNL     1      24.951  -0.607  52.133  1.00  0.00     0.161 HD
BRANCH   8  10
HETATM   10  C8  UNL     1      25.707  -0.574  54.213  1.00  0.00     0.157 C 
BRANCH  10  11
HETATM   11  C9  UNL     1      26.715   0.482  54.073  1.00  0.00    -0.044 A 
HETATM   12  C10 UNL     1      26.399   1.762  53.958  1.00  0.00     0.092 A 
HETATM   13  N4  UNL     1      27.506   2.647  53.832  1.00  0.00    -0.375 N 
HETATM   14  C11 UNL     1      28.865   2.228  53.826  1.00  0.00     0.084 A 
HETATM   15  H15 UNL     1      27.315   3.661  53.739  1.00  0.00     0.164 HD
HETATM   16  C12 UNL     1      29.061   0.925  53.948  1.00  0.00    -0.005 A 
HETATM   17  C13 UNL     1      28.055  -0.157  54.090  1.00  0.00     0.065 A 
ENDBRANCH  10  11
ENDBRANCH   8  10
ENDBRANCH   5   8
BRANCH   1  18
HETATM   18  C3  UNL     1      20.353   1.691  52.339  1.00  0.00     0.198 C 
BRANCH  18  19
HETATM   19  C2  UNL     1      19.017   1.220  51.948  1.00  0.00     0.205 C 
BRANCH  19  20
HETATM   20  O1  UNL     1      18.857  -0.072  51.618  1.00  0.00    -0.393 OA
HETATM   21  C1  UNL     1      17.877  -0.829  52.147  1.00  0.00     0.201 C 
ENDBRANCH  19  20
ENDBRANCH  18  19
BRANCH  18  22
HETATM   22  O2  UNL     1      20.253   2.984  52.917  1.00  0.00    -0.382 OA
HETATM   23  C4  UNL     1      20.739   3.864  51.957  1.00  0.00     0.202 C 
ENDBRANCH  18  22
ENDBRANCH   1  18
TORSDOF 7
ENDMDL
MODEL 4
REMARK VINA RESULT:      -6.2      3.612      7.037
REMARK  7 active torsions:
REMARK  status: ('A' for Active; 'I' for Inactive)
REMARK    1  A    between atoms: O1_2  and  C2_3 
REMARK    2  A    between atoms: C2_3  and  C3_4 
REMARK    3  A    between atoms: C3_4  and  O2_5 
REMARK    4  A    between atoms: C3_4  and  C5_7 
REMARK    5  A    between atoms: C7_11  and  N3_12 
REMARK    6  A    between atoms: N3_12  and  C8_13 
REMARK    7  A    between atoms: C8_13  and  C9_14 
ROOT
HETATM    1  C5  UNL     1      21.884   1.784  52.483  1.00  0.00     0.092 A 
HETATM    2  N1  UNL     1      21.156   0.631  52.544  1.00  0.00    -0.242 NA
HETATM    3  C6  UNL     1      21.830  -0.475  52.929  1.00  0.00     0.235 A 
HETATM    4  N2  UNL     1      23.138  -0.474  53.241  1.00  0.00    -0.223 NA
HETATM    5  C7  UNL     1      23.891   0.640  53.194  1.00  0.00     0.149 A 
HETATM    6  C14 UNL     1      23.255   1.822  52.801  1.00  0.00     0.107 A 
HETATM    7 CL1  UNL     1      24.147   3.326  52.708  1.00  0.00    -0.078 Cl
ENDROOT
BRANCH   5   8
HETATM    8  N3  UNL     1      25.275   0.624  53.527  1.00  0.00    -0.369 N 
HETATM    9  H11 UNL     1      25.537   0.725  54.531  1.00  0.00     0.161 HD
BRANCH   8  10
HETATM   10  C8  UNL     1      26.237   0.468  52.447  1.00  0.00     0.157 C 
BRANCH  10  11
HETATM   11  C9  UNL     1      27.164  -0.632  52.733  1.00  0.00    -0.044 A 
HETATM   12  C10 UNL     1      26.834  -1.904  52.577  1.00  0.00     0.092 A 
HETATM   13  N4  UNL     1      27.859  -2.836  52.902  1.00  0.00    -0.375 N 
HETATM   14  C11 UNL     1      29.153  -2.469  53.363  1.00  0.00     0.084 A 
HETATM   15  H15 UNL     1      27.653  -3.846  52.798  1.00  0.00     0.164 HD
HETATM   16  C12 UNL     1      29.370  -1.170  53.481  1.00  0.00    -0.005 A 
HETATM   17  C13 UNL     1      28.446  -0.043  53.197  1.00  0.00     0.065 A 
ENDBRANCH  10  11
ENDBRANCH   8  10
ENDBRANCH   5   8
BRANCH   1  18
HETATM   18  C3  UNL     1      21.177   2.991  52.071  1.00  0.00     0.198 C 
BRANCH  18  19
HETATM   19  C2  UNL     1      21.066   3.321  50.643  1.00  0.00     0.205 C 
BRANCH  19  20
HETATM   20  O1  UNL     1      21.627   2.498  49.743  1.00  0.00    -0.393 OA
HETATM   21  C1  UNL     1      20.894   1.663  48.983  1.00  0.00     0.201 C 
ENDBRANCH  19  20
ENDBRANCH  18  19
BRANCH  18  22
HETATM   22  O2  UNL     1      19.899   3.083  52.683  1.00  0.00    -0.382 OA
HETATM   23  C4  UNL     1      19.040   3.545  51.694  1.00  0.00     0.202 C 
ENDBRANCH  18  22
ENDBRANCH   1  18
TORSDOF 7
ENDMDL
MODEL 5
REMARK VINA RESULT:      -6.1      3.038      5.062
REMARK  7 active torsions:
REMARK  status: ('A' for Active; 'I' for Inactive)
REMARK    1  A    between atoms: O1_2  and  C2_3 
REMARK    2  A    between atoms: C2_3  and  C3_4 
REMARK    3  A    between atoms: C3_4  and  O2_5 
REMARK    4  A    between atoms: C3_4  and  C5_7 
REMARK    5  A    between atoms: C7_11  and  N3_12 
REMARK    6  A    between atoms: N3_12  and  C8_13 
REMARK    7  A    between atoms: C8_13  and  C9_14 
ROOT
HETATM    1  C5  UNL     1      25.597   1.525  52.634  1.00  0.00     0.092 A 
HETATM    2  N1  UNL     1      25.877   2.510  51.731  1.00  0.00    -0.242 NA
HETATM    3  C6  UNL     1      24.889   2.813  50.860  1.00  0.00     0.235 A 
HETATM    4  N2  UNL     1      23.691   2.200  50.858  1.00  0.00    -0.223 NA
HETATM    5  C7  UNL     1      23.376   1.225  51.730  1.00  0.00     0.149 A 
HETATM    6  C14 UNL     1      24.356   0.862  52.659  1.00  0.00     0.107 A 
HETATM    7 CL1  UNL     1      24.044  -0.396  53.837  1.00  0.00    -0.078 Cl
ENDROOT
BRANCH   5   8
HETATM    8  N3  UNL     1      22.104   0.587  51.713  1.00  0.00    -0.369 N 
HETATM    9  H11 UNL     1      21.992  -0.263  51.118  1.00  0.00     0.161 HD
BRANCH   8  10
HETATM   10  C8  UNL     1      21.040   1.157  52.525  1.00  0.00     0.157 C 
BRANCH  10  11
HETATM   11  C9  UNL     1      20.027   0.144  52.838  1.00  0.00    -0.044 A 
HETATM   12  C10 UNL     1      20.172  -0.733  53.818  1.00  0.00     0.092 A 
HETATM   13  N4  UNL     1      19.088  -1.642  53.978  1.00  0.00    -0.375 N 
HETATM   14  C11 UNL     1      17.920  -1.640  53.167  1.00  0.00     0.084 A 
HETATM   15  H15 UNL     1      19.150  -2.351  54.732  1.00  0.00     0.164 HD
HETATM   16  C12 UNL     1      17.885  -0.719  52.219  1.00  0.00    -0.005 A 
HETATM   17  C13 UNL     1      18.900   0.314  51.887  1.00  0.00     0.065 A 
ENDBRANCH  10  11
ENDBRANCH   8  10
ENDBRANCH   5   8
BRANCH   1  18
HETATM   18  C3  UNL     1      26.649   1.182  53.584  1.00  0.00     0.198 C 
BRANCH  18  19
HETATM   19  C2  UNL     1      27.615   0.124  53.255  1.00  0.00     0.205 C 
BRANCH  19  20
HETATM   20  O1  UNL     1      27.333  -1.141  53.606  1.00  0.00    -0.393 OA
HETATM   21  C1  UNL     1      27.117  -2.105  52.690  1.00  0.00     0.201 C 
ENDBRANCH  19  20
ENDBRANCH  18  19
BRANCH  18  22
HETATM   22  O2  UNL     1      27.341   2.337  54.036  1.00  0.00    -0.382 OA
HETATM   23  C4  UNL     1      28.673   2.136  53.693  1.00  0.00     0.202 C 
ENDBRANCH  18  22
ENDBRANCH   1  18
TORSDOF 7
ENDMDL
MODEL 6
REMARK VINA RESULT:      -6.1      2.907      3.726
REMARK  7 active torsions:
REMARK  status: ('A' for Active; 'I' for Inactive)
REMARK    1  A    between atoms: O1_2  and  C2_3 
REMARK    2  A    between atoms: C2_3  and  C3_4 
REMARK    3  A    between atoms: C3_4  and  O2_5 
REMARK    4  A    between atoms: C3_4  and  C5_7 
REMARK    5  A    between atoms: C7_11  and  N3_12 
REMARK    6  A    between atoms: N3_12  and  C8_13 
REMARK    7  A    between atoms: C8_13  and  C9_14 
ROOT
HETATM    1  C5  UNL     1      25.916  -0.304  53.985  1.00  0.00     0.092 A 
HETATM    2  N1  UNL     1      25.650  -1.023  55.115  1.00  0.00    -0.242 NA
HETATM    3  C6  UNL     1      24.344  -1.259  55.372  1.00  0.00     0.235 A 
HETATM    4  N2  UNL     1      23.344  -0.827  54.583  1.00  0.00    -0.223 NA
HETATM    5  C7  UNL     1      23.563  -0.116  53.462  1.00  0.00     0.149 A 
HETATM    6  C14 UNL     1      24.895   0.165  53.137  1.00  0.00     0.107 A 
HETATM    7 CL1  UNL     1      25.286   1.083  51.699  1.00  0.00    -0.078 Cl
ENDROOT
BRANCH   5   8
HETATM    8  N3  UNL     1      22.494   0.334  52.638  1.00  0.00    -0.369 N 
HETATM    9  H11 UNL     1      22.730   0.924  51.811  1.00  0.00     0.161 HD
BRANCH   8  10
HETATM   10  C8  UNL     1      21.140  -0.055  53.000  1.00  0.00     0.157 C 
BRANCH  10  11
HETATM   11  C9  UNL     1      20.208   0.233  51.905  1.00  0.00    -0.044 A 
HETATM   12  C10 UNL     1      20.590   0.797  50.770  1.00  0.00     0.092 A 
HETATM   13  N4  UNL     1      19.551   1.001  49.819  1.00  0.00    -0.375 N 
HETATM   14  C11 UNL     1      18.192   0.640  50.033  1.00  0.00     0.084 A 
HETATM   15  H15 UNL     1      19.795   1.439  48.912  1.00  0.00     0.164 HD
HETATM   16  C12 UNL     1      17.926   0.085  51.204  1.00  0.00    -0.005 A 
HETATM   17  C13 UNL     1      18.856  -0.214  52.323  1.00  0.00     0.065 A 
ENDBRANCH  10  11
ENDBRANCH   8  10
ENDBRANCH   5   8
BRANCH   1  18
HETATM   18  C3  UNL     1      27.318  -0.038  53.687  1.00  0.00     0.198 C 
BRANCH  18  19
HETATM   19  C2  UNL     1      28.232   0.361  54.767  1.00  0.00     0.205 C 
BRANCH  19  20
HETATM   20  O1  UNL     1      28.771   1.591  54.737  1.00  0.00    -0.393 OA
HETATM   21  C1  UNL     1      28.587   2.427  53.697  1.00  0.00     0.201 C 
ENDBRANCH  19  20
ENDBRANCH  18  19
BRANCH  18  22
HETATM   22  O2  UNL     1      27.901  -1.091  52.933  1.00  0.00    -0.382 OA
HETATM   23  C4  UNL     1      29.176  -1.266  53.455  1.00  0.00     0.202 C 
ENDBRANCH  18  22
ENDBRANCH   1  18
TORSDOF 7
ENDMDL
MODEL 7
REMARK VINA RESULT:      -5.9      3.402      7.144
REMARK  7 active torsions:
REMARK  status: ('A' for Active; 'I' for Inactive)
REMARK    1  A    between atoms: O1_2  and  C2_3 
REMARK    2  A    between atoms: C2_3  and  C3_4 
REMARK    3  A    between atoms: C3_4  and  O2_5 
REMARK    4  A    between atoms: C3_4  and  C5_7 
REMARK    5  A    between atoms: C7_11  and  N3_12 
REMARK    6  A    between atoms: N3_12  and  C8_13 
REMARK    7  A    between atoms: C8_13  and  C9_14 
ROOT
HETATM    1  C5  UNL     1      24.474   3.991  50.593  1.00  0.00     0.092 A 
HETATM    2  N1  UNL     1      25.308   4.288  49.554  1.00  0.00    -0.242 NA
HETATM    3  C6  UNL     1      26.498   3.647  49.549  1.00  0.00     0.235 A 
HETATM    4  N2  UNL     1      26.868   2.765  50.494  1.00  0.00    -0.223 NA
HETATM    5  C7  UNL     1      26.076   2.444  51.534  1.00  0.00     0.149 A 
HETATM    6  C14 UNL     1      24.829   3.074  51.601  1.00  0.00     0.107 A 
HETATM    7 CL1  UNL     1      23.724   2.725  52.914  1.00  0.00    -0.078 Cl
ENDROOT
BRANCH   5   8
HETATM    8  N3  UNL     1      26.483   1.509  52.527  1.00  0.00    -0.369 N 
HETATM    9  H11 UNL     1      27.113   1.847  53.287  1.00  0.00     0.161 HD
BRANCH   8  10
HETATM   10  C8  UNL     1      25.997   0.142  52.420  1.00  0.00     0.157 C 
BRANCH  10  11
HETATM   11  C9  UNL     1      27.067  -0.813  52.721  1.00  0.00    -0.044 A 
HETATM   12  C10 UNL     1      26.919  -2.121  52.581  1.00  0.00     0.092 A 
HETATM   13  N4  UNL     1      28.063  -2.896  52.919  1.00  0.00    -0.375 N 
HETATM   14  C11 UNL     1      29.293  -2.347  53.376  1.00  0.00     0.084 A 
HETATM   15  H15 UNL     1      28.002  -3.927  52.828  1.00  0.00     0.164 HD
HETATM   16  C12 UNL     1      29.326  -1.028  53.478  1.00  0.00    -0.005 A 
HETATM   17  C13 UNL     1      28.253  -0.045  53.178  1.00  0.00     0.065 A 
ENDBRANCH  10  11
ENDBRANCH   8  10
ENDBRANCH   5   8
BRANCH   1  18
HETATM   18  C3  UNL     1      23.184   4.669  50.619  1.00  0.00     0.198 C 
BRANCH  18  19
HETATM   19  C2  UNL     1      23.109   6.108  50.330  1.00  0.00     0.205 C 
BRANCH  19  20
HETATM   20  O1  UNL     1      23.865   6.953  51.049  1.00  0.00    -0.393 OA
HETATM   21  C1  UNL     1      24.800   7.737  50.478  1.00  0.00     0.201 C 
ENDBRANCH  19  20
ENDBRANCH  18  19
BRANCH  18  22
HETATM   22  O2  UNL     1      22.214   3.976  49.847  1.00  0.00    -0.382 OA
HETATM   23  C4  UNL     1      21.076   3.912  50.642  1.00  0.00     0.202 C 
ENDBRANCH  18  22
ENDBRANCH   1  18
TORSDOF 7
ENDMDL
MODEL 8
REMARK VINA RESULT:      -5.9      3.672      6.808
REMARK  7 active torsions:
REMARK  status: ('A' for Active; 'I' for Inactive)
REMARK    1  A    between atoms: O1_2  and  C2_3 
REMARK    2  A    between atoms: C2_3  and  C3_4 
REMARK    3  A    between atoms: C3_4  and  O2_5 
REMARK    4  A    between atoms: C3_4  and  C5_7 
REMARK    5  A    between atoms: C7_11  and  N3_12 
REMARK    6  A    between atoms: N3_12  and  C8_13 
REMARK    7  A    between atoms: C8_13  and  C9_14 
ROOT
HETATM    1  C5  UNL     1      21.900   2.467  52.050  1.00  0.00     0.092 A 
HETATM    2  N1  UNL     1      21.536   3.779  51.965  1.00  0.00    -0.242 NA
HETATM    3  C6  UNL     1      22.475   4.679  52.332  1.00  0.00     0.235 A 
HETATM    4  N2  UNL     1      23.704   4.335  52.759  1.00  0.00    -0.223 NA
HETATM    5  C7  UNL     1      24.102   3.053  52.857  1.00  0.00     0.149 A 
HETATM    6  C14 UNL     1      23.176   2.070  52.493  1.00  0.00     0.107 A 
HETATM    7 CL1  UNL     1      23.597   0.373  52.584  1.00  0.00    -0.078 Cl
ENDROOT
BRANCH   5   8
HETATM    8  N3  UNL     1      25.405   2.706  53.311  1.00  0.00    -0.369 N 
HETATM    9  H11 UNL     1      25.571   2.675  54.340  1.00  0.00     0.161 HD
BRANCH   8  10
HETATM   10  C8  UNL     1      26.423   2.414  52.313  1.00  0.00     0.157 C 
BRANCH  10  11
HETATM   11  C9  UNL     1      27.533   1.664  52.909  1.00  0.00    -0.044 A 
HETATM   12  C10 UNL     1      28.559   2.254  53.500  1.00  0.00     0.092 A 
HETATM   13  N4  UNL     1      29.544   1.370  54.023  1.00  0.00    -0.375 N 
HETATM   14  C11 UNL     1      29.468  -0.048  53.938  1.00  0.00     0.084 A 
HETATM   15  H15 UNL     1      30.370   1.780  54.496  1.00  0.00     0.164 HD
HETATM   16  C12 UNL     1      28.397  -0.526  53.326  1.00  0.00    -0.005 A 
HETATM   17  C13 UNL     1      27.265   0.216  52.717  1.00  0.00     0.065 A 
ENDBRANCH  10  11
ENDBRANCH   8  10
ENDBRANCH   5   8
BRANCH   1  18
HETATM   18  C3  UNL     1      20.903   1.478  51.658  1.00  0.00     0.198 C 
BRANCH  18  19
HETATM   19  C2  UNL     1      19.797   1.154  52.569  1.00  0.00     0.205 C 
BRANCH  19  20
HETATM   20  O1  UNL     1      19.657  -0.112  52.994  1.00  0.00    -0.393 OA
HETATM   21  C1  UNL     1      18.503  -0.791  52.852  1.00  0.00     0.201 C 
ENDBRANCH  19  20
ENDBRANCH  18  19
BRANCH  18  22
HETATM   22  O2  UNL     1      20.390   1.740  50.359  1.00  0.00    -0.382 OA
HETATM   23  C4  UNL     1      21.189   1.013  49.485  1.00  0.00     0.202 C 
ENDBRANCH  18  22
ENDBRANCH   1  18
TORSDOF 7
ENDMDL
MODEL 9
REMARK VINA RESULT:      -5.9      3.306      7.029
REMARK  7 active torsions:
REMARK  status: ('A' for Active; 'I' for Inactive)
REMARK    1  A    between atoms: O1_2  and  C2_3 
REMARK    2  A    between atoms: C2_3  and  C3_4 
REMARK    3  A    between atoms: C3_4  and  O2_5 
REMARK    4  A    between atoms: C3_4  and  C5_7 
REMARK    5  A    between atoms: C7_11  and  N3_12 
REMARK    6  A    between atoms: N3_12  and  C8_13 
REMARK    7  A    between atoms: C8_13  and  C9_14 
ROOT
HETATM    1  C5  UNL     1      23.870   3.304  50.549  1.00  0.00     0.092 A 
HETATM    2  N1  UNL     1      22.957   2.978  51.510  1.00  0.00    -0.242 NA
HETATM    3  C6  UNL     1      23.460   2.469  52.656  1.00  0.00     0.235 A 
HETATM    4  N2  UNL     1      24.776   2.284  52.869  1.00  0.00    -0.223 NA
HETATM    5  C7  UNL     1      25.708   2.593  51.949  1.00  0.00     0.149 A 
HETATM    6  C14 UNL     1      25.254   3.123  50.737  1.00  0.00     0.107 A 
HETATM    7 CL1  UNL     1      26.386   3.558  49.475  1.00  0.00    -0.078 Cl
ENDROOT
BRANCH   5   8
HETATM    8  N3  UNL     1      27.096   2.390  52.190  1.00  0.00    -0.369 N 
HETATM    9  H11 UNL     1      27.761   2.597  51.414  1.00  0.00     0.161 HD
BRANCH   8  10
HETATM   10  C8  UNL     1      27.500   1.907  53.501  1.00  0.00     0.157 C 
BRANCH  10  11
HETATM   11  C9  UNL     1      27.991   0.527  53.417  1.00  0.00    -0.044 A 
HETATM   12  C10 UNL     1      27.198  -0.499  53.156  1.00  0.00     0.092 A 
HETATM   13  N4  UNL     1      27.846  -1.765  53.111  1.00  0.00    -0.375 N 
HETATM   14  C11 UNL     1      29.239  -1.955  53.325  1.00  0.00     0.084 A 
HETATM   15  H15 UNL     1      27.271  -2.604  52.911  1.00  0.00     0.164 HD
HETATM   16  C12 UNL     1      29.933  -0.858  53.578  1.00  0.00    -0.005 A 
HETATM   17  C13 UNL     1      29.454   0.545  53.667  1.00  0.00     0.065 A 
ENDBRANCH  10  11
ENDBRANCH   8  10
ENDBRANCH   5   8
BRANCH   1  18
HETATM   18  C3  UNL     1      23.350   3.856  49.304  1.00  0.00     0.198 C 
BRANCH  18  19
HETATM   19  C2  UNL     1      22.188   3.231  48.656  1.00  0.00     0.205 C 
BRANCH  19  20
HETATM   20  O1  UNL     1      22.283   1.955  48.249  1.00  0.00    -0.393 OA
HETATM   21  C1  UNL     1      21.508   0.981  48.762  1.00  0.00     0.201 C 
ENDBRANCH  19  20
ENDBRANCH  18  19
BRANCH  18  22
HETATM   22  O2  UNL     1      23.146   5.258  49.398  1.00  0.00    -0.382 OA
HETATM   23  C4  UNL     1      23.701   5.798  48.245  1.00  0.00     0.202 C 
ENDBRANCH  18  22
ENDBRANCH   1  18
TORSDOF 7
ENDMDL
