MODEL 1
REMARK VINA RESULT:      -8.1      0.000      0.000
REMARK  6 active torsions:
REMARK  status: ('A' for Active; 'I' for Inactive)
REMARK    1  A    between atoms: C2_2  and  C3_3 
REMARK    2  A    between atoms: C3_3  and  N1_4 
REMARK    3  A    between atoms: C3_3  and  C15_21 
REMARK    4  A    between atoms: N2_6  and  C5_7 
REMARK    5  A    between atoms: C11_14  and  O2_15 
REMARK    6  A    between atoms: C13_17  and  O3_18 
ROOT
HETATM    1  C5  UNL     1      21.980   0.773  51.939  1.00  0.00     0.202 C 
HETATM    2  C6  UNL     1      21.337   1.958  52.558  1.00  0.00     0.038 C 
HETATM    3  C7  UNL     1      20.042   2.251  52.229  1.00  0.00     0.015 C 
HETATM    4  C8  UNL     1      19.650   0.862  51.779  1.00  0.00     0.018 C 
HETATM    5  C9  UNL     1      18.914   0.050  52.615  1.00  0.00     0.146 C 
HETATM    6  O1  UNL     1      19.705  -0.830  53.413  1.00  0.00    -0.360 OA
HETATM    7  C10 UNL     1      21.072  -0.687  53.853  1.00  0.00     0.211 C 
HETATM    8  C11 UNL     1      22.001  -0.474  52.702  1.00  0.00     0.206 C 
HETATM    9  C13 UNL     1      20.240   0.559  50.404  1.00  0.00     0.299 C 
HETATM   10  O4  UNL     1      21.616   0.534  50.619  1.00  0.00    -0.319 OA
ENDROOT
BRANCH   1  11
HETATM   11  N2  UNL     1      23.397   1.188  51.769  1.00  0.00    -0.258 N 
HETATM   12  C4  UNL     1      23.833   2.301  52.251  1.00  0.00     0.198 A 
HETATM   13  N1  UNL     1      24.849   1.587  51.583  1.00  0.00    -0.150 NA
BRANCH  13  14
HETATM   14  C3  UNL     1      26.103   1.652  51.790  1.00  0.00     0.043 C 
BRANCH  14  15
HETATM   15  C2  UNL     1      26.312   2.839  51.004  1.00  0.00     0.000 C 
HETATM   16  C1  UNL     1      26.474   3.187  49.751  1.00  0.00     0.033 C 
ENDBRANCH  14  15
BRANCH  14  17
HETATM   17  C15 UNL     1      27.152   0.955  52.488  1.00  0.00    -0.013 A 
HETATM   18  C16 UNL     1      28.029   1.718  53.201  1.00  0.00     0.013 A 
HETATM   19  C17 UNL     1      29.048   1.120  53.886  1.00  0.00     0.001 A 
HETATM   20  C18 UNL     1      29.232  -0.245  53.889  1.00  0.00     0.007 A 
HETATM   21  C19 UNL     1      28.311  -0.954  53.149  1.00  0.00    -0.061 A 
HETATM   22  C20 UNL     1      28.477  -2.437  53.128  1.00  0.00     0.048 C 
HETATM   23  C21 UNL     1      27.270  -0.404  52.443  1.00  0.00     0.020 A 
ENDBRANCH  14  17
ENDBRANCH  13  14
ENDBRANCH   1  11
BRANCH   8  24
HETATM   24  O2  UNL     1      23.283  -0.759  53.164  1.00  0.00    -0.383 OA
HETATM   25  C12 UNL     1      23.323  -0.952  54.537  1.00  0.00     0.202 C 
ENDBRANCH   8  24
BRANCH   9  26
HETATM   26  O3  UNL     1      19.935   1.422  49.404  1.00  0.00    -0.362 OA
HETATM   27  C14 UNL     1      21.047   1.626  48.583  1.00  0.00     0.205 C 
ENDBRANCH   9  26
TORSDOF 6
ENDMDL
MODEL 2
REMARK VINA RESULT:      -8.0      1.497      2.955
REMARK  6 active torsions:
REMARK  status: ('A' for Active; 'I' for Inactive)
REMARK    1  A    between atoms: C2_2  and  C3_3 
REMARK    2  A    between atoms: C3_3  and  N1_4 
REMARK    3  A    between atoms: C3_3  and  C15_21 
REMARK    4  A    between atoms: N2_6  and  C5_7 
REMARK    5  A    between atoms: C11_14  and  O2_15 
REMARK    6  A    between atoms: C13_17  and  O3_18 
ROOT
HETATM    1  C5  UNL     1      22.115   1.802  52.219  1.00  0.00     0.202 C 
HETATM    2  C6  UNL     1      21.858   1.067  50.957  1.00  0.00     0.038 C 
HETATM    3  C7  UNL     1      20.767   0.245  50.884  1.00  0.00     0.015 C 
HETATM    4  C8  UNL     1      19.970   0.902  51.989  1.00  0.00     0.018 C 
HETATM    5  C9  UNL     1      18.940   1.762  51.676  1.00  0.00     0.146 C 
HETATM    6  O1  UNL     1      19.323   3.136  51.636  1.00  0.00    -0.360 OA
HETATM    7  C10 UNL     1      20.619   3.718  51.379  1.00  0.00     0.211 C 
HETATM    8  C11 UNL     1      21.656   3.187  52.314  1.00  0.00     0.206 C 
HETATM    9  C13 UNL     1      20.534   0.521  53.355  1.00  0.00     0.299 C 
HETATM   10  O4  UNL     1      21.801   1.102  53.378  1.00  0.00    -0.319 OA
ENDROOT
BRANCH   1  11
HETATM   11  N2  UNL     1      23.598   1.843  52.310  1.00  0.00    -0.258 N 
HETATM   12  C4  UNL     1      24.227   1.272  53.279  1.00  0.00     0.198 A 
HETATM   13  N1  UNL     1      25.113   1.898  52.378  1.00  0.00    -0.150 NA
BRANCH  13  14
HETATM   14  C3  UNL     1      26.328   1.594  52.153  1.00  0.00     0.043 C 
BRANCH  14  15
HETATM   15  C2  UNL     1      26.444   2.370  50.948  1.00  0.00     0.000 C 
HETATM   16  C1  UNL     1      26.011   3.500  50.445  1.00  0.00     0.033 C 
ENDBRANCH  14  15
BRANCH  14  17
HETATM   17  C15 UNL     1      27.398   0.810  52.712  1.00  0.00    -0.013 A 
HETATM   18  C16 UNL     1      28.378   1.490  53.375  1.00  0.00     0.013 A 
HETATM   19  C17 UNL     1      29.423   0.808  53.929  1.00  0.00     0.001 A 
HETATM   20  C18 UNL     1      29.534  -0.563  53.846  1.00  0.00     0.007 A 
HETATM   21  C19 UNL     1      28.512  -1.185  53.163  1.00  0.00    -0.061 A 
HETATM   22  C20 UNL     1      28.597  -2.671  53.052  1.00  0.00     0.048 C 
HETATM   23  C21 UNL     1      27.440  -0.549  52.589  1.00  0.00     0.020 A 
ENDBRANCH  14  17
ENDBRANCH  13  14
ENDBRANCH   1  11
BRANCH   8  24
HETATM   24  O2  UNL     1      22.726   4.076  52.273  1.00  0.00    -0.383 OA
HETATM   25  C12 UNL     1      22.386   5.291  51.696  1.00  0.00     0.202 C 
ENDBRANCH   8  24
BRANCH   9  26
HETATM   26  O3  UNL     1      20.619  -0.804  53.633  1.00  0.00    -0.362 OA
HETATM   27  C14 UNL     1      21.585  -1.032  54.616  1.00  0.00     0.205 C 
ENDBRANCH   9  26
TORSDOF 6
ENDMDL
MODEL 3
REMARK VINA RESULT:      -8.0      2.860      6.369
REMARK  6 active torsions:
REMARK  status: ('A' for Active; 'I' for Inactive)
REMARK    1  A    between atoms: C2_2  and  C3_3 
REMARK    2  A    between atoms: C3_3  and  N1_4 
REMARK    3  A    between atoms: C3_3  and  C15_21 
REMARK    4  A    between atoms: N2_6  and  C5_7 
REMARK    5  A    between atoms: C11_14  and  O2_15 
REMARK    6  A    between atoms: C13_17  and  O3_18 
ROOT
HETATM    1  C5  UNL     1      25.540   1.503  52.700  1.00  0.00     0.202 C 
HETATM    2  C6  UNL     1      25.996   0.276  52.002  1.00  0.00     0.038 C 
HETATM    3  C7  UNL     1      26.616  -0.703  52.730  1.00  0.00     0.015 C 
HETATM    4  C8  UNL     1      26.046  -0.317  54.077  1.00  0.00     0.018 C 
HETATM    5  C9  UNL     1      24.997  -1.033  54.611  1.00  0.00     0.146 C 
HETATM    6  O1  UNL     1      23.713  -0.484  54.321  1.00  0.00    -0.360 OA
HETATM    7  C10 UNL     1      23.300   0.348  53.215  1.00  0.00     0.211 C 
HETATM    8  C11 UNL     1      24.139   1.580  53.111  1.00  0.00     0.206 C 
HETATM    9  C13 UNL     1      26.742   0.932  54.613  1.00  0.00     0.299 C 
HETATM   10  O4  UNL     1      26.375   1.939  53.722  1.00  0.00    -0.319 OA
ENDROOT
BRANCH   1  11
HETATM   11  N2  UNL     1      25.744   2.579  51.694  1.00  0.00    -0.258 N 
HETATM   12  C4  UNL     1      26.797   2.613  50.953  1.00  0.00     0.198 A 
HETATM   13  N1  UNL     1      25.926   3.687  50.674  1.00  0.00    -0.150 NA
BRANCH  13  14
HETATM   14  C3  UNL     1      25.820   4.330  49.581  1.00  0.00     0.043 C 
BRANCH  14  15
HETATM   15  C2  UNL     1      24.699   3.576  49.085  1.00  0.00     0.000 C 
HETATM   16  C1  UNL     1      23.398   3.681  48.978  1.00  0.00     0.033 C 
ENDBRANCH  14  15
BRANCH  14  17
HETATM   17  C15 UNL     1      26.436   5.418  48.868  1.00  0.00    -0.013 A 
HETATM   18  C16 UNL     1      25.623   6.448  48.495  1.00  0.00     0.013 A 
HETATM   19  C17 UNL     1      26.143   7.512  47.815  1.00  0.00     0.001 A 
HETATM   20  C18 UNL     1      27.477   7.593  47.483  1.00  0.00     0.007 A 
HETATM   21  C19 UNL     1      28.240   6.520  47.890  1.00  0.00    -0.061 A 
HETATM   22  C20 UNL     1      29.692   6.571  47.548  1.00  0.00     0.048 C 
HETATM   23  C21 UNL     1      27.769   5.427  48.574  1.00  0.00     0.020 A 
ENDBRANCH  14  17
ENDBRANCH  13  14
ENDBRANCH   1  11
BRANCH   8  24
HETATM   24  O2  UNL     1      23.431   2.480  52.320  1.00  0.00    -0.383 OA
HETATM   25  C12 UNL     1      22.110   2.101  52.135  1.00  0.00     0.202 C 
ENDBRANCH   8  24
BRANCH   9  26
HETATM   26  O3  UNL     1      28.091   0.876  54.731  1.00  0.00    -0.362 OA
HETATM   27  C14 UNL     1      28.677   1.991  54.127  1.00  0.00     0.205 C 
ENDBRANCH   9  26
TORSDOF 6
ENDMDL
MODEL 4
REMARK VINA RESULT:      -7.8      3.021      6.804
REMARK  6 active torsions:
REMARK  status: ('A' for Active; 'I' for Inactive)
REMARK    1  A    between atoms: C2_2  and  C3_3 
REMARK    2  A    between atoms: C3_3  and  N1_4 
REMARK    3  A    between atoms: C3_3  and  C15_21 
REMARK    4  A    between atoms: N2_6  and  C5_7 
REMARK    5  A    between atoms: C11_14  and  O2_15 
REMARK    6  A    between atoms: C13_17  and  O3_18 
ROOT
HETATM    1  C5  UNL     1      25.624   1.632  52.575  1.00  0.00     0.202 C 
HETATM    2  C6  UNL     1      26.124   0.408  51.905  1.00  0.00     0.038 C 
HETATM    3  C7  UNL     1      26.757  -0.543  52.658  1.00  0.00     0.015 C 
HETATM    4  C8  UNL     1      26.154  -0.151  53.989  1.00  0.00     0.018 C 
HETATM    5  C9  UNL     1      25.116  -0.888  54.517  1.00  0.00     0.146 C 
HETATM    6  O1  UNL     1      23.822  -0.378  54.196  1.00  0.00    -0.360 OA
HETATM    7  C10 UNL     1      23.407   0.424  53.070  1.00  0.00     0.211 C 
HETATM    8  C11 UNL     1      24.214   1.677  52.961  1.00  0.00     0.206 C 
HETATM    9  C13 UNL     1      26.806   1.123  54.517  1.00  0.00     0.299 C 
HETATM   10  O4  UNL     1      26.428   2.106  53.605  1.00  0.00    -0.319 OA
ENDROOT
BRANCH   1  11
HETATM   11  N2  UNL     1      25.815   2.698  51.556  1.00  0.00    -0.258 N 
HETATM   12  C4  UNL     1      26.628   2.542  50.568  1.00  0.00     0.198 A 
HETATM   13  N1  UNL     1      25.992   3.800  50.528  1.00  0.00    -0.150 NA
BRANCH  13  14
HETATM   14  C3  UNL     1      25.769   4.520  49.503  1.00  0.00     0.043 C 
BRANCH  14  15
HETATM   15  C2  UNL     1      27.114   4.456  48.995  1.00  0.00     0.000 C 
HETATM   16  C1  UNL     1      28.024   5.249  48.485  1.00  0.00     0.033 C 
ENDBRANCH  14  15
BRANCH  14  17
HETATM   17  C15 UNL     1      24.700   5.241  48.863  1.00  0.00    -0.013 A 
HETATM   18  C16 UNL     1      23.520   4.575  48.701  1.00  0.00     0.013 A 
HETATM   19  C17 UNL     1      22.465   5.200  48.100  1.00  0.00     0.001 A 
HETATM   20  C18 UNL     1      22.540   6.497  47.644  1.00  0.00     0.007 A 
HETATM   21  C19 UNL     1      23.758   7.109  47.840  1.00  0.00    -0.061 A 
HETATM   22  C20 UNL     1      23.879   8.516  47.358  1.00  0.00     0.048 C 
HETATM   23  C21 UNL     1      24.850   6.528  48.436  1.00  0.00     0.020 A 
ENDBRANCH  14  17
ENDBRANCH  13  14
ENDBRANCH   1  11
BRANCH   8  24
HETATM   24  O2  UNL     1      23.496   2.546  52.144  1.00  0.00    -0.383 OA
HETATM   25  C12 UNL     1      22.190   2.125  51.938  1.00  0.00     0.202 C 
ENDBRANCH   8  24
BRANCH   9  26
HETATM   26  O3  UNL     1      28.155   1.107  54.660  1.00  0.00    -0.362 OA
HETATM   27  C14 UNL     1      28.725   2.199  54.002  1.00  0.00     0.205 C 
ENDBRANCH   9  26
TORSDOF 6
ENDMDL
MODEL 5
REMARK VINA RESULT:      -7.7      2.515      7.052
REMARK  6 active torsions:
REMARK  status: ('A' for Active; 'I' for Inactive)
REMARK    1  A    between atoms: C2_2  and  C3_3 
REMARK    2  A    between atoms: C3_3  and  N1_4 
REMARK    3  A    between atoms: C3_3  and  C15_21 
REMARK    4  A    between atoms: N2_6  and  C5_7 
REMARK    5  A    between atoms: C11_14  and  O2_15 
REMARK    6  A    between atoms: C13_17  and  O3_18 
ROOT
HETATM    1  C5  UNL     1      23.946   2.515  51.840  1.00  0.00     0.202 C 
HETATM    2  C6  UNL     1      23.698   2.215  50.409  1.00  0.00     0.038 C 
HETATM    3  C7  UNL     1      23.964   3.182  49.478  1.00  0.00     0.015 C 
HETATM    4  C8  UNL     1      24.950   3.971  50.312  1.00  0.00     0.018 C 
HETATM    5  C9  UNL     1      26.303   3.837  50.086  1.00  0.00     0.146 C 
HETATM    6  O1  UNL     1      26.936   2.866  50.918  1.00  0.00    -0.360 OA
HETATM    7  C10 UNL     1      26.372   1.706  51.564  1.00  0.00     0.211 C 
HETATM    8  C11 UNL     1      25.209   2.068  52.428  1.00  0.00     0.206 C 
HETATM    9  C13 UNL     1      24.219   4.783  51.378  1.00  0.00     0.299 C 
HETATM   10  O4  UNL     1      23.665   3.822  52.221  1.00  0.00    -0.319 OA
ENDROOT
BRANCH   1  11
HETATM   11  N2  UNL     1      22.867   1.778  52.549  1.00  0.00    -0.258 N 
HETATM   12  C4  UNL     1      21.669   2.248  52.621  1.00  0.00     0.198 A 
HETATM   13  N1  UNL     1      21.783   1.005  53.277  1.00  0.00    -0.150 NA
BRANCH  13  14
HETATM   14  C3  UNL     1      20.861   0.153  53.482  1.00  0.00     0.043 C 
BRANCH  14  15
HETATM   15  C2  UNL     1      21.471  -0.434  54.645  1.00  0.00     0.000 C 
HETATM   16  C1  UNL     1      22.463  -1.233  54.952  1.00  0.00     0.033 C 
ENDBRANCH  14  15
BRANCH  14  17
HETATM   17  C15 UNL     1      19.601  -0.275  52.931  1.00  0.00    -0.013 A 
HETATM   18  C16 UNL     1      18.893  -1.189  53.654  1.00  0.00     0.013 A 
HETATM   19  C17 UNL     1      17.690  -1.639  53.189  1.00  0.00     0.001 A 
HETATM   20  C18 UNL     1      17.150  -1.200  52.000  1.00  0.00     0.007 A 
HETATM   21  C19 UNL     1      17.917  -0.278  51.323  1.00  0.00    -0.061 A 
HETATM   22  C20 UNL     1      17.365   0.221  50.029  1.00  0.00     0.048 C 
HETATM   23  C21 UNL     1      19.130   0.206  51.744  1.00  0.00     0.020 A 
ENDBRANCH  14  17
ENDBRANCH  13  14
ENDBRANCH   1  11
BRANCH   8  24
HETATM   24  O2  UNL     1      25.008   1.001  53.298  1.00  0.00    -0.383 OA
HETATM   25  C12 UNL     1      25.836  -0.076  53.019  1.00  0.00     0.202 C 
ENDBRANCH   8  24
BRANCH   9  26
HETATM   26  O3  UNL     1      23.261   5.639  50.945  1.00  0.00    -0.362 OA
HETATM   27  C14 UNL     1      23.780   6.930  50.831  1.00  0.00     0.205 C 
ENDBRANCH   9  26
TORSDOF 6
ENDMDL
MODEL 6
REMARK VINA RESULT:      -7.5      3.695      6.196
REMARK  6 active torsions:
REMARK  status: ('A' for Active; 'I' for Inactive)
REMARK    1  A    between atoms: C2_2  and  C3_3 
REMARK    2  A    between atoms: C3_3  and  N1_4 
REMARK    3  A    between atoms: C3_3  and  C15_21 
REMARK    4  A    between atoms: N2_6  and  C5_7 
REMARK    5  A    between atoms: C11_14  and  O2_15 
REMARK    6  A    between atoms: C13_17  and  O3_18 
ROOT
HETATM    1  C5  UNL     1      25.180   5.224  49.494  1.00  0.00     0.202 C 
HETATM    2  C6  UNL     1      25.138   6.209  50.602  1.00  0.00     0.038 C 
HETATM    3  C7  UNL     1      25.646   7.462  50.389  1.00  0.00     0.015 C 
HETATM    4  C8  UNL     1      25.524   7.453  48.881  1.00  0.00     0.018 C 
HETATM    5  C9  UNL     1      24.485   8.123  48.271  1.00  0.00     0.146 C 
HETATM    6  O1  UNL     1      23.348   7.305  48.001  1.00  0.00    -0.360 OA
HETATM    7  C10 UNL     1      22.909   6.099  48.662  1.00  0.00     0.211 C 
HETATM    8  C11 UNL     1      23.979   5.058  48.676  1.00  0.00     0.206 C 
HETATM    9  C13 UNL     1      26.616   6.585  48.262  1.00  0.00     0.299 C 
HETATM   10  O4  UNL     1      26.313   5.294  48.692  1.00  0.00    -0.319 OA
ENDROOT
BRANCH   1  11
HETATM   11  N2  UNL     1      25.404   3.926  50.183  1.00  0.00    -0.258 N 
HETATM   12  C4  UNL     1      26.454   3.216  49.952  1.00  0.00     0.198 A 
HETATM   13  N1  UNL     1      25.609   2.605  50.900  1.00  0.00    -0.150 NA
BRANCH  13  14
HETATM   14  C3  UNL     1      25.941   1.785  51.814  1.00  0.00     0.043 C 
BRANCH  14  15
HETATM   15  C2  UNL     1      24.616   1.264  52.022  1.00  0.00     0.000 C 
HETATM   16  C1  UNL     1      23.692   1.235  52.950  1.00  0.00     0.033 C 
ENDBRANCH  14  15
BRANCH  14  17
HETATM   17  C15 UNL     1      27.102   1.345  52.544  1.00  0.00    -0.013 A 
HETATM   18  C16 UNL     1      27.805   2.301  53.216  1.00  0.00     0.013 A 
HETATM   19  C17 UNL     1      28.917   1.953  53.928  1.00  0.00     0.001 A 
HETATM   20  C18 UNL     1      29.368   0.654  54.000  1.00  0.00     0.007 A 
HETATM   21  C19 UNL     1      28.611  -0.260  53.300  1.00  0.00    -0.061 A 
HETATM   22  C20 UNL     1      29.068  -1.680  53.354  1.00  0.00     0.048 C 
HETATM   23  C21 UNL     1      27.487   0.036  52.569  1.00  0.00     0.020 A 
ENDBRANCH  14  17
ENDBRANCH  13  14
ENDBRANCH   1  11
BRANCH   8  24
HETATM   24  O2  UNL     1      23.355   3.843  48.941  1.00  0.00    -0.383 OA
HETATM   25  C12 UNL     1      22.406   3.512  47.984  1.00  0.00     0.202 C 
ENDBRANCH   8  24
BRANCH   9  26
HETATM   26  O3  UNL     1      27.897   6.898  48.575  1.00  0.00    -0.362 OA
HETATM   27  C14 UNL     1      28.742   5.822  48.292  1.00  0.00     0.205 C 
ENDBRANCH   9  26
TORSDOF 6
ENDMDL
MODEL 7
REMARK VINA RESULT:      -7.4      3.223      4.787
REMARK  6 active torsions:
REMARK  status: ('A' for Active; 'I' for Inactive)
REMARK    1  A    between atoms: C2_2  and  C3_3 
REMARK    2  A    between atoms: C3_3  and  N1_4 
REMARK    3  A    between atoms: C3_3  and  C15_21 
REMARK    4  A    between atoms: N2_6  and  C5_7 
REMARK    5  A    between atoms: C11_14  and  O2_15 
REMARK    6  A    between atoms: C13_17  and  O3_18 
ROOT
HETATM    1  C5  UNL     1      23.453   4.515  50.700  1.00  0.00     0.202 C 
HETATM    2  C6  UNL     1      23.892   5.539  51.679  1.00  0.00     0.038 C 
HETATM    3  C7  UNL     1      24.156   6.806  51.234  1.00  0.00     0.015 C 
HETATM    4  C8  UNL     1      23.321   6.733  49.975  1.00  0.00     0.018 C 
HETATM    5  C9  UNL     1      22.078   7.327  49.939  1.00  0.00     0.146 C 
HETATM    6  O1  UNL     1      21.004   6.446  50.263  1.00  0.00    -0.360 OA
HETATM    7  C10 UNL     1      21.014   5.247  51.067  1.00  0.00     0.211 C 
HETATM    8  C11 UNL     1      22.019   4.259  50.570  1.00  0.00     0.206 C 
HETATM    9  C13 UNL     1      24.027   5.895  48.912  1.00  0.00     0.299 C 
HETATM   10  O4  UNL     1      24.050   4.609  49.449  1.00  0.00    -0.319 OA
ENDROOT
BRANCH   1  11
HETATM   11  N2  UNL     1      24.061   3.257  51.208  1.00  0.00    -0.258 N 
HETATM   12  C4  UNL     1      25.086   2.728  50.633  1.00  0.00     0.198 A 
HETATM   13  N1  UNL     1      24.664   1.973  51.746  1.00  0.00    -0.150 NA
BRANCH  13  14
HETATM   14  C3  UNL     1      25.371   1.199  52.467  1.00  0.00     0.043 C 
BRANCH  14  15
HETATM   15  C2  UNL     1      24.288   0.330  52.842  1.00  0.00     0.000 C 
HETATM   16  C1  UNL     1      23.057   0.407  53.285  1.00  0.00     0.033 C 
ENDBRANCH  14  15
BRANCH  14  17
HETATM   17  C15 UNL     1      26.731   1.027  52.908  1.00  0.00    -0.013 A 
HETATM   18  C16 UNL     1      27.392   2.148  53.315  1.00  0.00     0.013 A 
HETATM   19  C17 UNL     1      28.685   2.056  53.745  1.00  0.00     0.001 A 
HETATM   20  C18 UNL     1      29.363   0.858  53.788  1.00  0.00     0.007 A 
HETATM   21  C19 UNL     1      28.635  -0.233  53.364  1.00  0.00    -0.061 A 
HETATM   22  C20 UNL     1      29.337  -1.550  53.395  1.00  0.00     0.048 C 
HETATM   23  C21 UNL     1      27.337  -0.196  52.922  1.00  0.00     0.020 A 
ENDBRANCH  14  17
ENDBRANCH  13  14
ENDBRANCH   1  11
BRANCH   8  24
HETATM   24  O2  UNL     1      21.676   3.027  51.118  1.00  0.00    -0.383 OA
HETATM   25  C12 UNL     1      20.695   3.134  52.093  1.00  0.00     0.202 C 
ENDBRANCH   8  24
BRANCH   9  26
HETATM   26  O3  UNL     1      25.278   6.281  48.560  1.00  0.00    -0.362 OA
HETATM   27  C14 UNL     1      25.224   7.405  47.734  1.00  0.00     0.205 C 
ENDBRANCH   9  26
TORSDOF 6
ENDMDL
MODEL 8
REMARK VINA RESULT:      -7.4      2.369      3.656
REMARK  6 active torsions:
REMARK  status: ('A' for Active; 'I' for Inactive)
REMARK    1  A    between atoms: C2_2  and  C3_3 
REMARK    2  A    between atoms: C3_3  and  N1_4 
REMARK    3  A    between atoms: C3_3  and  C15_21 
REMARK    4  A    between atoms: N2_6  and  C5_7 
REMARK    5  A    between atoms: C11_14  and  O2_15 
REMARK    6  A    between atoms: C13_17  and  O3_18 
ROOT
HETATM    1  C5  UNL     1      22.469   3.140  51.349  1.00  0.00     0.202 C 
HETATM    2  C6  UNL     1      22.752   4.341  52.171  1.00  0.00     0.038 C 
HETATM    3  C7  UNL     1      22.691   5.573  51.578  1.00  0.00     0.015 C 
HETATM    4  C8  UNL     1      21.789   5.178  50.430  1.00  0.00     0.018 C 
HETATM    5  C9  UNL     1      20.447   5.489  50.471  1.00  0.00     0.146 C 
HETATM    6  O1  UNL     1      19.626   4.446  50.994  1.00  0.00    -0.360 OA
HETATM    7  C10 UNL     1      19.969   3.379  51.904  1.00  0.00     0.211 C 
HETATM    8  C11 UNL     1      21.121   2.574  51.400  1.00  0.00     0.206 C 
HETATM    9  C13 UNL     1      22.571   4.387  49.384  1.00  0.00     0.299 C 
HETATM   10  O4  UNL     1      22.923   3.208  50.037  1.00  0.00    -0.319 OA
ENDROOT
BRANCH   1  11
HETATM   11  N2  UNL     1      23.380   2.106  51.908  1.00  0.00    -0.258 N 
HETATM   12  C4  UNL     1      24.343   1.612  51.208  1.00  0.00     0.198 A 
HETATM   13  N1  UNL     1      24.298   1.053  52.501  1.00  0.00    -0.150 NA
BRANCH  13  14
HETATM   14  C3  UNL     1      25.263   0.548  53.158  1.00  0.00     0.043 C 
BRANCH  14  15
HETATM   15  C2  UNL     1      24.476  -0.472  53.799  1.00  0.00     0.000 C 
HETATM   16  C1  UNL     1      23.228  -0.712  54.119  1.00  0.00     0.033 C 
ENDBRANCH  14  15
BRANCH  14  17
HETATM   17  C15 UNL     1      26.677   0.724  53.368  1.00  0.00    -0.013 A 
HETATM   18  C16 UNL     1      27.121   2.005  53.517  1.00  0.00     0.013 A 
HETATM   19  C17 UNL     1      28.451   2.243  53.719  1.00  0.00     0.001 A 
HETATM   20  C18 UNL     1      29.380   1.228  53.781  1.00  0.00     0.007 A 
HETATM   21  C19 UNL     1      28.862  -0.039  53.623  1.00  0.00    -0.061 A 
HETATM   22  C20 UNL     1      29.838  -1.166  53.683  1.00  0.00     0.048 C 
HETATM   23  C21 UNL     1      27.538  -0.334  53.417  1.00  0.00     0.020 A 
ENDBRANCH  14  17
ENDBRANCH  13  14
ENDBRANCH   1  11
BRANCH   8  24
HETATM   24  O2  UNL     1      21.107   1.371  52.099  1.00  0.00    -0.383 OA
HETATM   25  C12 UNL     1      20.043   0.558  51.735  1.00  0.00     0.202 C 
ENDBRANCH   8  24
BRANCH   9  26
HETATM   26  O3  UNL     1      23.671   4.984  48.863  1.00  0.00    -0.362 OA
HETATM   27  C14 UNL     1      23.300   5.975  47.951  1.00  0.00     0.205 C 
ENDBRANCH   9  26
TORSDOF 6
ENDMDL
MODEL 9
REMARK VINA RESULT:      -7.3      3.045      6.170
REMARK  6 active torsions:
REMARK  status: ('A' for Active; 'I' for Inactive)
REMARK    1  A    between atoms: C2_2  and  C3_3 
REMARK    2  A    between atoms: C3_3  and  N1_4 
REMARK    3  A    between atoms: C3_3  and  C15_21 
REMARK    4  A    between atoms: N2_6  and  C5_7 
REMARK    5  A    between atoms: C11_14  and  O2_15 
REMARK    6  A    between atoms: C13_17  and  O3_18 
ROOT
HETATM    1  C5  UNL     1      23.974   4.185  50.287  1.00  0.00     0.202 C 
HETATM    2  C6  UNL     1      23.833   5.294  51.262  1.00  0.00     0.038 C 
HETATM    3  C7  UNL     1      24.307   6.532  50.924  1.00  0.00     0.015 C 
HETATM    4  C8  UNL     1      24.272   6.337  49.425  1.00  0.00     0.018 C 
HETATM    5  C9  UNL     1      23.245   6.882  48.684  1.00  0.00     0.146 C 
HETATM    6  O1  UNL     1      22.156   5.990  48.457  1.00  0.00    -0.360 OA
HETATM    7  C10 UNL     1      21.724   4.855  49.237  1.00  0.00     0.211 C 
HETATM    8  C11 UNL     1      22.829   3.870  49.434  1.00  0.00     0.206 C 
HETATM    9  C13 UNL     1      25.427   5.448  48.974  1.00  0.00     0.299 C 
HETATM   10  O4  UNL     1      25.148   4.207  49.543  1.00  0.00    -0.319 OA
ENDROOT
BRANCH   1  11
HETATM   11  N2  UNL     1      24.206   2.990  51.141  1.00  0.00    -0.258 N 
HETATM   12  C4  UNL     1      24.376   3.098  52.414  1.00  0.00     0.198 A 
HETATM   13  N1  UNL     1      24.438   1.754  51.991  1.00  0.00    -0.150 NA
BRANCH  13  14
HETATM   14  C3  UNL     1      24.180   0.716  52.678  1.00  0.00     0.043 C 
BRANCH  14  15
HETATM   15  C2  UNL     1      25.547   0.282  52.792  1.00  0.00     0.000 C 
HETATM   16  C1  UNL     1      26.558  -0.038  52.022  1.00  0.00     0.033 C 
ENDBRANCH  14  15
BRANCH  14  17
HETATM   17  C15 UNL     1      23.062   0.013  53.253  1.00  0.00    -0.013 A 
HETATM   18  C16 UNL     1      23.333  -0.825  54.295  1.00  0.00     0.013 A 
HETATM   19  C17 UNL     1      22.319  -1.523  54.886  1.00  0.00     0.001 A 
HETATM   20  C18 UNL     1      21.010  -1.415  54.469  1.00  0.00     0.007 A 
HETATM   21  C19 UNL     1      20.809  -0.552  53.415  1.00  0.00    -0.061 A 
HETATM   22  C20 UNL     1      19.403  -0.408  52.935  1.00  0.00     0.048 C 
HETATM   23  C21 UNL     1      21.790   0.172  52.785  1.00  0.00     0.020 A 
ENDBRANCH  14  17
ENDBRANCH  13  14
ENDBRANCH   1  11
BRANCH   8  24
HETATM   24  O2  UNL     1      22.235   2.670  49.814  1.00  0.00    -0.383 OA
HETATM   25  C12 UNL     1      20.852   2.761  49.885  1.00  0.00     0.202 C 
ENDBRANCH   8  24
BRANCH   9  26
HETATM   26  O3  UNL     1      26.677   5.851  49.312  1.00  0.00    -0.362 OA
HETATM   27  C14 UNL     1      27.227   6.632  48.294  1.00  0.00     0.205 C 
ENDBRANCH   9  26
TORSDOF 6
ENDMDL
