MODEL 1
REMARK VINA RESULT:      -8.0      0.000      0.000
REMARK  6 active torsions:
REMARK  status: ('A' for Active; 'I' for Inactive)
REMARK    1  A    between atoms: O1_1  and  C1_2 
REMARK    2  A    between atoms: N1_5  and  C4_6 
REMARK    3  A    between atoms: C4_6  and  C5_7 
REMARK    4  A    between atoms: C4_6  and  C13_16 
REMARK    5  A    between atoms: C5_7  and  C6_8 
REMARK    6  A    between atoms: C6_8  and  C7_9 
ROOT
HETATM    1  C4  UNL     1      23.841  -0.044  53.457  1.00  0.00     0.113 C 
ENDROOT
BRANCH   1   2
HETATM    2  N1  UNL     1      23.161  -0.212  54.715  1.00  0.00    -0.217 NA
HETATM    3  C3  UNL     1      23.012  -1.566  55.146  1.00  0.00     0.146 C 
HETATM    4  C2  UNL     1      21.679  -1.946  54.610  1.00  0.00     0.046 C 
HETATM    5  C1  UNL     1      20.960  -0.898  54.232  1.00  0.00     0.147 C 
HETATM    6  N2  UNL     1      21.837   0.203  54.525  1.00  0.00    -0.299 N 
HETATM    7  H18 UNL     1      21.526   1.216  54.593  1.00  0.00     0.183 HD
BRANCH   5   8
HETATM    8  O1  UNL     1      19.687  -0.806  53.688  1.00  0.00    -0.346 OA
HETATM    9  H1  UNL     1      19.059  -1.602  53.702  1.00  0.00     0.219 HD
ENDBRANCH   5   8
ENDBRANCH   1   2
BRANCH   1  10
HETATM   10  C5  UNL     1      23.543   1.355  52.958  1.00  0.00     0.031 C 
BRANCH  10  11
HETATM   11  C6  UNL     1      23.288   1.343  51.466  1.00  0.00     0.040 C 
BRANCH  11  12
HETATM   12  C7  UNL     1      24.255   2.248  50.835  1.00  0.00    -0.058 A 
HETATM   13  C8  UNL     1      23.797   3.128  49.875  1.00  0.00     0.008 A 
HETATM   14  C9  UNL     1      24.668   3.993  49.258  1.00  0.00     0.019 A 
HETATM   15  C10 UNL     1      25.997   3.976  49.603  1.00  0.00     0.011 A 
HETATM   16 BR1  UNL     1      27.257   5.141  48.793  1.00  0.00    -0.051 Br
HETATM   17  C11 UNL     1      26.466   3.092  50.567  1.00  0.00     0.019 A 
HETATM   18  C12 UNL     1      25.586   2.224  51.185  1.00  0.00     0.008 A 
ENDBRANCH  11  12
ENDBRANCH  10  11
ENDBRANCH   1  10
BRANCH   1  19
HETATM   19  C13 UNL     1      25.313  -0.242  53.556  1.00  0.00    -0.038 A 
HETATM   20  C14 UNL     1      26.040   0.461  54.495  1.00  0.00     0.010 A 
HETATM   21  C15 UNL     1      27.415   0.236  54.544  1.00  0.00     0.024 A 
HETATM   22  C16 UNL     1      28.061  -0.651  53.699  1.00  0.00     0.034 A 
HETATM   23 CL1  UNL     1      29.775  -0.945  53.745  1.00  0.00    -0.084 Cl
HETATM   24  C17 UNL     1      27.324  -1.358  52.754  1.00  0.00     0.024 A 
HETATM   25  C18 UNL     1      25.970  -1.123  52.721  1.00  0.00     0.010 A 
ENDBRANCH   1  19
TORSDOF 6
ENDMDL
MODEL 2
REMARK VINA RESULT:      -7.9      4.204      6.483
REMARK  6 active torsions:
REMARK  status: ('A' for Active; 'I' for Inactive)
REMARK    1  A    between atoms: O1_1  and  C1_2 
REMARK    2  A    between atoms: N1_5  and  C4_6 
REMARK    3  A    between atoms: C4_6  and  C5_7 
REMARK    4  A    between atoms: C4_6  and  C13_16 
REMARK    5  A    between atoms: C5_7  and  C6_8 
REMARK    6  A    between atoms: C6_8  and  C7_9 
ROOT
HETATM    1  C4  UNL     1      25.928   1.315  53.297  1.00  0.00     0.113 C 
ENDROOT
BRANCH   1   2
HETATM    2  N1  UNL     1      26.934   1.853  54.175  1.00  0.00    -0.217 NA
HETATM    3  C3  UNL     1      28.082   2.396  53.521  1.00  0.00     0.146 C 
HETATM    4  C2  UNL     1      29.024   1.248  53.483  1.00  0.00     0.046 C 
HETATM    5  C1  UNL     1      28.670   0.267  54.303  1.00  0.00     0.147 C 
HETATM    6  N2  UNL     1      27.466   0.778  54.897  1.00  0.00    -0.299 N 
HETATM    7  H18 UNL     1      27.024   0.392  55.783  1.00  0.00     0.183 HD
BRANCH   5   8
HETATM    8  O1  UNL     1      29.257  -0.962  54.571  1.00  0.00    -0.346 OA
HETATM    9  H1  UNL     1      30.114  -1.020  55.109  1.00  0.00     0.219 HD
ENDBRANCH   5   8
ENDBRANCH   1   2
BRANCH   1  10
HETATM   10  C5  UNL     1      24.962   0.512  54.142  1.00  0.00     0.031 C 
BRANCH  10  11
HETATM   11  C6  UNL     1      24.505  -0.723  53.396  1.00  0.00     0.040 C 
BRANCH  11  12
HETATM   12  C7  UNL     1      23.040  -0.681  53.308  1.00  0.00    -0.058 A 
HETATM   13  C8  UNL     1      22.468   0.038  52.278  1.00  0.00     0.008 A 
HETATM   14  C9  UNL     1      21.101   0.105  52.159  1.00  0.00     0.019 A 
HETATM   15  C10 UNL     1      20.308  -0.549  53.071  1.00  0.00     0.011 A 
HETATM   16 BR1  UNL     1      18.414  -0.500  52.967  1.00  0.00    -0.051 Br
HETATM   17  C11 UNL     1      20.877  -1.273  54.110  1.00  0.00     0.019 A 
HETATM   18  C12 UNL     1      22.253  -1.337  54.227  1.00  0.00     0.008 A 
ENDBRANCH  11  12
ENDBRANCH  10  11
ENDBRANCH   1  10
BRANCH   1  19
HETATM   19  C13 UNL     1      25.188   2.364  52.542  1.00  0.00    -0.038 A 
HETATM   20  C14 UNL     1      25.389   2.503  51.183  1.00  0.00     0.010 A 
HETATM   21  C15 UNL     1      24.669   3.501  50.526  1.00  0.00     0.024 A 
HETATM   22  C16 UNL     1      23.781   4.338  51.179  1.00  0.00     0.034 A 
HETATM   23 CL1  UNL     1      22.875   5.588  50.376  1.00  0.00    -0.084 Cl
HETATM   24  C17 UNL     1      23.581   4.194  52.549  1.00  0.00     0.024 A 
HETATM   25  C18 UNL     1      24.299   3.206  53.178  1.00  0.00     0.010 A 
ENDBRANCH   1  19
TORSDOF 6
ENDMDL
MODEL 3
REMARK VINA RESULT:      -7.8      4.171      6.586
REMARK  6 active torsions:
REMARK  status: ('A' for Active; 'I' for Inactive)
REMARK    1  A    between atoms: O1_1  and  C1_2 
REMARK    2  A    between atoms: N1_5  and  C4_6 
REMARK    3  A    between atoms: C4_6  and  C5_7 
REMARK    4  A    between atoms: C4_6  and  C13_16 
REMARK    5  A    between atoms: C5_7  and  C6_8 
REMARK    6  A    between atoms: C6_8  and  C7_9 
ROOT
HETATM    1  C4  UNL     1      23.616   1.684  51.708  1.00  0.00     0.113 C 
ENDROOT
BRANCH   1   2
HETATM    2  N1  UNL     1      24.111   3.003  51.412  1.00  0.00    -0.217 NA
HETATM    3  C3  UNL     1      24.610   3.179  50.085  1.00  0.00     0.146 C 
HETATM    4  C2  UNL     1      26.060   2.891  50.228  1.00  0.00     0.046 C 
HETATM    5  C1  UNL     1      26.463   2.900  51.492  1.00  0.00     0.147 C 
HETATM    6  N2  UNL     1      25.250   3.201  52.203  1.00  0.00    -0.299 N 
HETATM    7  H18 UNL     1      25.213   3.536  53.210  1.00  0.00     0.183 HD
BRANCH   5   8
HETATM    8  O1  UNL     1      27.711   2.684  52.059  1.00  0.00    -0.346 OA
HETATM    9  H1  UNL     1      27.802   2.472  53.047  1.00  0.00     0.219 HD
ENDBRANCH   5   8
ENDBRANCH   1   2
BRANCH   1  10
HETATM   10  C5  UNL     1      23.777   1.456  53.197  1.00  0.00     0.031 C 
BRANCH  10  11
HETATM   11  C6  UNL     1      24.039  -0.007  53.484  1.00  0.00     0.040 C 
BRANCH  11  12
HETATM   12  C7  UNL     1      25.493  -0.203  53.534  1.00  0.00    -0.058 A 
HETATM   13  C8  UNL     1      26.203   0.427  54.536  1.00  0.00     0.008 A 
HETATM   14  C9  UNL     1      27.567   0.271  54.619  1.00  0.00     0.019 A 
HETATM   15  C10 UNL     1      28.216  -0.514  53.699  1.00  0.00     0.011 A 
HETATM   16 BR1  UNL     1      30.095  -0.774  53.753  1.00  0.00    -0.051 Br
HETATM   17  C11 UNL     1      27.508  -1.149  52.687  1.00  0.00     0.019 A 
HETATM   18  C12 UNL     1      26.137  -0.990  52.607  1.00  0.00     0.008 A 
ENDBRANCH  11  12
ENDBRANCH  10  11
ENDBRANCH   1  10
BRANCH   1  19
HETATM   19  C13 UNL     1      22.192   1.492  51.318  1.00  0.00    -0.038 A 
HETATM   20  C14 UNL     1      21.187   1.821  52.205  1.00  0.00     0.010 A 
HETATM   21  C15 UNL     1      19.871   1.621  51.787  1.00  0.00     0.024 A 
HETATM   22  C16 UNL     1      19.549   1.113  50.540  1.00  0.00     0.034 A 
HETATM   23 CL1  UNL     1      17.914   0.857  50.002  1.00  0.00    -0.084 Cl
HETATM   24  C17 UNL     1      20.566   0.783  49.649  1.00  0.00     0.024 A 
HETATM   25  C18 UNL     1      21.855   0.987  50.078  1.00  0.00     0.010 A 
ENDBRANCH   1  19
TORSDOF 6
ENDMDL
MODEL 4
REMARK VINA RESULT:      -7.4      3.751      5.450
REMARK  6 active torsions:
REMARK  status: ('A' for Active; 'I' for Inactive)
REMARK    1  A    between atoms: O1_1  and  C1_2 
REMARK    2  A    between atoms: N1_5  and  C4_6 
REMARK    3  A    between atoms: C4_6  and  C5_7 
REMARK    4  A    between atoms: C4_6  and  C13_16 
REMARK    5  A    between atoms: C5_7  and  C6_8 
REMARK    6  A    between atoms: C6_8  and  C7_9 
ROOT
HETATM    1  C4  UNL     1      24.303   1.974  51.861  1.00  0.00     0.113 C 
ENDROOT
BRANCH   1   2
HETATM    2  N1  UNL     1      25.301   0.956  52.060  1.00  0.00    -0.217 NA
HETATM    3  C3  UNL     1      25.576   0.635  53.424  1.00  0.00     0.146 C 
HETATM    4  C2  UNL     1      26.715   1.527  53.759  1.00  0.00     0.046 C 
HETATM    5  C1  UNL     1      27.294   2.045  52.684  1.00  0.00     0.147 C 
HETATM    6  N2  UNL     1      26.519   1.482  51.612  1.00  0.00    -0.299 N 
HETATM    7  H18 UNL     1      26.827   1.462  50.595  1.00  0.00     0.183 HD
BRANCH   5   8
HETATM    8  O1  UNL     1      28.370   2.912  52.548  1.00  0.00    -0.346 OA
HETATM    9  H1  UNL     1      29.285   2.564  52.287  1.00  0.00     0.219 HD
ENDBRANCH   5   8
ENDBRANCH   1   2
BRANCH   1  10
HETATM   10  C5  UNL     1      24.629   2.691  50.567  1.00  0.00     0.031 C 
BRANCH  10  11
HETATM   11  C6  UNL     1      24.506   4.189  50.746  1.00  0.00     0.040 C 
BRANCH  11  12
HETATM   12  C7  UNL     1      25.576   4.825  49.968  1.00  0.00    -0.058 A 
HETATM   13  C8  UNL     1      25.549   6.197  49.821  1.00  0.00     0.008 A 
HETATM   14  C9  UNL     1      26.531   6.834  49.100  1.00  0.00     0.019 A 
HETATM   15  C10 UNL     1      27.537   6.096  48.527  1.00  0.00     0.011 A 
HETATM   16 BR1  UNL     1      28.924   6.908  47.518  1.00  0.00    -0.051 Br
HETATM   17  C11 UNL     1      27.569   4.715  48.669  1.00  0.00     0.019 A 
HETATM   18  C12 UNL     1      26.580   4.079  49.395  1.00  0.00     0.008 A 
ENDBRANCH  11  12
ENDBRANCH  10  11
ENDBRANCH   1  10
BRANCH   1  19
HETATM   19  C13 UNL     1      22.917   1.432  51.803  1.00  0.00    -0.038 A 
HETATM   20  C14 UNL     1      22.339   1.154  50.581  1.00  0.00     0.010 A 
HETATM   21  C15 UNL     1      21.039   0.647  50.586  1.00  0.00     0.024 A 
HETATM   22  C16 UNL     1      20.327   0.421  51.751  1.00  0.00     0.034 A 
HETATM   23 CL1  UNL     1      18.705  -0.210  51.776  1.00  0.00    -0.084 Cl
HETATM   24  C17 UNL     1      20.914   0.702  52.981  1.00  0.00     0.024 A 
HETATM   25  C18 UNL     1      22.195   1.200  52.956  1.00  0.00     0.010 A 
ENDBRANCH   1  19
TORSDOF 6
ENDMDL
MODEL 5
REMARK VINA RESULT:      -7.4      3.792      5.533
REMARK  6 active torsions:
REMARK  status: ('A' for Active; 'I' for Inactive)
REMARK    1  A    between atoms: O1_1  and  C1_2 
REMARK    2  A    between atoms: N1_5  and  C4_6 
REMARK    3  A    between atoms: C4_6  and  C5_7 
REMARK    4  A    between atoms: C4_6  and  C13_16 
REMARK    5  A    between atoms: C5_7  and  C6_8 
REMARK    6  A    between atoms: C6_8  and  C7_9 
ROOT
HETATM    1  C4  UNL     1      24.656   0.436  52.897  1.00  0.00     0.113 C 
ENDROOT
BRANCH   1   2
HETATM    2  N1  UNL     1      25.775   0.373  53.799  1.00  0.00    -0.217 NA
HETATM    3  C3  UNL     1      27.003   0.886  53.280  1.00  0.00     0.146 C 
HETATM    4  C2  UNL     1      27.658  -0.320  52.710  1.00  0.00     0.046 C 
HETATM    5  C1  UNL     1      27.108  -1.451  53.131  1.00  0.00     0.147 C 
HETATM    6  N2  UNL     1      26.063  -0.982  54.001  1.00  0.00    -0.299 N 
HETATM    7  H18 UNL     1      25.564  -1.587  54.717  1.00  0.00     0.183 HD
BRANCH   5   8
HETATM    8  O1  UNL     1      27.406  -2.777  52.851  1.00  0.00    -0.346 OA
HETATM    9  H1  UNL     1      26.823  -3.316  52.220  1.00  0.00     0.219 HD
ENDBRANCH   5   8
ENDBRANCH   1   2
BRANCH   1  10
HETATM   10  C5  UNL     1      23.428  -0.024  53.654  1.00  0.00     0.031 C 
BRANCH  10  11
HETATM   11  C6  UNL     1      22.462  -0.725  52.723  1.00  0.00     0.040 C 
BRANCH  11  12
HETATM   12  C7  UNL     1      21.517   0.276  52.215  1.00  0.00    -0.058 A 
HETATM   13  C8  UNL     1      21.277   0.318  50.856  1.00  0.00     0.008 A 
HETATM   14  C9  UNL     1      20.400   1.240  50.338  1.00  0.00     0.019 A 
HETATM   15  C10 UNL     1      19.764   2.119  51.181  1.00  0.00     0.011 A 
HETATM   16 BR1  UNL     1      18.541   3.418  50.535  1.00  0.00    -0.051 Br
HETATM   17  C11 UNL     1      20.002   2.083  52.549  1.00  0.00     0.019 A 
HETATM   18  C12 UNL     1      20.885   1.154  53.066  1.00  0.00     0.008 A 
ENDBRANCH  11  12
ENDBRANCH  10  11
ENDBRANCH   1  10
BRANCH   1  19
HETATM   19  C13 UNL     1      24.427   1.800  52.343  1.00  0.00    -0.038 A 
HETATM   20  C14 UNL     1      24.080   2.835  53.188  1.00  0.00     0.010 A 
HETATM   21  C15 UNL     1      23.878   4.091  52.617  1.00  0.00     0.024 A 
HETATM   22  C16 UNL     1      24.010   4.327  51.259  1.00  0.00     0.034 A 
HETATM   23 CL1  UNL     1      23.763   5.886  50.528  1.00  0.00    -0.084 Cl
HETATM   24  C17 UNL     1      24.360   3.281  50.410  1.00  0.00     0.024 A 
HETATM   25  C18 UNL     1      24.555   2.051  50.992  1.00  0.00     0.010 A 
ENDBRANCH   1  19
TORSDOF 6
ENDMDL
MODEL 6
REMARK VINA RESULT:      -7.3      3.486      5.713
REMARK  6 active torsions:
REMARK  status: ('A' for Active; 'I' for Inactive)
REMARK    1  A    between atoms: O1_1  and  C1_2 
REMARK    2  A    between atoms: N1_5  and  C4_6 
REMARK    3  A    between atoms: C4_6  and  C5_7 
REMARK    4  A    between atoms: C4_6  and  C13_16 
REMARK    5  A    between atoms: C5_7  and  C6_8 
REMARK    6  A    between atoms: C6_8  and  C7_9 
ROOT
HETATM    1  C4  UNL     1      23.524   3.418  51.025  1.00  0.00     0.113 C 
ENDROOT
BRANCH   1   2
HETATM    2  N1  UNL     1      22.365   3.353  50.174  1.00  0.00    -0.217 NA
HETATM    3  C3  UNL     1      21.739   4.609  49.904  1.00  0.00     0.146 C 
HETATM    4  C2  UNL     1      20.702   4.704  50.964  1.00  0.00     0.046 C 
HETATM    5  C1  UNL     1      20.470   3.542  51.560  1.00  0.00     0.147 C 
HETATM    6  N2  UNL     1      21.376   2.657  50.879  1.00  0.00    -0.299 N 
HETATM    7  H18 UNL     1      21.310   1.597  50.903  1.00  0.00     0.183 HD
BRANCH   5   8
HETATM    8  O1  UNL     1      19.597   3.192  52.581  1.00  0.00    -0.346 OA
HETATM    9  H1  UNL     1      18.595   3.199  52.431  1.00  0.00     0.219 HD
ENDBRANCH   5   8
ENDBRANCH   1   2
BRANCH   1  10
HETATM   10  C5  UNL     1      23.805   2.017  51.526  1.00  0.00     0.031 C 
BRANCH  10  11
HETATM   11  C6  UNL     1      24.185   2.044  52.991  1.00  0.00     0.040 C 
BRANCH  11  12
HETATM   12  C7  UNL     1      25.499   1.405  53.128  1.00  0.00    -0.058 A 
HETATM   13  C8  UNL     1      25.635   0.096  52.714  1.00  0.00     0.008 A 
HETATM   14  C9  UNL     1      26.848  -0.541  52.825  1.00  0.00     0.019 A 
HETATM   15  C10 UNL     1      27.922   0.134  53.351  1.00  0.00     0.011 A 
HETATM   16 BR1  UNL     1      29.625  -0.682  53.535  1.00  0.00    -0.051 Br
HETATM   17  C11 UNL     1      27.791   1.451  53.772  1.00  0.00     0.019 A 
HETATM   18  C12 UNL     1      26.570   2.088  53.658  1.00  0.00     0.008 A 
ENDBRANCH  11  12
ENDBRANCH  10  11
ENDBRANCH   1  10
BRANCH   1  19
HETATM   19  C13 UNL     1      24.727   3.959  50.335  1.00  0.00    -0.038 A 
HETATM   20  C14 UNL     1      24.858   5.321  50.148  1.00  0.00     0.010 A 
HETATM   21  C15 UNL     1      26.005   5.773  49.497  1.00  0.00     0.024 A 
HETATM   22  C16 UNL     1      26.994   4.919  49.040  1.00  0.00     0.034 A 
HETATM   23 CL1  UNL     1      28.432   5.464  48.226  1.00  0.00    -0.084 Cl
HETATM   24  C17 UNL     1      26.859   3.547  49.230  1.00  0.00     0.024 A 
HETATM   25  C18 UNL     1      25.722   3.121  49.874  1.00  0.00     0.010 A 
ENDBRANCH   1  19
TORSDOF 6
ENDMDL
MODEL 7
REMARK VINA RESULT:      -7.3      2.128      2.984
REMARK  6 active torsions:
REMARK  status: ('A' for Active; 'I' for Inactive)
REMARK    1  A    between atoms: O1_1  and  C1_2 
REMARK    2  A    between atoms: N1_5  and  C4_6 
REMARK    3  A    between atoms: C4_6  and  C5_7 
REMARK    4  A    between atoms: C4_6  and  C13_16 
REMARK    5  A    between atoms: C5_7  and  C6_8 
REMARK    6  A    between atoms: C6_8  and  C7_9 
ROOT
HETATM    1  C4  UNL     1      24.966   1.685  51.916  1.00  0.00     0.113 C 
ENDROOT
BRANCH   1   2
HETATM    2  N1  UNL     1      24.014   1.916  52.969  1.00  0.00    -0.217 NA
HETATM    3  C3  UNL     1      23.183   0.799  53.291  1.00  0.00     0.146 C 
HETATM    4  C2  UNL     1      21.984   1.014  52.440  1.00  0.00     0.046 C 
HETATM    5  C1  UNL     1      21.914   2.245  51.953  1.00  0.00     0.147 C 
HETATM    6  N2  UNL     1      23.096   2.860  52.493  1.00  0.00    -0.299 N 
HETATM    7  H18 UNL     1      23.261   3.909  52.532  1.00  0.00     0.183 HD
BRANCH   5   8
HETATM    8  O1  UNL     1      20.979   2.855  51.129  1.00  0.00    -0.346 OA
HETATM    9  H1  UNL     1      21.242   3.632  50.533  1.00  0.00     0.219 HD
ENDBRANCH   5   8
ENDBRANCH   1   2
BRANCH   1  10
HETATM   10  C5  UNL     1      25.320   3.028  51.313  1.00  0.00     0.031 C 
BRANCH  10  11
HETATM   11  C6  UNL     1      25.414   2.926  49.806  1.00  0.00     0.040 C 
BRANCH  11  12
HETATM   12  C7  UNL     1      26.004   4.172  49.304  1.00  0.00    -0.058 A 
HETATM   13  C8  UNL     1      25.183   5.273  49.165  1.00  0.00     0.008 A 
HETATM   14  C9  UNL     1      25.694   6.461  48.698  1.00  0.00     0.019 A 
HETATM   15  C10 UNL     1      27.025   6.544  48.371  1.00  0.00     0.011 A 
HETATM   16 BR1  UNL     1      27.798   8.150  47.721  1.00  0.00    -0.051 Br
HETATM   17  C11 UNL     1      27.856   5.440  48.508  1.00  0.00     0.019 A 
HETATM   18  C12 UNL     1      27.339   4.247  48.978  1.00  0.00     0.008 A 
ENDBRANCH  11  12
ENDBRANCH  10  11
ENDBRANCH   1  10
BRANCH   1  19
HETATM   19  C13 UNL     1      26.202   1.000  52.384  1.00  0.00    -0.038 A 
HETATM   20  C14 UNL     1      26.253  -0.379  52.418  1.00  0.00     0.010 A 
HETATM   21  C15 UNL     1      27.436  -0.969  52.865  1.00  0.00     0.024 A 
HETATM   22  C16 UNL     1      28.536  -0.230  53.268  1.00  0.00     0.034 A 
HETATM   23 CL1  UNL     1      30.019  -0.947  53.827  1.00  0.00    -0.084 Cl
HETATM   24  C17 UNL     1      28.481   1.160  53.231  1.00  0.00     0.024 A 
HETATM   25  C18 UNL     1      27.307   1.722  52.788  1.00  0.00     0.010 A 
ENDBRANCH   1  19
TORSDOF 6
ENDMDL
MODEL 8
REMARK VINA RESULT:      -7.3      3.966      6.424
REMARK  6 active torsions:
REMARK  status: ('A' for Active; 'I' for Inactive)
REMARK    1  A    between atoms: O1_1  and  C1_2 
REMARK    2  A    between atoms: N1_5  and  C4_6 
REMARK    3  A    between atoms: C4_6  and  C5_7 
REMARK    4  A    between atoms: C4_6  and  C13_16 
REMARK    5  A    between atoms: C5_7  and  C6_8 
REMARK    6  A    between atoms: C6_8  and  C7_9 
ROOT
HETATM    1  C4  UNL     1      22.490   0.783  52.262  1.00  0.00     0.113 C 
ENDROOT
BRANCH   1   2
HETATM    2  N1  UNL     1      22.666   2.180  51.964  1.00  0.00    -0.217 NA
HETATM    3  C3  UNL     1      23.143   2.464  50.648  1.00  0.00     0.146 C 
HETATM    4  C2  UNL     1      24.616   2.528  50.828  1.00  0.00     0.046 C 
HETATM    5  C1  UNL     1      24.973   2.638  52.101  1.00  0.00     0.147 C 
HETATM    6  N2  UNL     1      23.705   2.646  52.779  1.00  0.00    -0.299 N 
HETATM    7  H18 UNL     1      23.564   2.967  53.782  1.00  0.00     0.183 HD
BRANCH   5   8
HETATM    8  O1  UNL     1      26.221   2.726  52.700  1.00  0.00    -0.346 OA
HETATM    9  H1  UNL     1      26.379   2.345  53.626  1.00  0.00     0.219 HD
ENDBRANCH   5   8
ENDBRANCH   1   2
BRANCH   1  10
HETATM   10  C5  UNL     1      23.055   0.533  53.645  1.00  0.00     0.031 C 
BRANCH  10  11
HETATM   11  C6  UNL     1      23.722  -0.824  53.708  1.00  0.00     0.040 C 
BRANCH  11  12
HETATM   12  C7  UNL     1      25.174  -0.613  53.719  1.00  0.00    -0.058 A 
HETATM   13  C8  UNL     1      25.892  -0.952  52.589  1.00  0.00     0.008 A 
HETATM   14  C9  UNL     1      27.254  -0.771  52.556  1.00  0.00     0.019 A 
HETATM   15  C10 UNL     1      27.895  -0.252  53.653  1.00  0.00     0.011 A 
HETATM   16 BR1  UNL     1      29.772   0.024  53.678  1.00  0.00    -0.051 Br
HETATM   17  C11 UNL     1      27.180   0.090  54.794  1.00  0.00     0.019 A 
HETATM   18  C12 UNL     1      25.810  -0.093  54.823  1.00  0.00     0.008 A 
ENDBRANCH  11  12
ENDBRANCH  10  11
ENDBRANCH   1  10
BRANCH   1  19
HETATM   19  C13 UNL     1      21.067   0.348  52.211  1.00  0.00    -0.038 A 
HETATM   20  C14 UNL     1      20.310   0.605  51.085  1.00  0.00     0.010 A 
HETATM   21  C15 UNL     1      18.983   0.175  51.091  1.00  0.00     0.024 A 
HETATM   22  C16 UNL     1      18.414  -0.486  52.166  1.00  0.00     0.034 A 
HETATM   23 CL1  UNL     1      16.761  -1.029  52.191  1.00  0.00    -0.084 Cl
HETATM   24  C17 UNL     1      19.180  -0.743  53.299  1.00  0.00     0.024 A 
HETATM   25  C18 UNL     1      20.485  -0.312  53.274  1.00  0.00     0.010 A 
ENDBRANCH   1  19
TORSDOF 6
ENDMDL
MODEL 9
REMARK VINA RESULT:      -7.2      3.806      5.814
REMARK  6 active torsions:
REMARK  status: ('A' for Active; 'I' for Inactive)
REMARK    1  A    between atoms: O1_1  and  C1_2 
REMARK    2  A    between atoms: N1_5  and  C4_6 
REMARK    3  A    between atoms: C4_6  and  C5_7 
REMARK    4  A    between atoms: C4_6  and  C13_16 
REMARK    5  A    between atoms: C5_7  and  C6_8 
REMARK    6  A    between atoms: C6_8  and  C7_9 
ROOT
HETATM    1  C4  UNL     1      25.344   2.433  51.405  1.00  0.00     0.113 C 
ENDROOT
BRANCH   1   2
HETATM    2  N1  UNL     1      25.593   2.661  50.006  1.00  0.00    -0.217 NA
HETATM    3  C3  UNL     1      26.629   3.603  49.722  1.00  0.00     0.146 C 
HETATM    4  C2  UNL     1      25.892   4.886  49.589  1.00  0.00     0.046 C 
HETATM    5  C1  UNL     1      24.585   4.714  49.444  1.00  0.00     0.147 C 
HETATM    6  N2  UNL     1      24.454   3.283  49.482  1.00  0.00    -0.299 N 
HETATM    7  H18 UNL     1      23.596   2.751  49.152  1.00  0.00     0.183 HD
BRANCH   5   8
HETATM    8  O1  UNL     1      23.550   5.627  49.291  1.00  0.00    -0.346 OA
HETATM    9  H1  UNL     1      22.753   5.412  48.702  1.00  0.00     0.219 HD
ENDBRANCH   5   8
ENDBRANCH   1   2
BRANCH   1  10
HETATM   10  C5  UNL     1      24.009   1.726  51.524  1.00  0.00     0.031 C 
BRANCH  10  11
HETATM   11  C6  UNL     1      23.476   1.835  52.937  1.00  0.00     0.040 C 
BRANCH  11  12
HETATM   12  C7  UNL     1      22.217   1.084  53.003  1.00  0.00    -0.058 A 
HETATM   13  C8  UNL     1      21.261   1.324  52.036  1.00  0.00     0.008 A 
HETATM   14  C9  UNL     1      20.068   0.642  52.060  1.00  0.00     0.019 A 
HETATM   15  C10 UNL     1      19.833  -0.277  53.053  1.00  0.00     0.011 A 
HETATM   16 BR1  UNL     1      18.209  -1.254  53.148  1.00  0.00    -0.051 Br
HETATM   17  C11 UNL     1      20.789  -0.522  54.030  1.00  0.00     0.019 A 
HETATM   18  C12 UNL     1      21.988   0.165  54.001  1.00  0.00     0.008 A 
ENDBRANCH  11  12
ENDBRANCH  10  11
ENDBRANCH   1  10
BRANCH   1  19
HETATM   19  C13 UNL     1      26.405   1.623  52.064  1.00  0.00    -0.038 A 
HETATM   20  C14 UNL     1      27.412   2.252  52.767  1.00  0.00     0.010 A 
HETATM   21  C15 UNL     1      28.380   1.445  53.366  1.00  0.00     0.024 A 
HETATM   22  C16 UNL     1      28.362   0.063  53.278  1.00  0.00     0.034 A 
HETATM   23 CL1  UNL     1      29.560  -0.960  54.017  1.00  0.00    -0.084 Cl
HETATM   24  C17 UNL     1      27.345  -0.567  52.569  1.00  0.00     0.024 A 
HETATM   25  C18 UNL     1      26.401   0.245  51.986  1.00  0.00     0.010 A 
ENDBRANCH   1  19
TORSDOF 6
ENDMDL
