MODEL 1
REMARK VINA RESULT:      -6.6      0.000      0.000
REMARK  4 active torsions:
REMARK  status: ('A' for Active; 'I' for Inactive)
REMARK       I    between atoms: N1_3  and  C3_4 
REMARK    1  A    between atoms: C3_4  and  C4_6 
REMARK    2  A    between atoms: C4_6  and  C5_7 
REMARK       I    between atoms: C5_7  and  N2_9 
REMARK    3  A    between atoms: N2_9  and  C6_10 
REMARK    4  A    between atoms: C9_13  and  N3_14 
ROOT
HETATM    1  C1  UNL     1      30.028  -0.562  53.472  1.00  0.00     0.032 C 
HETATM    2  C2  UNL     1      28.798  -0.520  53.872  1.00  0.00     0.081 C 
HETATM    3  N1  UNL     1      27.514  -0.422  54.466  1.00  0.00    -0.340 N 
HETATM    4  C3  UNL     1      26.481  -0.763  53.556  1.00  0.00     0.230 C 
HETATM    5  O1  UNL     1      26.787  -1.103  52.364  1.00  0.00    -0.273 OA
HETATM    6  H4  UNL     1      27.273  -0.145  55.437  1.00  0.00     0.167 HD
ENDROOT
BRANCH   4   7
HETATM    7  C4  UNL     1      25.050  -0.762  53.854  1.00  0.00     0.206 C 
BRANCH   7   8
HETATM    8  C5  UNL     1      24.287   0.368  53.284  1.00  0.00     0.231 C 
HETATM    9  O2  UNL     1      23.061   0.656  53.407  1.00  0.00    -0.273 OA
HETATM   10  N2  UNL     1      24.934   1.328  52.461  1.00  0.00    -0.327 N 
HETATM   11  H7  UNL     1      25.943   1.308  52.209  1.00  0.00     0.169 HD
BRANCH  10  12
HETATM   12  C6  UNL     1      24.101   2.381  51.963  1.00  0.00     0.034 A 
HETATM   13  C7  UNL     1      23.930   3.539  52.690  1.00  0.00     0.032 A 
HETATM   14  C8  UNL     1      23.142   4.545  52.229  1.00  0.00     0.031 A 
HETATM   15  C9  UNL     1      22.500   4.411  51.017  1.00  0.00     0.030 A 
HETATM   16  C15 UNL     1      22.703   3.237  50.332  1.00  0.00     0.031 A 
HETATM   17  C16 UNL     1      23.499   2.160  50.741  1.00  0.00     0.032 A 
BRANCH  15  18
HETATM   18  N3  UNL     1      21.666   5.434  50.491  1.00  0.00    -0.378 N 
HETATM   19  C10 UNL     1      22.102   6.795  50.730  1.00  0.00     0.153 C 
HETATM   20  C11 UNL     1      21.089   7.822  50.339  1.00  0.00     0.291 C 
HETATM   21  N4  UNL     1      20.261   7.437  49.227  1.00  0.00     0.087 N 
HETATM   22  C12 UNL     1      21.105   7.278  48.064  1.00  0.00     0.310 C 
HETATM   23  C13 UNL     1      19.540   6.247  49.589  1.00  0.00     0.291 C 
HETATM   24  C14 UNL     1      20.467   5.061  49.771  1.00  0.00     0.153 C 
ENDBRANCH  15  18
ENDBRANCH  10  12
ENDBRANCH   7   8
ENDBRANCH   4   7
TORSDOF 4
ENDMDL
MODEL 2
REMARK VINA RESULT:      -6.5      1.265      1.737
REMARK  4 active torsions:
REMARK  status: ('A' for Active; 'I' for Inactive)
REMARK       I    between atoms: N1_3  and  C3_4 
REMARK    1  A    between atoms: C3_4  and  C4_6 
REMARK    2  A    between atoms: C4_6  and  C5_7 
REMARK       I    between atoms: C5_7  and  N2_9 
REMARK    3  A    between atoms: N2_9  and  C6_10 
REMARK    4  A    between atoms: C9_13  and  N3_14 
ROOT
HETATM    1  C1  UNL     1      30.158  -0.821  53.804  1.00  0.00     0.032 C 
HETATM    2  C2  UNL     1      28.877  -0.930  53.653  1.00  0.00     0.081 C 
HETATM    3  N1  UNL     1      27.509  -1.178  53.374  1.00  0.00    -0.340 N 
HETATM    4  C3  UNL     1      26.652  -0.325  54.115  1.00  0.00     0.230 C 
HETATM    5  O1  UNL     1      27.163   0.530  54.914  1.00  0.00    -0.273 OA
HETATM    6  H4  UNL     1      27.101  -1.876  52.722  1.00  0.00     0.167 HD
ENDROOT
BRANCH   4   7
HETATM    7  C4  UNL     1      25.192  -0.328  54.058  1.00  0.00     0.206 C 
BRANCH   7   8
HETATM    8  C5  UNL     1      24.589   0.764  53.264  1.00  0.00     0.231 C 
HETATM    9  O2  UNL     1      23.481   0.800  52.653  1.00  0.00    -0.273 OA
HETATM   10  N2  UNL     1      25.277   1.997  53.103  1.00  0.00    -0.327 N 
HETATM   11  H7  UNL     1      26.209   2.212  53.510  1.00  0.00     0.169 HD
BRANCH  10  12
HETATM   12  C6  UNL     1      24.601   2.986  52.318  1.00  0.00     0.034 A 
HETATM   13  C7  UNL     1      24.713   2.983  50.944  1.00  0.00     0.032 A 
HETATM   14  C8  UNL     1      24.078   3.916  50.188  1.00  0.00     0.031 A 
HETATM   15  C9  UNL     1      23.308   4.883  50.798  1.00  0.00     0.030 A 
HETATM   16  C15 UNL     1      23.228   4.841  52.169  1.00  0.00     0.031 A 
HETATM   17  C16 UNL     1      23.852   3.914  53.013  1.00  0.00     0.032 A 
BRANCH  15  18
HETATM   18  N3  UNL     1      22.623   5.878  50.052  1.00  0.00    -0.378 N 
HETATM   19  C10 UNL     1      21.676   6.688  50.791  1.00  0.00     0.153 C 
HETATM   20  C11 UNL     1      20.840   7.571  49.920  1.00  0.00     0.291 C 
HETATM   21  N4  UNL     1      21.507   8.021  48.728  1.00  0.00     0.087 N 
HETATM   22  C12 UNL     1      22.639   8.833  49.116  1.00  0.00     0.310 C 
HETATM   23  C13 UNL     1      21.862   6.867  47.945  1.00  0.00     0.291 C 
HETATM   24  C14 UNL     1      22.908   6.016  48.639  1.00  0.00     0.153 C 
ENDBRANCH  15  18
ENDBRANCH  10  12
ENDBRANCH   7   8
ENDBRANCH   4   7
TORSDOF 4
ENDMDL
MODEL 3
REMARK VINA RESULT:      -6.4      4.688      9.078
REMARK  4 active torsions:
REMARK  status: ('A' for Active; 'I' for Inactive)
REMARK       I    between atoms: N1_3  and  C3_4 
REMARK    1  A    between atoms: C3_4  and  C4_6 
REMARK    2  A    between atoms: C4_6  and  C5_7 
REMARK       I    between atoms: C5_7  and  N2_9 
REMARK    3  A    between atoms: N2_9  and  C6_10 
REMARK    4  A    between atoms: C9_13  and  N3_14 
ROOT
HETATM    1  C1  UNL     1      13.534   4.382  53.767  1.00  0.00     0.032 C 
HETATM    2  C2  UNL     1      14.380   3.743  53.024  1.00  0.00     0.081 C 
HETATM    3  N1  UNL     1      15.368   3.201  52.162  1.00  0.00    -0.340 N 
HETATM    4  C3  UNL     1      15.346   1.783  52.155  1.00  0.00     0.230 C 
HETATM    5  O1  UNL     1      14.493   1.169  52.879  1.00  0.00    -0.273 OA
HETATM    6  H4  UNL     1      16.058   3.707  51.575  1.00  0.00     0.167 HD
ENDROOT
BRANCH   4   7
HETATM    7  C4  UNL     1      16.234   0.923  51.375  1.00  0.00     0.206 C 
BRANCH   7   8
HETATM    8  C5  UNL     1      17.670   1.035  51.704  1.00  0.00     0.231 C 
HETATM    9  O2  UNL     1      18.389   2.069  51.835  1.00  0.00    -0.273 OA
HETATM   10  N2  UNL     1      18.449  -0.133  51.925  1.00  0.00    -0.327 N 
HETATM   11  H7  UNL     1      18.085  -1.105  51.873  1.00  0.00     0.169 HD
BRANCH  10  12
HETATM   12  C6  UNL     1      19.828   0.092  52.239  1.00  0.00     0.034 A 
HETATM   13  C7  UNL     1      20.738   0.357  51.239  1.00  0.00     0.032 A 
HETATM   14  C8  UNL     1      22.049   0.571  51.523  1.00  0.00     0.031 A 
HETATM   15  C9  UNL     1      22.482   0.524  52.831  1.00  0.00     0.030 A 
HETATM   16  C15 UNL     1      21.535   0.257  53.791  1.00  0.00     0.031 A 
HETATM   17  C16 UNL     1      20.171   0.026  53.575  1.00  0.00     0.032 A 
BRANCH  15  18
HETATM   18  N3  UNL     1      23.841   0.742  53.180  1.00  0.00    -0.378 N 
HETATM   19  C10 UNL     1      24.528  -0.377  53.794  1.00  0.00     0.153 C 
HETATM   20  C11 UNL     1      25.881  -0.027  54.326  1.00  0.00     0.291 C 
HETATM   21  N4  UNL     1      26.553   1.007  53.585  1.00  0.00     0.087 N 
HETATM   22  C12 UNL     1      26.788   0.527  52.241  1.00  0.00     0.310 C 
HETATM   23  C13 UNL     1      25.752   2.201  53.644  1.00  0.00     0.291 C 
HETATM   24  C14 UNL     1      24.437   2.033  52.908  1.00  0.00     0.153 C 
ENDBRANCH  15  18
ENDBRANCH  10  12
ENDBRANCH   7   8
ENDBRANCH   4   7
TORSDOF 4
ENDMDL
MODEL 4
REMARK VINA RESULT:      -6.2      3.298      3.909
REMARK  4 active torsions:
REMARK  status: ('A' for Active; 'I' for Inactive)
REMARK       I    between atoms: N1_3  and  C3_4 
REMARK    1  A    between atoms: C3_4  and  C4_6 
REMARK    2  A    between atoms: C4_6  and  C5_7 
REMARK       I    between atoms: C5_7  and  N2_9 
REMARK    3  A    between atoms: N2_9  and  C6_10 
REMARK    4  A    between atoms: C9_13  and  N3_14 
ROOT
HETATM    1  C1  UNL     1      29.146   2.403  53.865  1.00  0.00     0.032 C 
HETATM    2  C2  UNL     1      28.072   1.750  53.558  1.00  0.00     0.081 C 
HETATM    3  N1  UNL     1      26.885   1.137  53.079  1.00  0.00    -0.340 N 
HETATM    4  C3  UNL     1      26.441   0.098  53.936  1.00  0.00     0.230 C 
HETATM    5  O1  UNL     1      27.110  -0.170  54.990  1.00  0.00    -0.273 OA
HETATM    6  H4  UNL     1      26.346   1.361  52.221  1.00  0.00     0.167 HD
ENDROOT
BRANCH   4   7
HETATM    7  C4  UNL     1      25.254  -0.728  53.726  1.00  0.00     0.206 C 
BRANCH   7   8
HETATM    8  C5  UNL     1      24.051  -0.000  53.271  1.00  0.00     0.231 C 
HETATM    9  O2  UNL     1      23.892   1.236  53.052  1.00  0.00    -0.273 OA
HETATM   10  N2  UNL     1      22.842  -0.701  53.016  1.00  0.00    -0.327 N 
HETATM   11  H7  UNL     1      22.719  -1.728  53.125  1.00  0.00     0.169 HD
BRANCH  10  12
HETATM   12  C6  UNL     1      21.740   0.102  52.579  1.00  0.00     0.034 A 
HETATM   13  C7  UNL     1      20.968   0.786  53.492  1.00  0.00     0.032 A 
HETATM   14  C8  UNL     1      19.920   1.551  53.090  1.00  0.00     0.031 A 
HETATM   15  C9  UNL     1      19.618   1.647  51.749  1.00  0.00     0.030 A 
HETATM   16  C15 UNL     1      20.418   0.946  50.879  1.00  0.00     0.031 A 
HETATM   17  C16 UNL     1      21.512   0.141  51.217  1.00  0.00     0.032 A 
BRANCH  15  18
HETATM   18  N3  UNL     1      18.534   2.434  51.278  1.00  0.00    -0.378 N 
HETATM   19  C10 UNL     1      17.274   1.740  51.098  1.00  0.00     0.153 C 
HETATM   20  C11 UNL     1      16.233   2.563  50.409  1.00  0.00     0.291 C 
HETATM   21  N4  UNL     1      16.331   3.974  50.673  1.00  0.00     0.087 N 
HETATM   22  C12 UNL     1      16.110   4.191  52.085  1.00  0.00     0.310 C 
HETATM   23  C13 UNL     1      17.612   4.435  50.207  1.00  0.00     0.291 C 
HETATM   24  C14 UNL     1      18.750   3.841  51.014  1.00  0.00     0.153 C 
ENDBRANCH  15  18
ENDBRANCH  10  12
ENDBRANCH   7   8
ENDBRANCH   4   7
TORSDOF 4
ENDMDL
MODEL 5
REMARK VINA RESULT:      -6.1      2.931      8.656
REMARK  4 active torsions:
REMARK  status: ('A' for Active; 'I' for Inactive)
REMARK       I    between atoms: N1_3  and  C3_4 
REMARK    1  A    between atoms: C3_4  and  C4_6 
REMARK    2  A    between atoms: C4_6  and  C5_7 
REMARK       I    between atoms: C5_7  and  N2_9 
REMARK    3  A    between atoms: N2_9  and  C6_10 
REMARK    4  A    between atoms: C9_13  and  N3_14 
ROOT
HETATM    1  C1  UNL     1      14.757   3.515  52.372  1.00  0.00     0.032 C 
HETATM    2  C2  UNL     1      15.712   3.983  51.635  1.00  0.00     0.081 C 
HETATM    3  N1  UNL     1      16.633   4.582  50.738  1.00  0.00    -0.340 N 
HETATM    4  C3  UNL     1      17.972   4.206  51.022  1.00  0.00     0.230 C 
HETATM    5  O1  UNL     1      18.203   3.414  51.997  1.00  0.00    -0.273 OA
HETATM    6  H4  UNL     1      16.438   5.224  49.947  1.00  0.00     0.167 HD
ENDROOT
BRANCH   4   7
HETATM    7  C4  UNL     1      19.154   4.650  50.287  1.00  0.00     0.206 C 
BRANCH   7   8
HETATM    8  C5  UNL     1      20.409   3.948  50.628  1.00  0.00     0.231 C 
HETATM    9  O2  UNL     1      21.154   3.228  49.900  1.00  0.00    -0.273 OA
HETATM   10  N2  UNL     1      20.944   4.031  51.942  1.00  0.00    -0.327 N 
HETATM   11  H7  UNL     1      20.512   4.563  52.723  1.00  0.00     0.169 HD
BRANCH  10  12
HETATM   12  C6  UNL     1      22.164   3.314  52.161  1.00  0.00     0.034 A 
HETATM   13  C7  UNL     1      23.380   3.950  52.035  1.00  0.00     0.032 A 
HETATM   14  C8  UNL     1      24.545   3.282  52.240  1.00  0.00     0.031 A 
HETATM   15  C9  UNL     1      24.517   1.946  52.578  1.00  0.00     0.030 A 
HETATM   16  C15 UNL     1      23.280   1.359  52.692  1.00  0.00     0.031 A 
HETATM   17  C16 UNL     1      22.041   1.981  52.497  1.00  0.00     0.032 A 
BRANCH  15  18
HETATM   18  N3  UNL     1      25.706   1.204  52.804  1.00  0.00    -0.378 N 
HETATM   19  C10 UNL     1      26.926   1.977  52.921  1.00  0.00     0.153 C 
HETATM   20  C11 UNL     1      28.163   1.137  52.949  1.00  0.00     0.291 C 
HETATM   21  N4  UNL     1      27.982  -0.155  53.555  1.00  0.00     0.087 N 
HETATM   22  C12 UNL     1      27.624   0.037  54.942  1.00  0.00     0.310 C 
HETATM   23  C13 UNL     1      26.997  -0.878  52.794  1.00  0.00     0.291 C 
HETATM   24  C14 UNL     1      25.625  -0.238  52.900  1.00  0.00     0.153 C 
ENDBRANCH  15  18
ENDBRANCH  10  12
ENDBRANCH   7   8
ENDBRANCH   4   7
TORSDOF 4
ENDMDL
MODEL 6
REMARK VINA RESULT:      -6.0      2.602      3.443
REMARK  4 active torsions:
REMARK  status: ('A' for Active; 'I' for Inactive)
REMARK       I    between atoms: N1_3  and  C3_4 
REMARK    1  A    between atoms: C3_4  and  C4_6 
REMARK    2  A    between atoms: C4_6  and  C5_7 
REMARK       I    between atoms: C5_7  and  N2_9 
REMARK    3  A    between atoms: N2_9  and  C6_10 
REMARK    4  A    between atoms: C9_13  and  N3_14 
ROOT
HETATM    1  C1  UNL     1      29.041  -2.654  53.274  1.00  0.00     0.032 C 
HETATM    2  C2  UNL     1      28.433  -1.524  53.109  1.00  0.00     0.081 C 
HETATM    3  N1  UNL     1      27.675  -0.365  52.801  1.00  0.00    -0.340 N 
HETATM    4  C3  UNL     1      28.027   0.735  53.625  1.00  0.00     0.230 C 
HETATM    5  O1  UNL     1      28.936   0.585  54.510  1.00  0.00    -0.273 OA
HETATM    6  H4  UNL     1      26.938  -0.250  52.079  1.00  0.00     0.167 HD
ENDROOT
BRANCH   4   7
HETATM    7  C4  UNL     1      27.433   2.068  53.563  1.00  0.00     0.206 C 
BRANCH   7   8
HETATM    8  C5  UNL     1      26.032   2.114  53.093  1.00  0.00     0.231 C 
HETATM    9  O2  UNL     1      25.074   1.324  53.338  1.00  0.00    -0.273 OA
HETATM   10  N2  UNL     1      25.597   3.160  52.237  1.00  0.00    -0.327 N 
HETATM   11  H7  UNL     1      26.201   3.933  51.892  1.00  0.00     0.169 HD
BRANCH  10  12
HETATM   12  C6  UNL     1      24.220   3.108  51.845  1.00  0.00     0.034 A 
HETATM   13  C7  UNL     1      23.817   2.284  50.817  1.00  0.00     0.032 A 
HETATM   14  C8  UNL     1      22.515   2.226  50.435  1.00  0.00     0.031 A 
HETATM   15  C9  UNL     1      21.577   3.001  51.082  1.00  0.00     0.030 A 
HETATM   16  C15 UNL     1      22.030   3.805  52.100  1.00  0.00     0.031 A 
HETATM   17  C16 UNL     1      23.351   3.918  52.548  1.00  0.00     0.032 A 
BRANCH  15  18
HETATM   18  N3  UNL     1      20.204   2.975  50.721  1.00  0.00    -0.378 N 
HETATM   19  C10 UNL     1      19.808   1.930  49.799  1.00  0.00     0.153 C 
HETATM   20  C11 UNL     1      18.406   2.078  49.298  1.00  0.00     0.291 C 
HETATM   21  N4  UNL     1      17.507   2.688  50.240  1.00  0.00     0.087 N 
HETATM   22  C12 UNL     1      17.405   1.827  51.397  1.00  0.00     0.310 C 
HETATM   23  C13 UNL     1      17.991   4.009  50.539  1.00  0.00     0.291 C 
HETATM   24  C14 UNL     1      19.312   3.968  51.283  1.00  0.00     0.153 C 
ENDBRANCH  15  18
ENDBRANCH  10  12
ENDBRANCH   7   8
ENDBRANCH   4   7
TORSDOF 4
ENDMDL
MODEL 7
REMARK VINA RESULT:      -6.0      7.024      7.955
REMARK  4 active torsions:
REMARK  status: ('A' for Active; 'I' for Inactive)
REMARK       I    between atoms: N1_3  and  C3_4 
REMARK    1  A    between atoms: C3_4  and  C4_6 
REMARK    2  A    between atoms: C4_6  and  C5_7 
REMARK       I    between atoms: C5_7  and  N2_9 
REMARK    3  A    between atoms: N2_9  and  C6_10 
REMARK    4  A    between atoms: C9_13  and  N3_14 
ROOT
HETATM    1  C1  UNL     1      35.083   3.717  44.990  1.00  0.00     0.032 C 
HETATM    2  C2  UNL     1      34.636   4.683  45.726  1.00  0.00     0.081 C 
HETATM    3  N1  UNL     1      34.309   5.809  46.525  1.00  0.00    -0.340 N 
HETATM    4  C3  UNL     1      32.950   5.796  46.930  1.00  0.00     0.230 C 
HETATM    5  O1  UNL     1      32.198   4.832  46.560  1.00  0.00    -0.273 OA
HETATM    6  H4  UNL     1      34.926   6.589  46.822  1.00  0.00     0.167 HD
ENDROOT
BRANCH   4   7
HETATM    7  C4  UNL     1      32.299   6.810  47.756  1.00  0.00     0.206 C 
BRANCH   7   8
HETATM    8  C5  UNL     1      30.973   6.434  48.290  1.00  0.00     0.231 C 
HETATM    9  O2  UNL     1      30.668   5.938  49.414  1.00  0.00    -0.273 OA
HETATM   10  N2  UNL     1      29.804   6.617  47.504  1.00  0.00    -0.327 N 
HETATM   11  H7  UNL     1      29.794   7.008  46.540  1.00  0.00     0.169 HD
BRANCH  10  12
HETATM   12  C6  UNL     1      28.574   6.221  48.120  1.00  0.00     0.034 A 
HETATM   13  C7  UNL     1      28.309   4.890  48.360  1.00  0.00     0.032 A 
HETATM   14  C8  UNL     1      27.146   4.501  48.943  1.00  0.00     0.031 A 
HETATM   15  C9  UNL     1      26.211   5.447  49.302  1.00  0.00     0.030 A 
HETATM   16  C15 UNL     1      26.522   6.760  49.042  1.00  0.00     0.031 A 
HETATM   17  C16 UNL     1      27.697   7.236  48.446  1.00  0.00     0.032 A 
BRANCH  15  18
HETATM   18  N3  UNL     1      24.980   5.092  49.916  1.00  0.00    -0.378 N 
HETATM   19  C10 UNL     1      24.838   3.701  50.299  1.00  0.00     0.153 C 
HETATM   20  C11 UNL     1      23.456   3.345  50.746  1.00  0.00     0.291 C 
HETATM   21  N4  UNL     1      22.751   4.421  51.389  1.00  0.00     0.087 N 
HETATM   22  C12 UNL     1      23.460   4.773  52.599  1.00  0.00     0.310 C 
HETATM   23  C13 UNL     1      22.626   5.505  50.451  1.00  0.00     0.291 C 
HETATM   24  C14 UNL     1      23.974   6.114  50.113  1.00  0.00     0.153 C 
ENDBRANCH  15  18
ENDBRANCH  10  12
ENDBRANCH   7   8
ENDBRANCH   4   7
TORSDOF 4
ENDMDL
MODEL 8
REMARK VINA RESULT:      -6.0      3.915      8.609
REMARK  4 active torsions:
REMARK  status: ('A' for Active; 'I' for Inactive)
REMARK       I    between atoms: N1_3  and  C3_4 
REMARK    1  A    between atoms: C3_4  and  C4_6 
REMARK    2  A    between atoms: C4_6  and  C5_7 
REMARK       I    between atoms: C5_7  and  N2_9 
REMARK    3  A    between atoms: N2_9  and  C6_10 
REMARK    4  A    between atoms: C9_13  and  N3_14 
ROOT
HETATM    1  C1  UNL     1      15.642  -0.580  48.258  1.00  0.00     0.032 C 
HETATM    2  C2  UNL     1      15.957   0.114  49.304  1.00  0.00     0.081 C 
HETATM    3  N1  UNL     1      16.153   0.815  50.522  1.00  0.00    -0.340 N 
HETATM    4  C3  UNL     1      17.366   1.552  50.521  1.00  0.00     0.230 C 
HETATM    5  O1  UNL     1      18.117   1.515  49.489  1.00  0.00    -0.273 OA
HETATM    6  H4  UNL     1      15.537   0.841  51.357  1.00  0.00     0.167 HD
ENDROOT
BRANCH   4   7
HETATM    7  C4  UNL     1      17.860   2.377  51.621  1.00  0.00     0.206 C 
BRANCH   7   8
HETATM    8  C5  UNL     1      19.287   2.189  51.959  1.00  0.00     0.231 C 
HETATM    9  O2  UNL     1      20.077   2.960  52.578  1.00  0.00    -0.273 OA
HETATM   10  N2  UNL     1      19.963   0.999  51.578  1.00  0.00    -0.327 N 
HETATM   11  H7  UNL     1      19.528   0.212  51.056  1.00  0.00     0.169 HD
BRANCH  10  12
HETATM   12  C6  UNL     1      21.342   0.921  51.958  1.00  0.00     0.034 A 
HETATM   13  C7  UNL     1      22.315   1.518  51.187  1.00  0.00     0.032 A 
HETATM   14  C8  UNL     1      23.625   1.451  51.537  1.00  0.00     0.031 A 
HETATM   15  C9  UNL     1      23.995   0.775  52.679  1.00  0.00     0.030 A 
HETATM   16  C15 UNL     1      22.987   0.197  53.414  1.00  0.00     0.031 A 
HETATM   17  C16 UNL     1      21.619   0.225  53.118  1.00  0.00     0.032 A 
BRANCH  15  18
HETATM   18  N3  UNL     1      25.351   0.677  53.089  1.00  0.00    -0.378 N 
HETATM   19  C10 UNL     1      25.585   0.040  54.369  1.00  0.00     0.153 C 
HETATM   20  C11 UNL     1      27.000   0.150  54.840  1.00  0.00     0.291 C 
HETATM   21  N4  UNL     1      27.971   0.179  53.779  1.00  0.00     0.087 N 
HETATM   22  C12 UNL     1      27.907  -1.078  53.067  1.00  0.00     0.310 C 
HETATM   23  C13 UNL     1      27.708   1.329  52.955  1.00  0.00     0.291 C 
HETATM   24  C14 UNL     1      26.385   1.205  52.224  1.00  0.00     0.153 C 
ENDBRANCH  15  18
ENDBRANCH  10  12
ENDBRANCH   7   8
ENDBRANCH   4   7
TORSDOF 4
ENDMDL
MODEL 9
REMARK VINA RESULT:      -6.0      3.198      8.679
REMARK  4 active torsions:
REMARK  status: ('A' for Active; 'I' for Inactive)
REMARK       I    between atoms: N1_3  and  C3_4 
REMARK    1  A    between atoms: C3_4  and  C4_6 
REMARK    2  A    between atoms: C4_6  and  C5_7 
REMARK       I    between atoms: C5_7  and  N2_9 
REMARK    3  A    between atoms: N2_9  and  C6_10 
REMARK    4  A    between atoms: C9_13  and  N3_14 
ROOT
HETATM    1  C1  UNL     1      24.813   8.676  45.833  1.00  0.00     0.032 C 
HETATM    2  C2  UNL     1      24.443   7.979  46.859  1.00  0.00     0.081 C 
HETATM    3  N1  UNL     1      24.209   7.188  48.013  1.00  0.00    -0.340 N 
HETATM    4  C3  UNL     1      22.825   7.056  48.295  1.00  0.00     0.230 C 
HETATM    5  O1  UNL     1      21.976   7.626  47.531  1.00  0.00    -0.273 OA
HETATM    6  H4  UNL     1      24.905   6.727  48.630  1.00  0.00     0.167 HD
ENDROOT
BRANCH   4   7
HETATM    7  C4  UNL     1      22.252   6.308  49.412  1.00  0.00     0.206 C 
BRANCH   7   8
HETATM    8  C5  UNL     1      23.222   5.538  50.220  1.00  0.00     0.231 C 
HETATM    9  O2  UNL     1      24.112   5.951  51.019  1.00  0.00    -0.273 OA
HETATM   10  N2  UNL     1      23.239   4.119  50.160  1.00  0.00    -0.327 N 
HETATM   11  H7  UNL     1      22.603   3.544  49.571  1.00  0.00     0.169 HD
BRANCH  10  12
HETATM   12  C6  UNL     1      24.217   3.475  50.984  1.00  0.00     0.034 A 
HETATM   13  C7  UNL     1      23.937   3.181  52.300  1.00  0.00     0.032 A 
HETATM   14  C8  UNL     1      24.857   2.571  53.092  1.00  0.00     0.031 A 
HETATM   15  C9  UNL     1      26.091   2.239  52.577  1.00  0.00     0.030 A 
HETATM   16  C15 UNL     1      26.320   2.553  51.259  1.00  0.00     0.031 A 
HETATM   17  C16 UNL     1      25.425   3.178  50.384  1.00  0.00     0.032 A 
BRANCH  15  18
HETATM   18  N3  UNL     1      27.086   1.599  53.364  1.00  0.00    -0.378 N 
HETATM   19  C10 UNL     1      26.654   0.436  54.113  1.00  0.00     0.153 C 
HETATM   20  C11 UNL     1      27.681  -0.068  55.076  1.00  0.00     0.291 C 
HETATM   21  N4  UNL     1      29.039   0.142  54.648  1.00  0.00     0.087 N 
HETATM   22  C12 UNL     1      29.257  -0.613  53.434  1.00  0.00     0.310 C 
HETATM   23  C13 UNL     1      29.254   1.556  54.500  1.00  0.00     0.291 C 
HETATM   24  C14 UNL     1      28.431   2.135  53.366  1.00  0.00     0.153 C 
ENDBRANCH  15  18
ENDBRANCH  10  12
ENDBRANCH   7   8
ENDBRANCH   4   7
TORSDOF 4
ENDMDL
