MODEL 1
REMARK VINA RESULT:      -8.2      0.000      0.000
REMARK  7 active torsions:
REMARK  status: ('A' for Active; 'I' for Inactive)
REMARK    1  A    between atoms: C3_3  and  O1_4 
REMARK    2  A    between atoms: O1_4  and  C4_5 
REMARK    3  A    between atoms: C4_5  and  C5_6 
REMARK    4  A    between atoms: C5_6  and  C6_7 
REMARK    5  A    between atoms: C6_7  and  N1_8 
REMARK    6  A    between atoms: C13_16  and  N2_17 
REMARK    7  A    between atoms: N2_17  and  C14_18 
ROOT
HETATM    1  C1  UNL     1      25.503  -0.734  55.506  1.00  0.00     0.048 C 
HETATM    2  C2  UNL     1      25.511  -0.109  54.362  1.00  0.00     0.005 A 
HETATM    3  C3  UNL     1      24.461  -0.209  53.357  1.00  0.00     0.078 A 
HETATM    4  C11 UNL     1      24.825   0.562  52.347  1.00  0.00     0.055 A 
HETATM    5  C12 UNL     1      26.113   1.218  52.597  1.00  0.00     0.042 A 
HETATM    6  C13 UNL     1      26.851   2.095  51.815  1.00  0.00     0.142 A 
HETATM    7  N3  UNL     1      27.995   2.491  52.383  1.00  0.00    -0.224 NA
HETATM    8  C20 UNL     1      28.453   2.122  53.585  1.00  0.00     0.236 A 
HETATM    9  N4  UNL     1      27.687   1.256  54.312  1.00  0.00    -0.240 NA
HETATM   10  C21 UNL     1      26.522   0.796  53.839  1.00  0.00     0.081 A 
ENDROOT
BRANCH   3  11
HETATM   11  O1  UNL     1      23.296  -0.964  53.429  1.00  0.00    -0.350 OA
BRANCH  11  12
HETATM   12  C4  UNL     1      22.236  -0.590  54.303  1.00  0.00     0.177 C 
BRANCH  12  13
HETATM   13  C5  UNL     1      20.911  -0.581  53.599  1.00  0.00     0.057 C 
BRANCH  13  14
HETATM   14  C6  UNL     1      20.439   0.821  53.276  1.00  0.00     0.274 C 
BRANCH  14  15
HETATM   15  N1  UNL     1      20.889   1.275  51.997  1.00  0.00     0.092 N 
HETATM   16  C7  UNL     1      21.602   2.526  52.190  1.00  0.00     0.298 C 
HETATM   17  C8  UNL     1      20.732   3.726  51.974  1.00  0.00     0.198 C 
HETATM   18  O2  UNL     1      19.393   3.523  52.291  1.00  0.00    -0.388 OA
HETATM   19  C9  UNL     1      18.822   2.525  51.509  1.00  0.00     0.198 C 
HETATM   20  C10 UNL     1      19.842   1.506  51.047  1.00  0.00     0.298 C 
ENDBRANCH  14  15
ENDBRANCH  13  14
ENDBRANCH  12  13
ENDBRANCH  11  12
ENDBRANCH   3  11
BRANCH   6  21
HETATM   21  N2  UNL     1      26.369   2.490  50.542  1.00  0.00    -0.340 N 
HETATM   22  H18 UNL     1      26.003   1.719  49.923  1.00  0.00     0.167 HD
BRANCH  21  23
HETATM   23  C14 UNL     1      26.316   3.792  49.990  1.00  0.00     0.035 A 
HETATM   24  C15 UNL     1      27.213   4.330  49.095  1.00  0.00     0.032 A 
HETATM   25  C16 UNL     1      27.150   5.600  48.566  1.00  0.00     0.046 A 
HETATM   26  C17 UNL     1      26.109   6.401  48.958  1.00  0.00     0.138 A 
HETATM   27  F1  UNL     1      26.009   7.658  48.460  1.00  0.00    -0.204 F 
HETATM   28  C18 UNL     1      25.184   5.922  49.845  1.00  0.00     0.074 A 
HETATM   29 CL1  UNL     1      23.867   6.953  50.334  1.00  0.00    -0.081 Cl
HETATM   30  C19 UNL     1      25.301   4.659  50.334  1.00  0.00     0.056 A 
ENDBRANCH  21  23
ENDBRANCH   6  21
TORSDOF 7
ENDMDL
MODEL 2
REMARK VINA RESULT:      -8.2      3.597      5.857
REMARK  7 active torsions:
REMARK  status: ('A' for Active; 'I' for Inactive)
REMARK    1  A    between atoms: C3_3  and  O1_4 
REMARK    2  A    between atoms: O1_4  and  C4_5 
REMARK    3  A    between atoms: C4_5  and  C5_6 
REMARK    4  A    between atoms: C5_6  and  C6_7 
REMARK    5  A    between atoms: C6_7  and  N1_8 
REMARK    6  A    between atoms: C13_16  and  N2_17 
REMARK    7  A    between atoms: N2_17  and  C14_18 
ROOT
HETATM    1  C1  UNL     1      18.948  -0.523  52.979  1.00  0.00     0.048 C 
HETATM    2  C2  UNL     1      20.204  -0.257  52.754  1.00  0.00     0.005 A 
HETATM    3  C3  UNL     1      20.703   0.447  51.581  1.00  0.00     0.078 A 
HETATM    4  C11 UNL     1      22.016   0.523  51.713  1.00  0.00     0.055 A 
HETATM    5  C12 UNL     1      22.480  -0.109  52.952  1.00  0.00     0.042 A 
HETATM    6  C13 UNL     1      23.757  -0.253  53.475  1.00  0.00     0.142 A 
HETATM    7  N3  UNL     1      23.789  -0.896  54.647  1.00  0.00    -0.224 NA
HETATM    8  C20 UNL     1      22.737  -1.382  55.315  1.00  0.00     0.236 A 
HETATM    9  N4  UNL     1      21.503  -1.213  54.755  1.00  0.00    -0.240 NA
HETATM   10  C21 UNL     1      21.354  -0.583  53.582  1.00  0.00     0.081 A 
ENDROOT
BRANCH   3  11
HETATM   11  O1  UNL     1      19.959   0.948  50.520  1.00  0.00    -0.350 OA
BRANCH  11  12
HETATM   12  C4  UNL     1      20.468   1.996  49.701  1.00  0.00     0.177 C 
BRANCH  12  13
HETATM   13  C5  UNL     1      20.138   3.350  50.259  1.00  0.00     0.057 C 
BRANCH  13  14
HETATM   14  C6  UNL     1      21.287   4.325  50.123  1.00  0.00     0.274 C 
BRANCH  14  15
HETATM   15  N1  UNL     1      21.471   5.130  51.290  1.00  0.00     0.092 N 
HETATM   16  C7  UNL     1      22.312   6.259  50.930  1.00  0.00     0.298 C 
HETATM   17  C8  UNL     1      23.759   6.023  51.233  1.00  0.00     0.198 C 
HETATM   18  O2  UNL     1      24.147   4.690  51.149  1.00  0.00    -0.388 OA
HETATM   19  C9  UNL     1      23.459   3.892  52.056  1.00  0.00     0.198 C 
HETATM   20  C10 UNL     1      22.092   4.451  52.388  1.00  0.00     0.298 C 
ENDBRANCH  14  15
ENDBRANCH  13  14
ENDBRANCH  12  13
ENDBRANCH  11  12
ENDBRANCH   3  11
BRANCH   6  21
HETATM   21  N2  UNL     1      24.875   0.262  52.772  1.00  0.00    -0.340 N 
HETATM   22  H18 UNL     1      24.661   0.909  51.969  1.00  0.00     0.167 HD
BRANCH  21  23
HETATM   23  C14 UNL     1      26.248   0.017  53.009  1.00  0.00     0.035 A 
HETATM   24  C15 UNL     1      26.902  -1.179  52.817  1.00  0.00     0.032 A 
HETATM   25  C16 UNL     1      28.241  -1.404  53.053  1.00  0.00     0.046 A 
HETATM   26  C17 UNL     1      28.991  -0.355  53.518  1.00  0.00     0.138 A 
HETATM   27  F1  UNL     1      30.311  -0.534  53.762  1.00  0.00    -0.204 F 
HETATM   28  C18 UNL     1      28.396   0.860  53.729  1.00  0.00     0.074 A 
HETATM   29 CL1  UNL     1      29.361   2.183  54.320  1.00  0.00    -0.081 Cl
HETATM   30  C19 UNL     1      27.069   1.019  53.478  1.00  0.00     0.056 A 
ENDBRANCH  21  23
ENDBRANCH   6  21
TORSDOF 7
ENDMDL
MODEL 3
REMARK VINA RESULT:      -8.1      5.496      9.898
REMARK  7 active torsions:
REMARK  status: ('A' for Active; 'I' for Inactive)
REMARK    1  A    between atoms: C3_3  and  O1_4 
REMARK    2  A    between atoms: O1_4  and  C4_5 
REMARK    3  A    between atoms: C4_5  and  C5_6 
REMARK    4  A    between atoms: C5_6  and  C6_7 
REMARK    5  A    between atoms: C6_7  and  N1_8 
REMARK    6  A    between atoms: C13_16  and  N2_17 
REMARK    7  A    between atoms: N2_17  and  C14_18 
ROOT
HETATM    1  C1  UNL     1      26.722   7.749  48.617  1.00  0.00     0.048 C 
HETATM    2  C2  UNL     1      26.655   6.497  48.971  1.00  0.00     0.005 A 
HETATM    3  C3  UNL     1      27.622   5.476  48.589  1.00  0.00     0.078 A 
HETATM    4  C11 UNL     1      27.216   4.343  49.136  1.00  0.00     0.055 A 
HETATM    5  C12 UNL     1      25.980   4.518  49.906  1.00  0.00     0.042 A 
HETATM    6  C13 UNL     1      25.224   3.607  50.629  1.00  0.00     0.142 A 
HETATM    7  N3  UNL     1      24.144   4.142  51.207  1.00  0.00    -0.224 NA
HETATM    8  C20 UNL     1      23.762   5.423  51.142  1.00  0.00     0.236 A 
HETATM    9  N4  UNL     1      24.542   6.277  50.416  1.00  0.00    -0.240 NA
HETATM   10  C21 UNL     1      25.648   5.848  49.795  1.00  0.00     0.081 A 
ENDROOT
BRANCH   3  11
HETATM   11  O1  UNL     1      28.755   5.643  47.802  1.00  0.00    -0.350 OA
BRANCH  11  12
HETATM   12  C4  UNL     1      30.032   5.852  48.395  1.00  0.00     0.177 C 
BRANCH  12  13
HETATM   13  C5  UNL     1      31.146   5.424  47.486  1.00  0.00     0.057 C 
BRANCH  13  14
HETATM   14  C6  UNL     1      32.352   4.921  48.249  1.00  0.00     0.274 C 
BRANCH  14  15
HETATM   15  N1  UNL     1      33.582   5.467  47.765  1.00  0.00     0.092 N 
HETATM   16  C7  UNL     1      33.555   5.417  46.313  1.00  0.00     0.298 C 
HETATM   17  C8  UNL     1      34.231   4.199  45.765  1.00  0.00     0.198 C 
HETATM   18  O2  UNL     1      34.158   3.085  46.596  1.00  0.00    -0.388 OA
HETATM   19  C9  UNL     1      34.775   3.313  47.821  1.00  0.00     0.198 C 
HETATM   20  C10 UNL     1      34.755   4.775  48.209  1.00  0.00     0.298 C 
ENDBRANCH  14  15
ENDBRANCH  13  14
ENDBRANCH  12  13
ENDBRANCH  11  12
ENDBRANCH   3  11
BRANCH   6  21
HETATM   21  N2  UNL     1      25.626   2.250  50.701  1.00  0.00    -0.340 N 
HETATM   22  H18 UNL     1      25.237   1.609  49.961  1.00  0.00     0.167 HD
BRANCH  21  23
HETATM   23  C14 UNL     1      26.487   1.640  51.645  1.00  0.00     0.035 A 
HETATM   24  C15 UNL     1      27.362   2.293  52.483  1.00  0.00     0.032 A 
HETATM   25  C16 UNL     1      28.195   1.687  53.397  1.00  0.00     0.046 A 
HETATM   26  C17 UNL     1      28.155   0.319  53.486  1.00  0.00     0.138 A 
HETATM   27  F1  UNL     1      28.959  -0.317  54.373  1.00  0.00    -0.204 F 
HETATM   28  C18 UNL     1      27.305  -0.386  52.678  1.00  0.00     0.074 A 
HETATM   29 CL1  UNL     1      27.266  -2.123  52.801  1.00  0.00    -0.081 Cl
HETATM   30  C19 UNL     1      26.507   0.270  51.794  1.00  0.00     0.056 A 
ENDBRANCH  21  23
ENDBRANCH   6  21
TORSDOF 7
ENDMDL
MODEL 4
REMARK VINA RESULT:      -7.8      4.811      8.752
REMARK  7 active torsions:
REMARK  status: ('A' for Active; 'I' for Inactive)
REMARK    1  A    between atoms: C3_3  and  O1_4 
REMARK    2  A    between atoms: O1_4  and  C4_5 
REMARK    3  A    between atoms: C4_5  and  C5_6 
REMARK    4  A    between atoms: C5_6  and  C6_7 
REMARK    5  A    between atoms: C6_7  and  N1_8 
REMARK    6  A    between atoms: C13_16  and  N2_17 
REMARK    7  A    between atoms: N2_17  and  C14_18 
ROOT
HETATM    1  C1  UNL     1      23.132   3.803  48.522  1.00  0.00     0.048 C 
HETATM    2  C2  UNL     1      23.909   3.571  49.542  1.00  0.00     0.005 A 
HETATM    3  C3  UNL     1      25.302   3.988  49.632  1.00  0.00     0.078 A 
HETATM    4  C11 UNL     1      25.749   3.574  50.805  1.00  0.00     0.055 A 
HETATM    5  C12 UNL     1      24.714   2.867  51.566  1.00  0.00     0.042 A 
HETATM    6  C13 UNL     1      24.754   2.278  52.822  1.00  0.00     0.142 A 
HETATM    7  N3  UNL     1      23.597   1.719  53.192  1.00  0.00    -0.224 NA
HETATM    8  C20 UNL     1      22.466   1.689  52.477  1.00  0.00     0.236 A 
HETATM    9  N4  UNL     1      22.483   2.283  51.247  1.00  0.00    -0.240 NA
HETATM   10  C21 UNL     1      23.589   2.874  50.777  1.00  0.00     0.081 A 
ENDROOT
BRANCH   3  11
HETATM   11  O1  UNL     1      26.035   4.686  48.680  1.00  0.00    -0.350 OA
BRANCH  11  12
HETATM   12  C4  UNL     1      27.454   4.762  48.761  1.00  0.00     0.177 C 
BRANCH  12  13
HETATM   13  C5  UNL     1      27.973   6.073  48.249  1.00  0.00     0.057 C 
BRANCH  13  14
HETATM   14  C6  UNL     1      29.478   6.182  48.364  1.00  0.00     0.274 C 
BRANCH  14  15
HETATM   15  N1  UNL     1      29.968   7.481  48.021  1.00  0.00     0.092 N 
HETATM   16  C7  UNL     1      30.743   7.360  46.798  1.00  0.00     0.298 C 
HETATM   17  C8  UNL     1      32.210   7.207  47.057  1.00  0.00     0.198 C 
HETATM   18  O2  UNL     1      32.513   6.562  48.252  1.00  0.00    -0.388 OA
HETATM   19  C9  UNL     1      32.028   7.259  49.353  1.00  0.00     0.198 C 
HETATM   20  C10 UNL     1      30.804   8.082  49.016  1.00  0.00     0.298 C 
ENDBRANCH  14  15
ENDBRANCH  13  14
ENDBRANCH  12  13
ENDBRANCH  11  12
ENDBRANCH   3  11
BRANCH   6  21
HETATM   21  N2  UNL     1      25.949   2.309  53.583  1.00  0.00    -0.340 N 
HETATM   22  H18 UNL     1      26.056   3.118  54.249  1.00  0.00     0.167 HD
BRANCH  21  23
HETATM   23  C14 UNL     1      27.025   1.388  53.563  1.00  0.00     0.035 A 
HETATM   24  C15 UNL     1      28.328   1.659  53.914  1.00  0.00     0.032 A 
HETATM   25  C16 UNL     1      29.366   0.753  53.889  1.00  0.00     0.046 A 
HETATM   26  C17 UNL     1      29.086  -0.525  53.482  1.00  0.00     0.138 A 
HETATM   27  F1  UNL     1      30.078  -1.447  53.444  1.00  0.00    -0.204 F 
HETATM   28  C18 UNL     1      27.807  -0.855  53.121  1.00  0.00     0.074 A 
HETATM   29 CL1  UNL     1      27.466  -2.483  52.607  1.00  0.00    -0.081 Cl
HETATM   30  C19 UNL     1      26.825   0.084  53.166  1.00  0.00     0.056 A 
ENDBRANCH  21  23
ENDBRANCH   6  21
TORSDOF 7
ENDMDL
MODEL 5
REMARK VINA RESULT:      -7.7      3.784      6.813
REMARK  7 active torsions:
REMARK  status: ('A' for Active; 'I' for Inactive)
REMARK    1  A    between atoms: C3_3  and  O1_4 
REMARK    2  A    between atoms: O1_4  and  C4_5 
REMARK    3  A    between atoms: C4_5  and  C5_6 
REMARK    4  A    between atoms: C5_6  and  C6_7 
REMARK    5  A    between atoms: C6_7  and  N1_8 
REMARK    6  A    between atoms: C13_16  and  N2_17 
REMARK    7  A    between atoms: N2_17  and  C14_18 
ROOT
HETATM    1  C1  UNL     1      27.474  -0.451  53.590  1.00  0.00     0.048 C 
HETATM    2  C2  UNL     1      26.238  -0.127  53.334  1.00  0.00     0.005 A 
HETATM    3  C3  UNL     1      25.816   0.706  52.217  1.00  0.00     0.078 A 
HETATM    4  C11 UNL     1      24.500   0.807  52.293  1.00  0.00     0.055 A 
HETATM    5  C12 UNL     1      23.959   0.066  53.437  1.00  0.00     0.042 A 
HETATM    6  C13 UNL     1      22.654  -0.093  53.880  1.00  0.00     0.142 A 
HETATM    7  N3  UNL     1      22.547  -0.850  54.976  1.00  0.00    -0.224 NA
HETATM    8  C20 UNL     1      23.552  -1.434  55.639  1.00  0.00     0.236 A 
HETATM    9  N4  UNL     1      24.816  -1.244  55.160  1.00  0.00    -0.240 NA
HETATM   10  C21 UNL     1      25.040  -0.503  54.067  1.00  0.00     0.081 A 
ENDROOT
BRANCH   3  11
HETATM   11  O1  UNL     1      26.625   1.291  51.250  1.00  0.00    -0.350 OA
BRANCH  11  12
HETATM   12  C4  UNL     1      26.777   2.705  51.182  1.00  0.00     0.177 C 
BRANCH  12  13
HETATM   13  C5  UNL     1      26.495   3.231  49.805  1.00  0.00     0.057 C 
BRANCH  13  14
HETATM   14  C6  UNL     1      25.602   4.452  49.826  1.00  0.00     0.274 C 
BRANCH  14  15
HETATM   15  N1  UNL     1      24.288   4.185  49.329  1.00  0.00     0.092 N 
HETATM   16  C7  UNL     1      23.752   5.423  48.787  1.00  0.00     0.298 C 
HETATM   17  C8  UNL     1      22.902   6.165  49.771  1.00  0.00     0.198 C 
HETATM   18  O2  UNL     1      23.275   5.980  51.098  1.00  0.00    -0.388 OA
HETATM   19  C9  UNL     1      23.181   4.646  51.481  1.00  0.00     0.198 C 
HETATM   20  C10 UNL     1      23.367   3.701  50.314  1.00  0.00     0.298 C 
ENDBRANCH  14  15
ENDBRANCH  13  14
ENDBRANCH  12  13
ENDBRANCH  11  12
ENDBRANCH   3  11
BRANCH   6  21
HETATM   21  N2  UNL     1      21.586   0.523  53.181  1.00  0.00    -0.340 N 
HETATM   22  H18 UNL     1      21.762   1.502  52.831  1.00  0.00     0.167 HD
BRANCH  21  23
HETATM   23  C14 UNL     1      20.307  -0.008  52.890  1.00  0.00     0.035 A 
HETATM   24  C15 UNL     1      19.617  -0.921  53.655  1.00  0.00     0.032 A 
HETATM   25  C16 UNL     1      18.372  -1.431  53.360  1.00  0.00     0.046 A 
HETATM   26  C17 UNL     1      17.762  -0.997  52.211  1.00  0.00     0.138 A 
HETATM   27  F1  UNL     1      16.536  -1.473  51.884  1.00  0.00    -0.204 F 
HETATM   28  C18 UNL     1      18.399  -0.089  51.409  1.00  0.00     0.074 A 
HETATM   29 CL1  UNL     1      17.612   0.452  49.953  1.00  0.00    -0.081 Cl
HETATM   30  C19 UNL     1      19.629   0.377  51.754  1.00  0.00     0.056 A 
ENDBRANCH  21  23
ENDBRANCH   6  21
TORSDOF 7
ENDMDL
MODEL 6
REMARK VINA RESULT:      -7.7      3.409      6.256
REMARK  7 active torsions:
REMARK  status: ('A' for Active; 'I' for Inactive)
REMARK    1  A    between atoms: C3_3  and  O1_4 
REMARK    2  A    between atoms: O1_4  and  C4_5 
REMARK    3  A    between atoms: C4_5  and  C5_6 
REMARK    4  A    between atoms: C5_6  and  C6_7 
REMARK    5  A    between atoms: C6_7  and  N1_8 
REMARK    6  A    between atoms: C13_16  and  N2_17 
REMARK    7  A    between atoms: N2_17  and  C14_18 
ROOT
HETATM    1  C1  UNL     1      28.608   2.484  53.534  1.00  0.00     0.048 C 
HETATM    2  C2  UNL     1      27.469   1.975  53.155  1.00  0.00     0.005 A 
HETATM    3  C3  UNL     1      26.816   2.263  51.885  1.00  0.00     0.078 A 
HETATM    4  C11 UNL     1      25.694   1.565  51.867  1.00  0.00     0.055 A 
HETATM    5  C12 UNL     1      25.519   0.778  53.092  1.00  0.00     0.042 A 
HETATM    6  C13 UNL     1      24.500  -0.080  53.482  1.00  0.00     0.142 A 
HETATM    7  N3  UNL     1      24.689  -0.627  54.687  1.00  0.00    -0.224 NA
HETATM    8  C20 UNL     1      25.732  -0.418  55.498  1.00  0.00     0.236 A 
HETATM    9  N4  UNL     1      26.705   0.436  55.066  1.00  0.00    -0.240 NA
HETATM   10  C21 UNL     1      26.619   1.041  53.874  1.00  0.00     0.081 A 
ENDROOT
BRANCH   3  11
HETATM   11  O1  UNL     1      27.270   3.106  50.878  1.00  0.00    -0.350 OA
BRANCH  11  12
HETATM   12  C4  UNL     1      26.469   3.371  49.731  1.00  0.00     0.177 C 
BRANCH  12  13
HETATM   13  C5  UNL     1      26.954   4.573  48.976  1.00  0.00     0.057 C 
BRANCH  13  14
HETATM   14  C6  UNL     1      26.191   5.829  49.339  1.00  0.00     0.274 C 
BRANCH  14  15
HETATM   15  N1  UNL     1      24.788   5.715  49.091  1.00  0.00     0.092 N 
HETATM   16  C7  UNL     1      24.402   6.788  48.190  1.00  0.00     0.298 C 
HETATM   17  C8  UNL     1      23.871   7.987  48.913  1.00  0.00     0.198 C 
HETATM   18  O2  UNL     1      24.416   8.176  50.179  1.00  0.00    -0.388 OA
HETATM   19  C9  UNL     1      24.147   7.104  51.023  1.00  0.00     0.198 C 
HETATM   20  C10 UNL     1      23.968   5.807  50.263  1.00  0.00     0.298 C 
ENDBRANCH  14  15
ENDBRANCH  13  14
ENDBRANCH  12  13
ENDBRANCH  11  12
ENDBRANCH   3  11
BRANCH   6  21
HETATM   21  N2  UNL     1      23.394  -0.305  52.625  1.00  0.00    -0.340 N 
HETATM   22  H18 UNL     1      23.447  -1.160  52.011  1.00  0.00     0.167 HD
BRANCH  21  23
HETATM   23  C14 UNL     1      22.221   0.476  52.484  1.00  0.00     0.035 A 
HETATM   24  C15 UNL     1      22.148   1.848  52.566  1.00  0.00     0.032 A 
HETATM   25  C16 UNL     1      20.999   2.595  52.428  1.00  0.00     0.046 A 
HETATM   26  C17 UNL     1      19.828   1.924  52.187  1.00  0.00     0.138 A 
HETATM   27  F1  UNL     1      18.675   2.622  52.044  1.00  0.00    -0.204 F 
HETATM   28  C18 UNL     1      19.838   0.559  52.094  1.00  0.00     0.074 A 
HETATM   29 CL1  UNL     1      18.342  -0.280  51.788  1.00  0.00    -0.081 Cl
HETATM   30  C19 UNL     1      21.005  -0.124  52.241  1.00  0.00     0.056 A 
ENDBRANCH  21  23
ENDBRANCH   6  21
TORSDOF 7
ENDMDL
MODEL 7
REMARK VINA RESULT:      -7.7      4.425      7.770
REMARK  7 active torsions:
REMARK  status: ('A' for Active; 'I' for Inactive)
REMARK    1  A    between atoms: C3_3  and  O1_4 
REMARK    2  A    between atoms: O1_4  and  C4_5 
REMARK    3  A    between atoms: C4_5  and  C5_6 
REMARK    4  A    between atoms: C5_6  and  C6_7 
REMARK    5  A    between atoms: C6_7  and  N1_8 
REMARK    6  A    between atoms: C13_16  and  N2_17 
REMARK    7  A    between atoms: N2_17  and  C14_18 
ROOT
HETATM    1  C1  UNL     1      22.627   3.008  48.620  1.00  0.00     0.048 C 
HETATM    2  C2  UNL     1      23.423   2.874  49.643  1.00  0.00     0.005 A 
HETATM    3  C3  UNL     1      24.665   3.613  49.829  1.00  0.00     0.078 A 
HETATM    4  C11 UNL     1      25.185   3.203  50.973  1.00  0.00     0.055 A 
HETATM    5  C12 UNL     1      24.350   2.187  51.621  1.00  0.00     0.042 A 
HETATM    6  C13 UNL     1      24.519   1.500  52.815  1.00  0.00     0.142 A 
HETATM    7  N3  UNL     1      23.534   0.635  53.082  1.00  0.00    -0.224 NA
HETATM    8  C20 UNL     1      22.458   0.399  52.323  1.00  0.00     0.236 A 
HETATM    9  N4  UNL     1      22.342   1.102  51.158  1.00  0.00    -0.240 NA
HETATM   10  C21 UNL     1      23.271   1.994  50.791  1.00  0.00     0.081 A 
ENDROOT
BRANCH   3  11
HETATM   11  O1  UNL     1      25.212   4.566  48.978  1.00  0.00    -0.350 OA
BRANCH  11  12
HETATM   12  C4  UNL     1      26.068   5.587  49.480  1.00  0.00     0.177 C 
BRANCH  12  13
HETATM   13  C5  UNL     1      25.303   6.640  50.227  1.00  0.00     0.057 C 
BRANCH  13  14
HETATM   14  C6  UNL     1      25.938   8.008  50.105  1.00  0.00     0.274 C 
BRANCH  14  15
HETATM   15  N1  UNL     1      26.779   8.129  48.955  1.00  0.00     0.092 N 
HETATM   16  C7  UNL     1      28.054   8.677  49.387  1.00  0.00     0.298 C 
HETATM   17  C8  UNL     1      28.130  10.163  49.223  1.00  0.00     0.198 C 
HETATM   18  O2  UNL     1      26.906  10.812  49.352  1.00  0.00    -0.388 OA
HETATM   19  C9  UNL     1      25.994  10.394  48.389  1.00  0.00     0.198 C 
HETATM   20  C10 UNL     1      26.260   8.978  47.925  1.00  0.00     0.298 C 
ENDBRANCH  14  15
ENDBRANCH  13  14
ENDBRANCH  12  13
ENDBRANCH  11  12
ENDBRANCH   3  11
BRANCH   6  21
HETATM   21  N2  UNL     1      25.656   1.748  53.622  1.00  0.00    -0.340 N 
HETATM   22  H18 UNL     1      25.572   2.538  54.314  1.00  0.00     0.167 HD
BRANCH  21  23
HETATM   23  C14 UNL     1      26.899   1.070  53.619  1.00  0.00     0.035 A 
HETATM   24  C15 UNL     1      28.124   1.623  53.914  1.00  0.00     0.032 A 
HETATM   25  C16 UNL     1      29.326   0.950  53.906  1.00  0.00     0.046 A 
HETATM   26  C17 UNL     1      29.309  -0.380  53.578  1.00  0.00     0.138 A 
HETATM   27  F1  UNL     1      30.470  -1.079  53.559  1.00  0.00    -0.204 F 
HETATM   28  C18 UNL     1      28.120  -0.987  53.275  1.00  0.00     0.074 A 
HETATM   29 CL1  UNL     1      28.115  -2.678  52.860  1.00  0.00    -0.081 Cl
HETATM   30  C19 UNL     1      26.966  -0.269  53.299  1.00  0.00     0.056 A 
ENDBRANCH  21  23
ENDBRANCH   6  21
TORSDOF 7
ENDMDL
MODEL 8
REMARK VINA RESULT:      -7.7      5.594     10.082
REMARK  7 active torsions:
REMARK  status: ('A' for Active; 'I' for Inactive)
REMARK    1  A    between atoms: C3_3  and  O1_4 
REMARK    2  A    between atoms: O1_4  and  C4_5 
REMARK    3  A    between atoms: C4_5  and  C5_6 
REMARK    4  A    between atoms: C5_6  and  C6_7 
REMARK    5  A    between atoms: C6_7  and  N1_8 
REMARK    6  A    between atoms: C13_16  and  N2_17 
REMARK    7  A    between atoms: N2_17  and  C14_18 
ROOT
HETATM    1  C1  UNL     1      27.867   8.320  47.344  1.00  0.00     0.048 C 
HETATM    2  C2  UNL     1      27.749   7.129  47.860  1.00  0.00     0.005 A 
HETATM    3  C3  UNL     1      28.841   6.175  47.998  1.00  0.00     0.078 A 
HETATM    4  C11 UNL     1      28.332   5.092  48.560  1.00  0.00     0.055 A 
HETATM    5  C12 UNL     1      26.899   5.238  48.832  1.00  0.00     0.042 A 
HETATM    6  C13 UNL     1      25.989   4.359  49.402  1.00  0.00     0.142 A 
HETATM    7  N3  UNL     1      24.748   4.850  49.488  1.00  0.00    -0.224 NA
HETATM    8  C20 UNL     1      24.344   6.060  49.087  1.00  0.00     0.236 A 
HETATM    9  N4  UNL     1      25.280   6.885  48.532  1.00  0.00    -0.240 NA
HETATM   10  C21 UNL     1      26.555   6.495  48.396  1.00  0.00     0.081 A 
ENDROOT
BRANCH   3  11
HETATM   11  O1  UNL     1      30.166   6.352  47.619  1.00  0.00    -0.350 OA
BRANCH  11  12
HETATM   12  C4  UNL     1      31.125   6.871  48.534  1.00  0.00     0.177 C 
BRANCH  12  13
HETATM   13  C5  UNL     1      31.998   5.790  49.101  1.00  0.00     0.057 C 
BRANCH  13  14
HETATM   14  C6  UNL     1      33.076   5.353  48.133  1.00  0.00     0.274 C 
BRANCH  14  15
HETATM   15  N1  UNL     1      32.994   3.965  47.802  1.00  0.00     0.092 N 
HETATM   16  C7  UNL     1      34.347   3.441  47.722  1.00  0.00     0.298 C 
HETATM   17  C8  UNL     1      34.883   3.433  46.324  1.00  0.00     0.198 C 
HETATM   18  O2  UNL     1      34.379   4.447  45.516  1.00  0.00    -0.388 OA
HETATM   19  C9  UNL     1      32.999   4.354  45.370  1.00  0.00     0.198 C 
HETATM   20  C10 UNL     1      32.341   3.688  46.558  1.00  0.00     0.298 C 
ENDBRANCH  14  15
ENDBRANCH  13  14
ENDBRANCH  12  13
ENDBRANCH  11  12
ENDBRANCH   3  11
BRANCH   6  21
HETATM   21  N2  UNL     1      26.413   3.076  49.830  1.00  0.00    -0.340 N 
HETATM   22  H18 UNL     1      27.215   2.649  49.295  1.00  0.00     0.167 HD
BRANCH  21  23
HETATM   23  C14 UNL     1      25.896   2.289  50.887  1.00  0.00     0.035 A 
HETATM   24  C15 UNL     1      24.590   2.278  51.324  1.00  0.00     0.032 A 
HETATM   25  C16 UNL     1      24.101   1.507  52.355  1.00  0.00     0.046 A 
HETATM   26  C17 UNL     1      24.979   0.680  53.005  1.00  0.00     0.138 A 
HETATM   27  F1  UNL     1      24.538  -0.096  54.024  1.00  0.00    -0.204 F 
HETATM   28  C18 UNL     1      26.291   0.647  52.615  1.00  0.00     0.074 A 
HETATM   29 CL1  UNL     1      27.396  -0.409  53.450  1.00  0.00    -0.081 Cl
HETATM   30  C19 UNL     1      26.715   1.433  51.590  1.00  0.00     0.056 A 
ENDBRANCH  21  23
ENDBRANCH   6  21
TORSDOF 7
ENDMDL
MODEL 9
REMARK VINA RESULT:      -7.6      4.691      8.748
REMARK  7 active torsions:
REMARK  status: ('A' for Active; 'I' for Inactive)
REMARK    1  A    between atoms: C3_3  and  O1_4 
REMARK    2  A    between atoms: O1_4  and  C4_5 
REMARK    3  A    between atoms: C4_5  and  C5_6 
REMARK    4  A    between atoms: C5_6  and  C6_7 
REMARK    5  A    between atoms: C6_7  and  N1_8 
REMARK    6  A    between atoms: C13_16  and  N2_17 
REMARK    7  A    between atoms: N2_17  and  C14_18 
ROOT
HETATM    1  C1  UNL     1      25.182   7.465  49.623  1.00  0.00     0.048 C 
HETATM    2  C2  UNL     1      25.377   6.192  49.821  1.00  0.00     0.005 A 
HETATM    3  C3  UNL     1      26.398   5.397  49.152  1.00  0.00     0.078 A 
HETATM    4  C11 UNL     1      26.283   4.163  49.612  1.00  0.00     0.055 A 
HETATM    5  C12 UNL     1      25.203   4.045  50.597  1.00  0.00     0.042 A 
HETATM    6  C13 UNL     1      24.747   2.949  51.316  1.00  0.00     0.142 A 
HETATM    7  N3  UNL     1      23.727   3.229  52.134  1.00  0.00    -0.224 NA
HETATM    8  C20 UNL     1      23.147   4.424  52.299  1.00  0.00     0.236 A 
HETATM    9  N4  UNL     1      23.635   5.468  51.566  1.00  0.00    -0.240 NA
HETATM   10  C21 UNL     1      24.656   5.300  50.715  1.00  0.00     0.081 A 
ENDROOT
BRANCH   3  11
HETATM   11  O1  UNL     1      27.322   5.835  48.211  1.00  0.00    -0.350 OA
BRANCH  11  12
HETATM   12  C4  UNL     1      28.683   5.420  48.275  1.00  0.00     0.177 C 
BRANCH  12  13
HETATM   13  C5  UNL     1      29.616   6.490  47.791  1.00  0.00     0.057 C 
BRANCH  13  14
HETATM   14  C6  UNL     1      28.879   7.694  47.246  1.00  0.00     0.274 C 
BRANCH  14  15
HETATM   15  N1  UNL     1      29.718   8.844  47.113  1.00  0.00     0.092 N 
HETATM   16  C7  UNL     1      30.737   8.779  48.148  1.00  0.00     0.298 C 
HETATM   17  C8  UNL     1      30.370   9.563  49.370  1.00  0.00     0.198 C 
HETATM   18  O2  UNL     1      29.001   9.632  49.611  1.00  0.00    -0.388 OA
HETATM   19  C9  UNL     1      28.324  10.258  48.571  1.00  0.00     0.198 C 
HETATM   20  C10 UNL     1      29.035  10.096  47.245  1.00  0.00     0.298 C 
ENDBRANCH  14  15
ENDBRANCH  13  14
ENDBRANCH  12  13
ENDBRANCH  11  12
ENDBRANCH   3  11
BRANCH   6  21
HETATM   21  N2  UNL     1      25.359   1.683  51.145  1.00  0.00    -0.340 N 
HETATM   22  H18 UNL     1      25.049   1.126  50.306  1.00  0.00     0.167 HD
BRANCH  21  23
HETATM   23  C14 UNL     1      26.337   1.064  51.961  1.00  0.00     0.035 A 
HETATM   24  C15 UNL     1      26.469  -0.288  52.182  1.00  0.00     0.032 A 
HETATM   25  C16 UNL     1      27.426  -0.876  52.979  1.00  0.00     0.046 A 
HETATM   26  C17 UNL     1      28.324  -0.054  53.608  1.00  0.00     0.138 A 
HETATM   27  F1  UNL     1      29.282  -0.593  54.401  1.00  0.00    -0.204 F 
HETATM   28  C18 UNL     1      28.243   1.300  53.427  1.00  0.00     0.074 A 
HETATM   29 CL1  UNL     1      29.391   2.332  54.233  1.00  0.00    -0.081 Cl
HETATM   30  C19 UNL     1      27.275   1.822  52.628  1.00  0.00     0.056 A 
ENDBRANCH  21  23
ENDBRANCH   6  21
TORSDOF 7
ENDMDL
