MODEL 1
REMARK VINA RESULT:      -8.0      0.000      0.000
REMARK  4 active torsions:
REMARK  status: ('A' for Active; 'I' for Inactive)
REMARK    1  A    between atoms: C2_3  and  C3_4 
REMARK       I    between atoms: C3_4  and  N2_6 
REMARK    2  A    between atoms: N2_6  and  C4_7 
REMARK    3  A    between atoms: C9_13  and  N3_14 
REMARK    4  A    between atoms: N3_14  and  C10_15 
ROOT
HETATM    1  N1  UNL     1      21.953   2.511  48.903  1.00  0.00    -0.197 NA
HETATM    2  C1  UNL     1      22.871   2.927  49.482  1.00  0.00     0.068 C 
HETATM    3  C2  UNL     1      24.028   3.431  50.187  1.00  0.00     0.226 C 
ENDROOT
BRANCH   3   4
HETATM    4  C3  UNL     1      23.851   3.046  51.618  1.00  0.00     0.235 C 
HETATM    5  O1  UNL     1      24.068   3.788  52.604  1.00  0.00    -0.272 OA
HETATM    6  N2  UNL     1      23.400   1.715  51.735  1.00  0.00    -0.323 N 
HETATM    7  H3  UNL     1      23.210   1.052  50.926  1.00  0.00     0.169 HD
BRANCH   6   8
HETATM    8  C4  UNL     1      23.065   0.813  52.775  1.00  0.00     0.079 A 
HETATM    9  C5  UNL     1      21.704   0.893  53.093  1.00  0.00     0.040 A 
HETATM   10 BR1  UNL     1      20.465   2.092  52.237  1.00  0.00    -0.049 Br
HETATM   11  C6  UNL     1      21.161   0.083  54.074  1.00  0.00     0.021 A 
HETATM   12  C7  UNL     1      21.953  -0.816  54.755  1.00  0.00     0.004 A 
HETATM   13  C8  UNL     1      23.294  -0.912  54.460  1.00  0.00     0.032 A 
HETATM   14  C9  UNL     1      23.816  -0.100  53.482  1.00  0.00     0.062 A 
BRANCH  14  15
HETATM   15  N3  UNL     1      25.178  -0.139  53.096  1.00  0.00    -0.338 N 
HETATM   16  H7  UNL     1      25.220  -0.917  52.372  1.00  0.00     0.167 HD
BRANCH  15  17
HETATM   17  C10 UNL     1      26.452   0.401  53.261  1.00  0.00     0.141 A 
HETATM   18  N4  UNL     1      26.757   1.695  53.425  1.00  0.00    -0.224 NA
HETATM   19  C11 UNL     1      27.984   2.174  53.565  1.00  0.00     0.235 A 
HETATM   20  N5  UNL     1      28.968   1.278  53.536  1.00  0.00    -0.241 NA
HETATM   21  C12 UNL     1      28.802  -0.046  53.379  1.00  0.00     0.068 A 
HETATM   22  C13 UNL     1      27.514  -0.503  53.237  1.00  0.00     0.035 A 
HETATM   23  C16 UNL     1      29.707  -1.024  53.334  1.00  0.00     0.010 A 
HETATM   24  C14 UNL     1      27.560  -1.822  53.095  1.00  0.00    -0.005 A 
HETATM   25  C15 UNL     1      28.987  -2.307  53.143  1.00  0.00     0.057 A 
ENDBRANCH  15  17
ENDBRANCH  14  15
ENDBRANCH   6   8
ENDBRANCH   3   4
TORSDOF 4
ENDMDL
MODEL 2
REMARK VINA RESULT:      -8.0      1.687      3.899
REMARK  4 active torsions:
REMARK  status: ('A' for Active; 'I' for Inactive)
REMARK    1  A    between atoms: C2_3  and  C3_4 
REMARK       I    between atoms: C3_4  and  N2_6 
REMARK    2  A    between atoms: N2_6  and  C4_7 
REMARK    3  A    between atoms: C9_13  and  N3_14 
REMARK    4  A    between atoms: N3_14  and  C10_15 
ROOT
HETATM    1  N1  UNL     1      21.857  -1.940  55.087  1.00  0.00    -0.197 NA
HETATM    2  C1  UNL     1      21.880  -0.891  54.589  1.00  0.00     0.068 C 
HETATM    3  C2  UNL     1      21.886   0.411  53.960  1.00  0.00     0.226 C 
ENDROOT
BRANCH   3   4
HETATM    4  C3  UNL     1      23.101   0.454  53.093  1.00  0.00     0.235 C 
HETATM    5  O1  UNL     1      23.958  -0.455  52.995  1.00  0.00    -0.272 OA
HETATM    6  N2  UNL     1      23.174   1.669  52.380  1.00  0.00    -0.323 N 
HETATM    7  H3  UNL     1      22.473   2.465  52.440  1.00  0.00     0.169 HD
BRANCH   6   8
HETATM    8  C4  UNL     1      24.045   2.281  51.446  1.00  0.00     0.079 A 
HETATM    9  C5  UNL     1      23.327   2.942  50.444  1.00  0.00     0.040 A 
HETATM   10 BR1  UNL     1      21.404   2.988  50.347  1.00  0.00    -0.049 Br
HETATM   11  C6  UNL     1      23.985   3.622  49.435  1.00  0.00     0.021 A 
HETATM   12  C7  UNL     1      25.363   3.658  49.402  1.00  0.00     0.004 A 
HETATM   13  C8  UNL     1      26.091   3.015  50.377  1.00  0.00     0.032 A 
HETATM   14  C9  UNL     1      25.420   2.345  51.371  1.00  0.00     0.062 A 
BRANCH  14  15
HETATM   15  N3  UNL     1      26.080   1.670  52.425  1.00  0.00    -0.338 N 
HETATM   16  H7  UNL     1      25.309   1.116  52.903  1.00  0.00     0.167 HD
BRANCH  15  17
HETATM   17  C10 UNL     1      27.286   1.432  53.082  1.00  0.00     0.141 A 
HETATM   18  N4  UNL     1      28.046   2.337  53.712  1.00  0.00    -0.224 NA
HETATM   19  C11 UNL     1      29.197   2.076  54.314  1.00  0.00     0.235 A 
HETATM   20  N5  UNL     1      29.604   0.809  54.273  1.00  0.00    -0.241 NA
HETATM   21  C12 UNL     1      28.940  -0.196  53.677  1.00  0.00     0.068 A 
HETATM   22  C13 UNL     1      27.751   0.117  53.064  1.00  0.00     0.035 A 
HETATM   23  C16 UNL     1      29.252  -1.487  53.575  1.00  0.00     0.010 A 
HETATM   24  C14 UNL     1      27.255  -0.998  52.539  1.00  0.00    -0.005 A 
HETATM   25  C15 UNL     1      28.173  -2.162  52.813  1.00  0.00     0.057 A 
ENDBRANCH  15  17
ENDBRANCH  14  15
ENDBRANCH   6   8
ENDBRANCH   3   4
TORSDOF 4
ENDMDL
MODEL 3
REMARK VINA RESULT:      -7.9      2.257      2.886
REMARK  4 active torsions:
REMARK  status: ('A' for Active; 'I' for Inactive)
REMARK    1  A    between atoms: C2_3  and  C3_4 
REMARK       I    between atoms: C3_4  and  N2_6 
REMARK    2  A    between atoms: N2_6  and  C4_7 
REMARK    3  A    between atoms: C9_13  and  N3_14 
REMARK    4  A    between atoms: N3_14  and  C10_15 
ROOT
HETATM    1  N1  UNL     1      24.902   7.035  50.391  1.00  0.00    -0.197 NA
HETATM    2  C1  UNL     1      25.573   6.252  49.856  1.00  0.00     0.068 C 
HETATM    3  C2  UNL     1      26.398   5.283  49.169  1.00  0.00     0.226 C 
ENDROOT
BRANCH   3   4
HETATM    4  C3  UNL     1      26.182   3.979  49.862  1.00  0.00     0.235 C 
HETATM    5  O1  UNL     1      26.949   2.990  49.806  1.00  0.00    -0.272 OA
HETATM    6  N2  UNL     1      24.982   3.989  50.603  1.00  0.00    -0.323 N 
HETATM    7  H3  UNL     1      24.303   4.803  50.671  1.00  0.00     0.169 HD
BRANCH   6   8
HETATM    8  C4  UNL     1      24.259   3.096  51.432  1.00  0.00     0.079 A 
HETATM    9  C5  UNL     1      22.941   2.948  50.985  1.00  0.00     0.040 A 
HETATM   10 BR1  UNL     1      22.212   3.862  49.455  1.00  0.00    -0.049 Br
HETATM   11  C6  UNL     1      22.063   2.106  51.644  1.00  0.00     0.021 A 
HETATM   12  C7  UNL     1      22.475   1.399  52.753  1.00  0.00     0.004 A 
HETATM   13  C8  UNL     1      23.767   1.528  53.211  1.00  0.00     0.032 A 
HETATM   14  C9  UNL     1      24.624   2.369  52.544  1.00  0.00     0.062 A 
BRANCH  14  15
HETATM   15  N3  UNL     1      25.974   2.554  52.928  1.00  0.00    -0.338 N 
HETATM   16  H7  UNL     1      26.129   3.602  52.837  1.00  0.00     0.167 HD
BRANCH  15  17
HETATM   17  C10 UNL     1      27.153   1.955  53.366  1.00  0.00     0.141 A 
HETATM   18  N4  UNL     1      28.170   2.557  53.997  1.00  0.00    -0.224 NA
HETATM   19  C11 UNL     1      29.285   1.957  54.386  1.00  0.00     0.235 A 
HETATM   20  N5  UNL     1      29.373   0.656  54.117  1.00  0.00    -0.241 NA
HETATM   21  C12 UNL     1      28.429  -0.069  53.493  1.00  0.00     0.068 A 
HETATM   22  C13 UNL     1      27.288   0.591  53.105  1.00  0.00     0.035 A 
HETATM   23  C16 UNL     1      28.413  -1.363  53.175  1.00  0.00     0.010 A 
HETATM   24  C14 UNL     1      26.488  -0.287  52.512  1.00  0.00    -0.005 A 
HETATM   25  C15 UNL     1      27.128  -1.652  52.492  1.00  0.00     0.057 A 
ENDBRANCH  15  17
ENDBRANCH  14  15
ENDBRANCH   6   8
ENDBRANCH   3   4
TORSDOF 4
ENDMDL
MODEL 4
REMARK VINA RESULT:      -7.8      2.359      4.502
REMARK  4 active torsions:
REMARK  status: ('A' for Active; 'I' for Inactive)
REMARK    1  A    between atoms: C2_3  and  C3_4 
REMARK       I    between atoms: C3_4  and  N2_6 
REMARK    2  A    between atoms: N2_6  and  C4_7 
REMARK    3  A    between atoms: C9_13  and  N3_14 
REMARK    4  A    between atoms: N3_14  and  C10_15 
ROOT
HETATM    1  N1  UNL     1      21.967   1.170  50.069  1.00  0.00    -0.197 NA
HETATM    2  C1  UNL     1      22.060   1.779  51.055  1.00  0.00     0.068 C 
HETATM    3  C2  UNL     1      22.152   2.546  52.277  1.00  0.00     0.226 C 
ENDROOT
BRANCH   3   4
HETATM    4  C3  UNL     1      23.418   3.331  52.187  1.00  0.00     0.235 C 
HETATM    5  O1  UNL     1      24.019   3.856  53.153  1.00  0.00    -0.272 OA
HETATM    6  N2  UNL     1      23.870   3.416  50.853  1.00  0.00    -0.323 N 
HETATM    7  H3  UNL     1      23.388   2.991  50.008  1.00  0.00     0.169 HD
BRANCH   6   8
HETATM    8  C4  UNL     1      24.956   3.999  50.154  1.00  0.00     0.079 A 
HETATM    9  C5  UNL     1      24.540   5.111  49.414  1.00  0.00     0.040 A 
HETATM   10 BR1  UNL     1      22.723   5.744  49.346  1.00  0.00    -0.049 Br
HETATM   11  C6  UNL     1      25.448   5.841  48.667  1.00  0.00     0.021 A 
HETATM   12  C7  UNL     1      26.778   5.481  48.641  1.00  0.00     0.004 A 
HETATM   13  C8  UNL     1      27.211   4.390  49.360  1.00  0.00     0.032 A 
HETATM   14  C9  UNL     1      26.295   3.678  50.096  1.00  0.00     0.062 A 
BRANCH  14  15
HETATM   15  N3  UNL     1      26.646   2.554  50.882  1.00  0.00    -0.338 N 
HETATM   16  H7  UNL     1      26.390   1.721  50.273  1.00  0.00     0.167 HD
BRANCH  15  17
HETATM   17  C10 UNL     1      27.175   2.093  52.086  1.00  0.00     0.141 A 
HETATM   18  N4  UNL     1      28.291   2.526  52.687  1.00  0.00    -0.224 NA
HETATM   19  C11 UNL     1      28.772   2.054  53.827  1.00  0.00     0.235 A 
HETATM   20  N5  UNL     1      28.072   1.074  54.396  1.00  0.00    -0.241 NA
HETATM   21  C12 UNL     1      26.939   0.549  53.901  1.00  0.00     0.068 A 
HETATM   22  C13 UNL     1      26.473   1.067  52.717  1.00  0.00     0.035 A 
HETATM   23  C16 UNL     1      26.165  -0.425  54.381  1.00  0.00     0.010 A 
HETATM   24  C14 UNL     1      25.357   0.422  52.398  1.00  0.00    -0.005 A 
HETATM   25  C15 UNL     1      25.032  -0.616  53.442  1.00  0.00     0.057 A 
ENDBRANCH  15  17
ENDBRANCH  14  15
ENDBRANCH   6   8
ENDBRANCH   3   4
TORSDOF 4
ENDMDL
MODEL 5
REMARK VINA RESULT:      -7.5      2.116      3.506
REMARK  4 active torsions:
REMARK  status: ('A' for Active; 'I' for Inactive)
REMARK    1  A    between atoms: C2_3  and  C3_4 
REMARK       I    between atoms: C3_4  and  N2_6 
REMARK    2  A    between atoms: N2_6  and  C4_7 
REMARK    3  A    between atoms: C9_13  and  N3_14 
REMARK    4  A    between atoms: N3_14  and  C10_15 
ROOT
HETATM    1  N1  UNL     1      21.576   1.566  48.577  1.00  0.00    -0.197 NA
HETATM    2  C1  UNL     1      20.794   2.091  49.260  1.00  0.00     0.068 C 
HETATM    3  C2  UNL     1      19.828   2.764  50.097  1.00  0.00     0.226 C 
ENDROOT
BRANCH   3   4
HETATM    4  C3  UNL     1      20.224   2.483  51.508  1.00  0.00     0.235 C 
HETATM    5  O1  UNL     1      20.077   3.266  52.476  1.00  0.00    -0.272 OA
HETATM    6  N2  UNL     1      20.799   1.200  51.629  1.00  0.00    -0.323 N 
HETATM    7  H3  UNL     1      20.946   0.510  50.835  1.00  0.00     0.169 HD
BRANCH   6   8
HETATM    8  C4  UNL     1      21.348   0.395  52.657  1.00  0.00     0.079 A 
HETATM    9  C5  UNL     1      20.383  -0.463  53.196  1.00  0.00     0.040 A 
HETATM   10 BR1  UNL     1      18.545  -0.515  52.623  1.00  0.00    -0.049 Br
HETATM   11  C6  UNL     1      20.712  -1.350  54.206  1.00  0.00     0.021 A 
HETATM   12  C7  UNL     1      21.999  -1.402  54.696  1.00  0.00     0.004 A 
HETATM   13  C8  UNL     1      22.966  -0.568  54.181  1.00  0.00     0.032 A 
HETATM   14  C9  UNL     1      22.620   0.306  53.179  1.00  0.00     0.062 A 
BRANCH  14  15
HETATM   15  N3  UNL     1      23.547   1.189  52.575  1.00  0.00    -0.338 N 
HETATM   16  H7  UNL     1      22.939   1.880  52.042  1.00  0.00     0.167 HD
BRANCH  15  17
HETATM   17  C10 UNL     1      24.887   1.525  52.391  1.00  0.00     0.141 A 
HETATM   18  N4  UNL     1      25.920   1.137  53.150  1.00  0.00    -0.224 NA
HETATM   19  C11 UNL     1      27.182   1.488  52.953  1.00  0.00     0.235 A 
HETATM   20  N5  UNL     1      27.411   2.289  51.914  1.00  0.00    -0.241 NA
HETATM   21  C12 UNL     1      26.469   2.750  51.074  1.00  0.00     0.068 A 
HETATM   22  C13 UNL     1      25.173   2.363  51.313  1.00  0.00     0.035 A 
HETATM   23  C16 UNL     1      26.584   3.550  50.014  1.00  0.00     0.010 A 
HETATM   24  C14 UNL     1      24.402   2.917  50.386  1.00  0.00    -0.005 A 
HETATM   25  C15 UNL     1      25.231   3.748  49.440  1.00  0.00     0.057 A 
ENDBRANCH  15  17
ENDBRANCH  14  15
ENDBRANCH   6   8
ENDBRANCH   3   4
TORSDOF 4
ENDMDL
MODEL 6
REMARK VINA RESULT:      -7.4      1.816      2.586
REMARK  4 active torsions:
REMARK  status: ('A' for Active; 'I' for Inactive)
REMARK    1  A    between atoms: C2_3  and  C3_4 
REMARK       I    between atoms: C3_4  and  N2_6 
REMARK    2  A    between atoms: N2_6  and  C4_7 
REMARK    3  A    between atoms: C9_13  and  N3_14 
REMARK    4  A    between atoms: N3_14  and  C10_15 
ROOT
HETATM    1  N1  UNL     1      26.127   5.714  49.379  1.00  0.00    -0.197 NA
HETATM    2  C1  UNL     1      26.057   4.587  49.656  1.00  0.00     0.068 C 
HETATM    3  C2  UNL     1      25.966   3.181  49.978  1.00  0.00     0.226 C 
ENDROOT
BRANCH   3   4
HETATM    4  C3  UNL     1      24.904   3.054  51.019  1.00  0.00     0.235 C 
HETATM    5  O1  UNL     1      24.502   3.977  51.765  1.00  0.00    -0.272 OA
HETATM    6  N2  UNL     1      24.394   1.740  51.068  1.00  0.00    -0.323 N 
HETATM    7  H3  UNL     1      24.711   0.929  50.459  1.00  0.00     0.169 HD
BRANCH   6   8
HETATM    8  C4  UNL     1      23.422   1.024  51.810  1.00  0.00     0.079 A 
HETATM    9  C5  UNL     1      22.161   1.119  51.211  1.00  0.00     0.040 A 
HETATM   10 BR1  UNL     1      21.802   2.114  49.602  1.00  0.00    -0.049 Br
HETATM   11  C6  UNL     1      21.067   0.478  51.765  1.00  0.00     0.021 A 
HETATM   12  C7  UNL     1      21.205  -0.265  52.918  1.00  0.00     0.004 A 
HETATM   13  C8  UNL     1      22.436  -0.373  53.525  1.00  0.00     0.032 A 
HETATM   14  C9  UNL     1      23.510   0.270  52.960  1.00  0.00     0.062 A 
BRANCH  14  15
HETATM   15  N3  UNL     1      24.817   0.204  53.500  1.00  0.00    -0.338 N 
HETATM   16  H7  UNL     1      24.790   0.869  54.329  1.00  0.00     0.167 HD
BRANCH  15  17
HETATM   17  C10 UNL     1      26.090  -0.354  53.404  1.00  0.00     0.141 A 
HETATM   18  N4  UNL     1      26.385  -1.650  53.233  1.00  0.00    -0.224 NA
HETATM   19  C11 UNL     1      27.611  -2.147  53.161  1.00  0.00     0.235 A 
HETATM   20  N5  UNL     1      28.605  -1.268  53.269  1.00  0.00    -0.241 NA
HETATM   21  C12 UNL     1      28.450   0.055  53.442  1.00  0.00     0.068 A 
HETATM   22  C13 UNL     1      27.163   0.530  53.512  1.00  0.00     0.035 A 
HETATM   23  C16 UNL     1      29.365   1.016  53.563  1.00  0.00     0.010 A 
HETATM   24  C14 UNL     1      27.221   1.846  53.683  1.00  0.00    -0.005 A 
HETATM   25  C15 UNL     1      28.655   2.308  53.735  1.00  0.00     0.057 A 
ENDBRANCH  15  17
ENDBRANCH  14  15
ENDBRANCH   6   8
ENDBRANCH   3   4
TORSDOF 4
ENDMDL
MODEL 7
REMARK VINA RESULT:      -7.4      2.750      5.834
REMARK  4 active torsions:
REMARK  status: ('A' for Active; 'I' for Inactive)
REMARK    1  A    between atoms: C2_3  and  C3_4 
REMARK       I    between atoms: C3_4  and  N2_6 
REMARK    2  A    between atoms: N2_6  and  C4_7 
REMARK    3  A    between atoms: C9_13  and  N3_14 
REMARK    4  A    between atoms: N3_14  and  C10_15 
ROOT
HETATM    1  N1  UNL     1      29.763   0.335  53.580  1.00  0.00    -0.197 NA
HETATM    2  C1  UNL     1      28.867   1.070  53.670  1.00  0.00     0.068 C 
HETATM    3  C2  UNL     1      27.749   1.976  53.804  1.00  0.00     0.226 C 
ENDROOT
BRANCH   3   4
HETATM    4  C3  UNL     1      26.872   1.742  52.619  1.00  0.00     0.235 C 
HETATM    5  O1  UNL     1      27.250   1.735  51.424  1.00  0.00    -0.272 OA
HETATM    6  N2  UNL     1      25.534   1.526  53.010  1.00  0.00    -0.323 N 
HETATM    7  H3  UNL     1      25.173   1.530  54.009  1.00  0.00     0.169 HD
BRANCH   6   8
HETATM    8  C4  UNL     1      24.291   1.265  52.382  1.00  0.00     0.079 A 
HETATM    9  C5  UNL     1      23.602   0.237  53.034  1.00  0.00     0.040 A 
HETATM   10 BR1  UNL     1      24.276  -0.707  54.572  1.00  0.00    -0.049 Br
HETATM   11  C6  UNL     1      22.355  -0.168  52.593  1.00  0.00     0.021 A 
HETATM   12  C7  UNL     1      21.773   0.437  51.500  1.00  0.00     0.004 A 
HETATM   13  C8  UNL     1      22.432   1.450  50.841  1.00  0.00     0.032 A 
HETATM   14  C9  UNL     1      23.669   1.839  51.295  1.00  0.00     0.062 A 
BRANCH  14  15
HETATM   15  N3  UNL     1      24.415   2.882  50.696  1.00  0.00    -0.338 N 
HETATM   16  H7  UNL     1      25.315   2.411  50.381  1.00  0.00     0.167 HD
BRANCH  15  17
HETATM   17  C10 UNL     1      24.462   4.232  50.353  1.00  0.00     0.141 A 
HETATM   18  N4  UNL     1      23.516   5.151  50.587  1.00  0.00    -0.224 NA
HETATM   19  C11 UNL     1      23.590   6.425  50.233  1.00  0.00     0.235 A 
HETATM   20  N5  UNL     1      24.701   6.792  49.597  1.00  0.00    -0.241 NA
HETATM   21  C12 UNL     1      25.725   5.974  49.300  1.00  0.00     0.068 A 
HETATM   22  C13 UNL     1      25.609   4.661  49.685  1.00  0.00     0.035 A 
HETATM   23  C16 UNL     1      26.872   6.232  48.673  1.00  0.00     0.010 A 
HETATM   24  C14 UNL     1      26.710   4.023  49.304  1.00  0.00    -0.005 A 
HETATM   25  C15 UNL     1      27.653   4.971  48.607  1.00  0.00     0.057 A 
ENDBRANCH  15  17
ENDBRANCH  14  15
ENDBRANCH   6   8
ENDBRANCH   3   4
TORSDOF 4
ENDMDL
MODEL 8
REMARK VINA RESULT:      -7.3      3.015      5.831
REMARK  4 active torsions:
REMARK  status: ('A' for Active; 'I' for Inactive)
REMARK    1  A    between atoms: C2_3  and  C3_4 
REMARK       I    between atoms: C3_4  and  N2_6 
REMARK    2  A    between atoms: N2_6  and  C4_7 
REMARK    3  A    between atoms: C9_13  and  N3_14 
REMARK    4  A    between atoms: N3_14  and  C10_15 
ROOT
HETATM    1  N1  UNL     1      21.228   5.394  51.206  1.00  0.00    -0.197 NA
HETATM    2  C1  UNL     1      21.187   4.652  50.313  1.00  0.00     0.068 C 
HETATM    3  C2  UNL     1      21.111   3.727  49.205  1.00  0.00     0.226 C 
ENDROOT
BRANCH   3   4
HETATM    4  C3  UNL     1      22.050   2.610  49.523  1.00  0.00     0.235 C 
HETATM    5  O1  UNL     1      21.921   1.421  49.148  1.00  0.00    -0.272 OA
HETATM    6  N2  UNL     1      23.125   3.061  50.317  1.00  0.00    -0.323 N 
HETATM    7  H3  UNL     1      23.268   4.056  50.660  1.00  0.00     0.169 HD
BRANCH   6   8
HETATM    8  C4  UNL     1      24.283   2.507  50.918  1.00  0.00     0.079 A 
HETATM    9  C5  UNL     1      25.433   3.208  50.536  1.00  0.00     0.040 A 
HETATM   10 BR1  UNL     1      25.431   4.711  49.333  1.00  0.00    -0.049 Br
HETATM   11  C6  UNL     1      26.675   2.843  51.022  1.00  0.00     0.021 A 
HETATM   12  C7  UNL     1      26.799   1.781  51.892  1.00  0.00     0.004 A 
HETATM   13  C8  UNL     1      25.682   1.076  52.282  1.00  0.00     0.032 A 
HETATM   14  C9  UNL     1      24.457   1.454  51.788  1.00  0.00     0.062 A 
BRANCH  14  15
HETATM   15  N3  UNL     1      23.251   0.804  52.145  1.00  0.00    -0.338 N 
HETATM   16  H7  UNL     1      22.585   1.038  51.350  1.00  0.00     0.167 HD
BRANCH  15  17
HETATM   17  C10 UNL     1      22.588   0.005  53.075  1.00  0.00     0.141 A 
HETATM   18  N4  UNL     1      23.139  -0.639  54.112  1.00  0.00    -0.224 NA
HETATM   19  C11 UNL     1      22.479  -1.403  54.969  1.00  0.00     0.235 A 
HETATM   20  N5  UNL     1      21.169  -1.521  54.759  1.00  0.00    -0.241 NA
HETATM   21  C12 UNL     1      20.492  -0.930  53.760  1.00  0.00     0.068 A 
HETATM   22  C13 UNL     1      21.214  -0.146  52.893  1.00  0.00     0.035 A 
HETATM   23  C16 UNL     1      19.195  -0.979  53.458  1.00  0.00     0.010 A 
HETATM   24  C14 UNL     1      20.375   0.342  51.987  1.00  0.00    -0.005 A 
HETATM   25  C15 UNL     1      18.973  -0.142  52.252  1.00  0.00     0.057 A 
ENDBRANCH  15  17
ENDBRANCH  14  15
ENDBRANCH   6   8
ENDBRANCH   3   4
TORSDOF 4
ENDMDL
MODEL 9
REMARK VINA RESULT:      -7.2      2.942      5.287
REMARK  4 active torsions:
REMARK  status: ('A' for Active; 'I' for Inactive)
REMARK    1  A    between atoms: C2_3  and  C3_4 
REMARK       I    between atoms: C3_4  and  N2_6 
REMARK    2  A    between atoms: N2_6  and  C4_7 
REMARK    3  A    between atoms: C9_13  and  N3_14 
REMARK    4  A    between atoms: N3_14  and  C10_15 
ROOT
HETATM    1  N1  UNL     1      18.162   3.677  51.916  1.00  0.00    -0.197 NA
HETATM    2  C1  UNL     1      18.951   2.854  51.690  1.00  0.00     0.068 C 
HETATM    3  C2  UNL     1      19.919   1.814  51.423  1.00  0.00     0.226 C 
ENDROOT
BRANCH   3   4
HETATM    4  C3  UNL     1      21.236   2.332  51.899  1.00  0.00     0.235 C 
HETATM    5  O1  UNL     1      21.462   3.503  52.284  1.00  0.00    -0.272 OA
HETATM    6  N2  UNL     1      22.222   1.324  51.862  1.00  0.00    -0.323 N 
HETATM    7  H3  UNL     1      22.073   0.323  51.538  1.00  0.00     0.169 HD
BRANCH   6   8
HETATM    8  C4  UNL     1      23.600   1.199  52.169  1.00  0.00     0.079 A 
HETATM    9  C5  UNL     1      23.830   0.113  53.021  1.00  0.00     0.040 A 
HETATM   10 BR1  UNL     1      22.444  -1.039  53.700  1.00  0.00    -0.049 Br
HETATM   11  C6  UNL     1      25.113  -0.200  53.435  1.00  0.00     0.021 A 
HETATM   12  C7  UNL     1      26.185   0.555  53.012  1.00  0.00     0.004 A 
HETATM   13  C8  UNL     1      25.983   1.628  52.173  1.00  0.00     0.032 A 
HETATM   14  C9  UNL     1      24.703   1.923  51.774  1.00  0.00     0.062 A 
BRANCH  14  15
HETATM   15  N3  UNL     1      24.398   2.994  50.899  1.00  0.00    -0.338 N 
HETATM   16  H7  UNL     1      23.752   2.561  50.173  1.00  0.00     0.167 HD
BRANCH  15  17
HETATM   17  C10 UNL     1      24.582   4.342  50.599  1.00  0.00     0.141 A 
HETATM   18  N4  UNL     1      23.779   5.356  50.947  1.00  0.00    -0.224 NA
HETATM   19  C11 UNL     1      23.980   6.627  50.630  1.00  0.00     0.235 A 
HETATM   20  N5  UNL     1      25.070   6.886  49.911  1.00  0.00    -0.241 NA
HETATM   21  C12 UNL     1      25.958   5.965  49.498  1.00  0.00     0.068 A 
HETATM   22  C13 UNL     1      25.713   4.659  49.846  1.00  0.00     0.035 A 
HETATM   23  C16 UNL     1      27.071   6.111  48.780  1.00  0.00     0.010 A 
HETATM   24  C14 UNL     1      26.692   3.912  49.349  1.00  0.00    -0.005 A 
HETATM   25  C15 UNL     1      27.682   4.770  48.602  1.00  0.00     0.057 A 
ENDBRANCH  15  17
ENDBRANCH  14  15
ENDBRANCH   6   8
ENDBRANCH   3   4
TORSDOF 4
ENDMDL
