MODEL 1
REMARK VINA RESULT:      -7.9      0.000      0.000
REMARK  8 active torsions:
REMARK  status: ('A' for Active; 'I' for Inactive)
REMARK    1  A    between atoms: C3_3  and  C4_4 
REMARK    2  A    between atoms: C3_3  and  O1_15 
REMARK    3  A    between atoms: C4_4  and  N1_5 
REMARK    4  A    between atoms: N1_5  and  C5_6 
REMARK    5  A    between atoms: C5_6  and  C6_7 
REMARK    6  A    between atoms: C6_7  and  C7_8 
REMARK    7  A    between atoms: O1_15  and  C14_16 
REMARK       I    between atoms: C14_16  and  N2_18 
REMARK    8  A    between atoms: N2_18  and  C15_19 
ROOT
HETATM    1  C1  UNL     1      21.158  -0.854  54.579  1.00  0.00     0.038 C 
HETATM    2  C2  UNL     1      21.833   0.175  53.749  1.00  0.00     0.003 C 
HETATM    3  C3  UNL     1      23.043   0.147  53.216  1.00  0.00     0.071 C 
ENDROOT
BRANCH   3   4
HETATM    4  C4  UNL     1      23.510   1.307  52.414  1.00  0.00     0.178 C 
BRANCH   4   5
HETATM    5  N1  UNL     1      22.492   2.320  52.447  1.00  0.00    -0.415 N 
HETATM    6  H7  UNL     1      21.523   1.984  52.540  1.00  0.00     0.153 HD
BRANCH   5   7
HETATM    7  C5  UNL     1      22.702   3.366  51.476  1.00  0.00     0.118 C 
BRANCH   7   8
HETATM    8  C6  UNL     1      23.234   2.892  50.157  1.00  0.00     0.053 C 
BRANCH   8   9
HETATM    9  C7  UNL     1      24.416   3.711  49.712  1.00  0.00    -0.078 A 
HETATM   10  C8  UNL     1      24.136   4.930  49.231  1.00  0.00     0.003 A 
HETATM   11  C9  UNL     1      25.293   5.711  48.805  1.00  0.00     0.003 A 
HETATM   12  C10 UNL     1      26.498   5.205  48.909  1.00  0.00    -0.084 A 
HETATM   13  C11 UNL     1      27.537   6.146  48.425  1.00  0.00     0.043 C 
HETATM   14  C12 UNL     1      26.879   3.871  49.428  1.00  0.00     0.038 A 
HETATM   15  C13 UNL     1      25.731   3.042  49.874  1.00  0.00     0.038 A 
ENDBRANCH   8   9
ENDBRANCH   7   8
ENDBRANCH   5   7
ENDBRANCH   4   5
ENDBRANCH   3   4
BRANCH   3  16
HETATM   16  O1  UNL     1      23.869  -0.951  53.403  1.00  0.00    -0.264 OA
BRANCH  16  17
HETATM   17  C14 UNL     1      25.222  -0.833  53.675  1.00  0.00     0.370 C 
HETATM   18  O2  UNL     1      25.788  -0.716  54.798  1.00  0.00    -0.238 OA
HETATM   19  N2  UNL     1      26.189  -0.829  52.625  1.00  0.00    -0.302 N 
HETATM   20  H21 UNL     1      25.906  -0.917  51.610  1.00  0.00     0.171 HD
BRANCH  19  21
HETATM   21  C15 UNL     1      27.575  -0.700  53.005  1.00  0.00     0.036 A 
HETATM   22  C16 UNL     1      28.147   0.525  53.327  1.00  0.00     0.029 A 
HETATM   23  C17 UNL     1      29.485   0.609  53.687  1.00  0.00     0.002 A 
HETATM   24  C18 UNL     1      30.213  -0.555  53.714  1.00  0.00     0.000 A 
HETATM   25  C19 UNL     1      29.682  -1.781  53.404  1.00  0.00     0.002 A 
HETATM   26  C20 UNL     1      28.340  -1.858  53.043  1.00  0.00     0.029 A 
ENDBRANCH  19  21
ENDBRANCH  16  17
ENDBRANCH   3  16
TORSDOF 8
ENDMDL
MODEL 2
REMARK VINA RESULT:      -7.4      2.403      6.395
REMARK  8 active torsions:
REMARK  status: ('A' for Active; 'I' for Inactive)
REMARK    1  A    between atoms: C3_3  and  C4_4 
REMARK    2  A    between atoms: C3_3  and  O1_15 
REMARK    3  A    between atoms: C4_4  and  N1_5 
REMARK    4  A    between atoms: N1_5  and  C5_6 
REMARK    5  A    between atoms: C5_6  and  C6_7 
REMARK    6  A    between atoms: C6_7  and  C7_8 
REMARK    7  A    between atoms: O1_15  and  C14_16 
REMARK       I    between atoms: C14_16  and  N2_18 
REMARK    8  A    between atoms: N2_18  and  C15_19 
ROOT
HETATM    1  C1  UNL     1      22.306   2.353  47.590  1.00  0.00     0.038 C 
HETATM    2  C2  UNL     1      23.297   3.145  48.361  1.00  0.00     0.003 C 
HETATM    3  C3  UNL     1      23.171   3.687  49.562  1.00  0.00     0.071 C 
ENDROOT
BRANCH   3   4
HETATM    4  C4  UNL     1      24.311   4.445  50.139  1.00  0.00     0.178 C 
BRANCH   4   5
HETATM    5  N1  UNL     1      24.503   4.012  51.495  1.00  0.00    -0.415 N 
HETATM    6  H7  UNL     1      24.650   4.757  52.190  1.00  0.00     0.153 HD
BRANCH   5   7
HETATM    7  C5  UNL     1      25.377   2.869  51.606  1.00  0.00     0.118 C 
BRANCH   7   8
HETATM    8  C6  UNL     1      25.399   2.234  52.965  1.00  0.00     0.053 C 
BRANCH   8   9
HETATM    9  C7  UNL     1      26.607   1.353  53.141  1.00  0.00    -0.078 A 
HETATM   10  C8  UNL     1      26.420   0.047  52.906  1.00  0.00     0.003 A 
HETATM   11  C9  UNL     1      27.601  -0.792  53.082  1.00  0.00     0.003 A 
HETATM   12  C10 UNL     1      28.738  -0.252  53.445  1.00  0.00    -0.084 A 
HETATM   13  C11 UNL     1      29.816  -1.263  53.570  1.00  0.00     0.043 C 
HETATM   14  C12 UNL     1      29.017   1.177  53.720  1.00  0.00     0.038 A 
HETATM   15  C13 UNL     1      27.841   2.068  53.553  1.00  0.00     0.038 A 
ENDBRANCH   8   9
ENDBRANCH   7   8
ENDBRANCH   5   7
ENDBRANCH   4   5
ENDBRANCH   3   4
BRANCH   3  16
HETATM   16  O1  UNL     1      21.990   3.552  50.274  1.00  0.00    -0.264 OA
BRANCH  16  17
HETATM   17  C14 UNL     1      21.836   2.637  51.303  1.00  0.00     0.370 C 
HETATM   18  O2  UNL     1      21.782   2.858  52.545  1.00  0.00    -0.238 OA
HETATM   19  N2  UNL     1      21.716   1.239  51.038  1.00  0.00    -0.302 N 
HETATM   20  H21 UNL     1      21.739   0.858  50.052  1.00  0.00     0.171 HD
BRANCH  19  21
HETATM   21  C15 UNL     1      21.560   0.364  52.173  1.00  0.00     0.036 A 
HETATM   22  C16 UNL     1      22.647  -0.166  52.858  1.00  0.00     0.029 A 
HETATM   23  C17 UNL     1      22.458  -1.007  53.947  1.00  0.00     0.002 A 
HETATM   24  C18 UNL     1      21.166  -1.290  54.317  1.00  0.00     0.000 A 
HETATM   25  C19 UNL     1      20.070  -0.785  53.665  1.00  0.00     0.002 A 
HETATM   26  C20 UNL     1      20.267   0.057  52.574  1.00  0.00     0.029 A 
ENDBRANCH  19  21
ENDBRANCH  16  17
ENDBRANCH   3  16
TORSDOF 8
ENDMDL
MODEL 3
REMARK VINA RESULT:      -7.3      2.471      5.354
REMARK  8 active torsions:
REMARK  status: ('A' for Active; 'I' for Inactive)
REMARK    1  A    between atoms: C3_3  and  C4_4 
REMARK    2  A    between atoms: C3_3  and  O1_15 
REMARK    3  A    between atoms: C4_4  and  N1_5 
REMARK    4  A    between atoms: N1_5  and  C5_6 
REMARK    5  A    between atoms: C5_6  and  C6_7 
REMARK    6  A    between atoms: C6_7  and  C7_8 
REMARK    7  A    between atoms: O1_15  and  C14_16 
REMARK       I    between atoms: C14_16  and  N2_18 
REMARK    8  A    between atoms: N2_18  and  C15_19 
ROOT
HETATM    1  C1  UNL     1      22.600   4.693  52.659  1.00  0.00     0.038 C 
HETATM    2  C2  UNL     1      22.604   4.371  51.210  1.00  0.00     0.003 C 
HETATM    3  C3  UNL     1      23.637   4.176  50.407  1.00  0.00     0.071 C 
ENDROOT
BRANCH   3   4
HETATM    4  C4  UNL     1      23.394   3.861  48.976  1.00  0.00     0.178 C 
BRANCH   4   5
HETATM    5  N1  UNL     1      22.148   3.154  48.872  1.00  0.00    -0.415 N 
HETATM    6  H7  UNL     1      21.348   3.574  49.367  1.00  0.00     0.153 HD
BRANCH   5   7
HETATM    7  C5  UNL     1      22.293   1.726  49.014  1.00  0.00     0.118 C 
BRANCH   7   8
HETATM    8  C6  UNL     1      21.048   1.015  49.454  1.00  0.00     0.053 C 
BRANCH   8   9
HETATM    9  C7  UNL     1      21.120   0.628  50.908  1.00  0.00    -0.078 A 
HETATM   10  C8  UNL     1      22.334   0.689  51.471  1.00  0.00     0.003 A 
HETATM   11  C9  UNL     1      22.385   0.311  52.880  1.00  0.00     0.003 A 
HETATM   12  C10 UNL     1      21.289  -0.054  53.499  1.00  0.00    -0.084 A 
HETATM   13  C11 UNL     1      21.544  -0.399  54.919  1.00  0.00     0.043 C 
HETATM   14  C12 UNL     1      19.919  -0.143  52.941  1.00  0.00     0.038 A 
HETATM   15  C13 UNL     1      19.821   0.233  51.509  1.00  0.00     0.038 A 
ENDBRANCH   8   9
ENDBRANCH   7   8
ENDBRANCH   5   7
ENDBRANCH   4   5
ENDBRANCH   3   4
BRANCH   3  16
HETATM   16  O1  UNL     1      24.932   4.265  50.894  1.00  0.00    -0.264 OA
BRANCH  16  17
HETATM   17  C14 UNL     1      25.698   3.151  51.195  1.00  0.00     0.370 C 
HETATM   18  O2  UNL     1      26.415   2.461  50.419  1.00  0.00    -0.238 OA
HETATM   19  N2  UNL     1      25.754   2.630  52.523  1.00  0.00    -0.302 N 
HETATM   20  H21 UNL     1      25.215   3.076  53.317  1.00  0.00     0.171 HD
BRANCH  19  21
HETATM   21  C15 UNL     1      26.577   1.466  52.741  1.00  0.00     0.036 A 
HETATM   22  C16 UNL     1      27.865   1.551  53.255  1.00  0.00     0.029 A 
HETATM   23  C17 UNL     1      28.628   0.407  53.450  1.00  0.00     0.002 A 
HETATM   24  C18 UNL     1      28.063  -0.800  53.119  1.00  0.00     0.000 A 
HETATM   25  C19 UNL     1      26.795  -0.922  52.611  1.00  0.00     0.002 A 
HETATM   26  C20 UNL     1      26.037   0.229  52.418  1.00  0.00     0.029 A 
ENDBRANCH  19  21
ENDBRANCH  16  17
ENDBRANCH   3  16
TORSDOF 8
ENDMDL
MODEL 4
REMARK VINA RESULT:      -7.3      2.057      5.530
REMARK  8 active torsions:
REMARK  status: ('A' for Active; 'I' for Inactive)
REMARK    1  A    between atoms: C3_3  and  C4_4 
REMARK    2  A    between atoms: C3_3  and  O1_15 
REMARK    3  A    between atoms: C4_4  and  N1_5 
REMARK    4  A    between atoms: N1_5  and  C5_6 
REMARK    5  A    between atoms: C5_6  and  C6_7 
REMARK    6  A    between atoms: C6_7  and  C7_8 
REMARK    7  A    between atoms: O1_15  and  C14_16 
REMARK       I    between atoms: C14_16  and  N2_18 
REMARK    8  A    between atoms: N2_18  and  C15_19 
ROOT
HETATM    1  C1  UNL     1      25.313   5.947  49.729  1.00  0.00     0.038 C 
HETATM    2  C2  UNL     1      24.412   4.791  49.489  1.00  0.00     0.003 C 
HETATM    3  C3  UNL     1      23.936   3.917  50.360  1.00  0.00     0.071 C 
ENDROOT
BRANCH   3   4
HETATM    4  C4  UNL     1      23.041   2.832  49.883  1.00  0.00     0.178 C 
BRANCH   4   5
HETATM    5  N1  UNL     1      21.680   3.231  50.115  1.00  0.00    -0.415 N 
HETATM    6  H7  UNL     1      21.411   4.153  49.745  1.00  0.00     0.153 HD
BRANCH   5   7
HETATM    7  C5  UNL     1      21.223   2.934  51.451  1.00  0.00     0.118 C 
BRANCH   7   8
HETATM    8  C6  UNL     1      20.570   1.592  51.600  1.00  0.00     0.053 C 
BRANCH   8   9
HETATM    9  C7  UNL     1      21.277   0.746  52.625  1.00  0.00    -0.078 A 
HETATM   10  C8  UNL     1      20.606   0.520  53.762  1.00  0.00     0.003 A 
HETATM   11  C9  UNL     1      21.306  -0.301  54.744  1.00  0.00     0.003 A 
HETATM   12  C10 UNL     1      22.505  -0.758  54.479  1.00  0.00    -0.084 A 
HETATM   13  C11 UNL     1      23.049  -1.568  55.597  1.00  0.00     0.043 C 
HETATM   14  C12 UNL     1      23.304  -0.549  53.249  1.00  0.00     0.038 A 
HETATM   15  C13 UNL     1      22.629   0.283  52.221  1.00  0.00     0.038 A 
ENDBRANCH   8   9
ENDBRANCH   7   8
ENDBRANCH   5   7
ENDBRANCH   4   5
ENDBRANCH   3   4
BRANCH   3  16
HETATM   16  O1  UNL     1      24.268   4.010  51.703  1.00  0.00    -0.264 OA
BRANCH  16  17
HETATM   17  C14 UNL     1      25.119   3.113  52.327  1.00  0.00     0.370 C 
HETATM   18  O2  UNL     1      24.963   2.526  53.434  1.00  0.00    -0.238 OA
HETATM   19  N2  UNL     1      26.360   2.733  51.732  1.00  0.00    -0.302 N 
HETATM   20  H21 UNL     1      26.668   3.122  50.798  1.00  0.00     0.171 HD
BRANCH  19  21
HETATM   21  C15 UNL     1      27.180   1.795  52.457  1.00  0.00     0.036 A 
HETATM   22  C16 UNL     1      28.217   2.200  53.289  1.00  0.00     0.029 A 
HETATM   23  C17 UNL     1      28.986   1.266  53.971  1.00  0.00     0.002 A 
HETATM   24  C18 UNL     1      28.683  -0.062  53.792  1.00  0.00     0.000 A 
HETATM   25  C19 UNL     1      27.667  -0.498  52.980  1.00  0.00     0.002 A 
HETATM   26  C20 UNL     1      26.901   0.444  52.299  1.00  0.00     0.029 A 
ENDBRANCH  19  21
ENDBRANCH  16  17
ENDBRANCH   3  16
TORSDOF 8
ENDMDL
MODEL 5
REMARK VINA RESULT:      -7.3      1.756      3.020
REMARK  8 active torsions:
REMARK  status: ('A' for Active; 'I' for Inactive)
REMARK    1  A    between atoms: C3_3  and  C4_4 
REMARK    2  A    between atoms: C3_3  and  O1_15 
REMARK    3  A    between atoms: C4_4  and  N1_5 
REMARK    4  A    between atoms: N1_5  and  C5_6 
REMARK    5  A    between atoms: C5_6  and  C6_7 
REMARK    6  A    between atoms: C6_7  and  C7_8 
REMARK    7  A    between atoms: O1_15  and  C14_16 
REMARK       I    between atoms: C14_16  and  N2_18 
REMARK    8  A    between atoms: N2_18  and  C15_19 
ROOT
HETATM    1  C1  UNL     1      21.521   0.233  51.701  1.00  0.00     0.038 C 
HETATM    2  C2  UNL     1      22.100   1.119  50.660  1.00  0.00     0.003 C 
HETATM    3  C3  UNL     1      23.011   2.069  50.793  1.00  0.00     0.071 C 
ENDROOT
BRANCH   3   4
HETATM    4  C4  UNL     1      23.442   2.835  49.595  1.00  0.00     0.178 C 
BRANCH   4   5
HETATM    5  N1  UNL     1      23.145   4.223  49.813  1.00  0.00    -0.415 N 
HETATM    6  H7  UNL     1      22.322   4.593  49.316  1.00  0.00     0.153 HD
BRANCH   5   7
HETATM    7  C5  UNL     1      24.318   5.063  49.795  1.00  0.00     0.118 C 
BRANCH   7   8
HETATM    8  C6  UNL     1      25.595   4.339  49.488  1.00  0.00     0.053 C 
BRANCH   8   9
HETATM    9  C7  UNL     1      26.608   5.254  48.853  1.00  0.00    -0.078 A 
HETATM   10  C8  UNL     1      27.839   4.748  48.696  1.00  0.00     0.003 A 
HETATM   11  C9  UNL     1      28.808   5.649  48.080  1.00  0.00     0.003 A 
HETATM   12  C10 UNL     1      28.443   6.856  47.724  1.00  0.00    -0.084 A 
HETATM   13  C11 UNL     1      29.564   7.616  47.118  1.00  0.00     0.043 C 
HETATM   14  C12 UNL     1      27.107   7.479  47.866  1.00  0.00     0.038 A 
HETATM   15  C13 UNL     1      26.089   6.597  48.489  1.00  0.00     0.038 A 
ENDBRANCH   8   9
ENDBRANCH   7   8
ENDBRANCH   5   7
ENDBRANCH   4   5
ENDBRANCH   3   4
BRANCH   3  16
HETATM   16  O1  UNL     1      23.558   2.350  52.035  1.00  0.00    -0.264 OA
BRANCH  16  17
HETATM   17  C14 UNL     1      24.649   1.667  52.545  1.00  0.00     0.370 C 
HETATM   18  O2  UNL     1      24.659   0.700  53.356  1.00  0.00    -0.238 OA
HETATM   19  N2  UNL     1      25.982   2.022  52.175  1.00  0.00    -0.302 N 
HETATM   20  H21 UNL     1      26.178   2.813  51.502  1.00  0.00     0.171 HD
BRANCH  19  21
HETATM   21  C15 UNL     1      27.055   1.255  52.758  1.00  0.00     0.036 A 
HETATM   22  C16 UNL     1      27.158  -0.122  52.597  1.00  0.00     0.029 A 
HETATM   23  C17 UNL     1      28.206  -0.827  53.174  1.00  0.00     0.002 A 
HETATM   24  C18 UNL     1      29.128  -0.116  53.903  1.00  0.00     0.000 A 
HETATM   25  C19 UNL     1      29.059   1.242  54.082  1.00  0.00     0.002 A 
HETATM   26  C20 UNL     1      28.005   1.942  53.500  1.00  0.00     0.029 A 
ENDBRANCH  19  21
ENDBRANCH  16  17
ENDBRANCH   3  16
TORSDOF 8
ENDMDL
MODEL 6
REMARK VINA RESULT:      -7.2      2.485      6.127
REMARK  8 active torsions:
REMARK  status: ('A' for Active; 'I' for Inactive)
REMARK    1  A    between atoms: C3_3  and  C4_4 
REMARK    2  A    between atoms: C3_3  and  O1_15 
REMARK    3  A    between atoms: C4_4  and  N1_5 
REMARK    4  A    between atoms: N1_5  and  C5_6 
REMARK    5  A    between atoms: C5_6  and  C6_7 
REMARK    6  A    between atoms: C6_7  and  C7_8 
REMARK    7  A    between atoms: O1_15  and  C14_16 
REMARK       I    between atoms: C14_16  and  N2_18 
REMARK    8  A    between atoms: N2_18  and  C15_19 
ROOT
HETATM    1  C1  UNL     1      19.303   4.651  50.106  1.00  0.00     0.038 C 
HETATM    2  C2  UNL     1      19.768   3.573  51.014  1.00  0.00     0.003 C 
HETATM    3  C3  UNL     1      20.767   3.592  51.881  1.00  0.00     0.071 C 
ENDROOT
BRANCH   3   4
HETATM    4  C4  UNL     1      21.050   2.379  52.690  1.00  0.00     0.178 C 
BRANCH   4   5
HETATM    5  N1  UNL     1      21.934   1.530  51.941  1.00  0.00    -0.415 N 
HETATM    6  H7  UNL     1      21.486   0.884  51.278  1.00  0.00     0.153 HD
BRANCH   5   7
HETATM    7  C5  UNL     1      22.995   0.970  52.743  1.00  0.00     0.118 C 
BRANCH   7   8
HETATM    8  C6  UNL     1      24.126   1.914  53.025  1.00  0.00     0.053 C 
BRANCH   8   9
HETATM    9  C7  UNL     1      25.440   1.186  53.124  1.00  0.00    -0.078 A 
HETATM   10  C8  UNL     1      25.427  -0.101  52.750  1.00  0.00     0.003 A 
HETATM   11  C9  UNL     1      26.708  -0.792  52.853  1.00  0.00     0.003 A 
HETATM   12  C10 UNL     1      27.764  -0.149  53.287  1.00  0.00    -0.084 A 
HETATM   13  C11 UNL     1      28.966  -1.017  53.321  1.00  0.00     0.043 C 
HETATM   14  C12 UNL     1      27.851   1.267  53.716  1.00  0.00     0.038 A 
HETATM   15  C13 UNL     1      26.569   2.008  53.627  1.00  0.00     0.038 A 
ENDBRANCH   8   9
ENDBRANCH   7   8
ENDBRANCH   5   7
ENDBRANCH   4   5
ENDBRANCH   3   4
BRANCH   3  16
HETATM   16  O1  UNL     1      21.544   4.731  52.033  1.00  0.00    -0.264 OA
BRANCH  16  17
HETATM   17  C14 UNL     1      22.824   4.839  51.515  1.00  0.00     0.370 C 
HETATM   18  O2  UNL     1      23.837   5.381  52.037  1.00  0.00    -0.238 OA
HETATM   19  N2  UNL     1      23.149   4.305  50.231  1.00  0.00    -0.302 N 
HETATM   20  H21 UNL     1      22.427   3.812  49.637  1.00  0.00     0.171 HD
BRANCH  19  21
HETATM   21  C15 UNL     1      24.507   4.467  49.774  1.00  0.00     0.036 A 
HETATM   22  C16 UNL     1      24.944   5.620  49.132  1.00  0.00     0.029 A 
HETATM   23  C17 UNL     1      26.260   5.739  48.706  1.00  0.00     0.002 A 
HETATM   24  C18 UNL     1      27.105   4.682  48.943  1.00  0.00     0.000 A 
HETATM   25  C19 UNL     1      26.710   3.531  49.574  1.00  0.00     0.002 A 
HETATM   26  C20 UNL     1      25.389   3.419  49.998  1.00  0.00     0.029 A 
ENDBRANCH  19  21
ENDBRANCH  16  17
ENDBRANCH   3  16
TORSDOF 8
ENDMDL
MODEL 7
REMARK VINA RESULT:      -7.2      2.627      6.130
REMARK  8 active torsions:
REMARK  status: ('A' for Active; 'I' for Inactive)
REMARK    1  A    between atoms: C3_3  and  C4_4 
REMARK    2  A    between atoms: C3_3  and  O1_15 
REMARK    3  A    between atoms: C4_4  and  N1_5 
REMARK    4  A    between atoms: N1_5  and  C5_6 
REMARK    5  A    between atoms: C5_6  and  C6_7 
REMARK    6  A    between atoms: C6_7  and  C7_8 
REMARK    7  A    between atoms: O1_15  and  C14_16 
REMARK       I    between atoms: C14_16  and  N2_18 
REMARK    8  A    between atoms: N2_18  and  C15_19 
ROOT
HETATM    1  C1  UNL     1      20.281   5.573  49.850  1.00  0.00     0.038 C 
HETATM    2  C2  UNL     1      21.673   5.091  50.030  1.00  0.00     0.003 C 
HETATM    3  C3  UNL     1      22.109   3.851  50.176  1.00  0.00     0.071 C 
ENDROOT
BRANCH   3   4
HETATM    4  C4  UNL     1      23.565   3.608  50.343  1.00  0.00     0.178 C 
BRANCH   4   5
HETATM    5  N1  UNL     1      23.945   4.019  51.667  1.00  0.00    -0.415 N 
HETATM    6  H7  UNL     1      24.209   5.008  51.774  1.00  0.00     0.153 HD
BRANCH   5   7
HETATM    7  C5  UNL     1      24.798   3.065  52.332  1.00  0.00     0.118 C 
BRANCH   7   8
HETATM    8  C6  UNL     1      25.368   2.008  51.434  1.00  0.00     0.053 C 
BRANCH   8   9
HETATM    9  C7  UNL     1      26.458   1.230  52.122  1.00  0.00    -0.078 A 
HETATM   10  C8  UNL     1      27.501   1.946  52.563  1.00  0.00     0.003 A 
HETATM   11  C9  UNL     1      28.548   1.177  53.227  1.00  0.00     0.003 A 
HETATM   12  C10 UNL     1      28.423  -0.122  53.355  1.00  0.00    -0.084 A 
HETATM   13  C11 UNL     1      29.585  -0.723  54.053  1.00  0.00     0.043 C 
HETATM   14  C12 UNL     1      27.304  -0.975  52.894  1.00  0.00     0.038 A 
HETATM   15  C13 UNL     1      26.215  -0.232  52.212  1.00  0.00     0.038 A 
ENDBRANCH   8   9
ENDBRANCH   7   8
ENDBRANCH   5   7
ENDBRANCH   4   5
ENDBRANCH   3   4
BRANCH   3  16
HETATM   16  O1  UNL     1      21.219   2.788  50.175  1.00  0.00    -0.264 OA
BRANCH  16  17
HETATM   17  C14 UNL     1      21.380   1.675  50.984  1.00  0.00     0.370 C 
HETATM   18  O2  UNL     1      21.620   0.485  50.641  1.00  0.00    -0.238 OA
HETATM   19  N2  UNL     1      21.280   1.774  52.405  1.00  0.00    -0.302 N 
HETATM   20  H21 UNL     1      21.081   2.696  52.884  1.00  0.00     0.171 HD
BRANCH  19  21
HETATM   21  C15 UNL     1      21.461   0.562  53.165  1.00  0.00     0.036 A 
HETATM   22  C16 UNL     1      20.397  -0.261  53.517  1.00  0.00     0.029 A 
HETATM   23  C17 UNL     1      20.611  -1.421  54.250  1.00  0.00     0.002 A 
HETATM   24  C18 UNL     1      21.902  -1.719  54.610  1.00  0.00     0.000 A 
HETATM   25  C19 UNL     1      22.976  -0.931  54.280  1.00  0.00     0.002 A 
HETATM   26  C20 UNL     1      22.754   0.230  53.546  1.00  0.00     0.029 A 
ENDBRANCH  19  21
ENDBRANCH  16  17
ENDBRANCH   3  16
TORSDOF 8
ENDMDL
MODEL 8
REMARK VINA RESULT:      -7.2      2.273      3.684
REMARK  8 active torsions:
REMARK  status: ('A' for Active; 'I' for Inactive)
REMARK    1  A    between atoms: C3_3  and  C4_4 
REMARK    2  A    between atoms: C3_3  and  O1_15 
REMARK    3  A    between atoms: C4_4  and  N1_5 
REMARK    4  A    between atoms: N1_5  and  C5_6 
REMARK    5  A    between atoms: C5_6  and  C6_7 
REMARK    6  A    between atoms: C6_7  and  C7_8 
REMARK    7  A    between atoms: O1_15  and  C14_16 
REMARK       I    between atoms: C14_16  and  N2_18 
REMARK    8  A    between atoms: N2_18  and  C15_19 
ROOT
HETATM    1  C1  UNL     1      22.533   1.197  51.838  1.00  0.00     0.038 C 
HETATM    2  C2  UNL     1      23.219   2.336  51.179  1.00  0.00     0.003 C 
HETATM    3  C3  UNL     1      24.354   2.927  51.513  1.00  0.00     0.071 C 
ENDROOT
BRANCH   3   4
HETATM    4  C4  UNL     1      24.850   4.062  50.694  1.00  0.00     0.178 C 
BRANCH   4   5
HETATM    5  N1  UNL     1      26.276   3.939  50.565  1.00  0.00    -0.415 N 
HETATM    6  H7  UNL     1      26.830   4.228  51.383  1.00  0.00     0.153 HD
BRANCH   5   7
HETATM    7  C5  UNL     1      26.770   4.384  49.285  1.00  0.00     0.118 C 
BRANCH   7   8
HETATM    8  C6  UNL     1      26.100   5.618  48.756  1.00  0.00     0.053 C 
BRANCH   8   9
HETATM    9  C7  UNL     1      26.985   6.828  48.896  1.00  0.00    -0.078 A 
HETATM   10  C8  UNL     1      28.111   6.818  48.170  1.00  0.00     0.003 A 
HETATM   11  C9  UNL     1      28.956   7.998  48.318  1.00  0.00     0.003 A 
HETATM   12  C10 UNL     1      28.589   8.969  49.118  1.00  0.00    -0.084 A 
HETATM   13  C11 UNL     1      29.576  10.077  49.134  1.00  0.00     0.043 C 
HETATM   14  C12 UNL     1      27.364   9.047  49.947  1.00  0.00     0.038 A 
HETATM   15  C13 UNL     1      26.474   7.865  49.827  1.00  0.00     0.038 A 
ENDBRANCH   8   9
ENDBRANCH   7   8
ENDBRANCH   5   7
ENDBRANCH   4   5
ENDBRANCH   3   4
BRANCH   3  16
HETATM   16  O1  UNL     1      25.073   2.494  52.617  1.00  0.00    -0.264 OA
BRANCH  16  17
HETATM   17  C14 UNL     1      26.040   1.505  52.540  1.00  0.00     0.370 C 
HETATM   18  O2  UNL     1      26.800   1.226  51.572  1.00  0.00    -0.238 OA
HETATM   19  N2  UNL     1      26.290   0.629  53.640  1.00  0.00    -0.302 N 
HETATM   20  H21 UNL     1      25.749   0.708  54.545  1.00  0.00     0.171 HD
BRANCH  19  21
HETATM   21  C15 UNL     1      27.315  -0.371  53.467  1.00  0.00     0.036 A 
HETATM   22  C16 UNL     1      27.047  -1.625  52.932  1.00  0.00     0.029 A 
HETATM   23  C17 UNL     1      28.061  -2.563  52.781  1.00  0.00     0.002 A 
HETATM   24  C18 UNL     1      29.325  -2.203  53.178  1.00  0.00     0.000 A 
HETATM   25  C19 UNL     1      29.626  -0.975  53.709  1.00  0.00     0.002 A 
HETATM   26  C20 UNL     1      28.605  -0.041  53.858  1.00  0.00     0.029 A 
ENDBRANCH  19  21
ENDBRANCH  16  17
ENDBRANCH   3  16
TORSDOF 8
ENDMDL
MODEL 9
REMARK VINA RESULT:      -6.9      2.876      6.262
REMARK  8 active torsions:
REMARK  status: ('A' for Active; 'I' for Inactive)
REMARK    1  A    between atoms: C3_3  and  C4_4 
REMARK    2  A    between atoms: C3_3  and  O1_15 
REMARK    3  A    between atoms: C4_4  and  N1_5 
REMARK    4  A    between atoms: N1_5  and  C5_6 
REMARK    5  A    between atoms: C5_6  and  C6_7 
REMARK    6  A    between atoms: C6_7  and  C7_8 
REMARK    7  A    between atoms: O1_15  and  C14_16 
REMARK       I    between atoms: C14_16  and  N2_18 
REMARK    8  A    between atoms: N2_18  and  C15_19 
ROOT
HETATM    1  C1  UNL     1      23.967   7.246  50.874  1.00  0.00     0.038 C 
HETATM    2  C2  UNL     1      23.325   5.921  50.691  1.00  0.00     0.003 C 
HETATM    3  C3  UNL     1      23.892   4.755  50.425  1.00  0.00     0.071 C 
ENDROOT
BRANCH   3   4
HETATM    4  C4  UNL     1      23.037   3.548  50.282  1.00  0.00     0.178 C 
BRANCH   4   5
HETATM    5  N1  UNL     1      22.300   3.368  51.502  1.00  0.00    -0.415 N 
HETATM    6  H7  UNL     1      22.315   4.160  52.160  1.00  0.00     0.153 HD
BRANCH   5   7
HETATM    7  C5  UNL     1      22.483   2.063  52.087  1.00  0.00     0.118 C 
BRANCH   7   8
HETATM    8  C6  UNL     1      22.013   0.925  51.230  1.00  0.00     0.053 C 
BRANCH   8   9
HETATM    9  C7  UNL     1      20.714   0.356  51.734  1.00  0.00    -0.078 A 
HETATM   10  C8  UNL     1      19.660   0.488  50.917  1.00  0.00     0.003 A 
HETATM   11  C9  UNL     1      18.409  -0.069  51.421  1.00  0.00     0.003 A 
HETATM   12  C10 UNL     1      18.378  -0.648  52.597  1.00  0.00    -0.084 A 
HETATM   13  C11 UNL     1      17.023  -1.149  52.932  1.00  0.00     0.043 C 
HETATM   14  C12 UNL     1      19.499  -0.829  53.549  1.00  0.00     0.038 A 
HETATM   15  C13 UNL     1      20.793  -0.275  53.075  1.00  0.00     0.038 A 
ENDBRANCH   8   9
ENDBRANCH   7   8
ENDBRANCH   5   7
ENDBRANCH   4   5
ENDBRANCH   3   4
BRANCH   3  16
HETATM   16  O1  UNL     1      25.267   4.659  50.278  1.00  0.00    -0.264 OA
BRANCH  16  17
HETATM   17  C14 UNL     1      25.993   3.568  50.728  1.00  0.00     0.370 C 
HETATM   18  O2  UNL     1      26.825   2.865  50.090  1.00  0.00    -0.238 OA
HETATM   19  N2  UNL     1      25.860   3.092  52.067  1.00  0.00    -0.302 N 
HETATM   20  H21 UNL     1      25.206   3.555  52.757  1.00  0.00     0.171 HD
BRANCH  19  21
HETATM   21  C15 UNL     1      26.656   1.950  52.444  1.00  0.00     0.036 A 
HETATM   22  C16 UNL     1      27.884   2.077  53.083  1.00  0.00     0.029 A 
HETATM   23  C17 UNL     1      28.622   0.953  53.430  1.00  0.00     0.002 A 
HETATM   24  C18 UNL     1      28.095  -0.276  53.120  1.00  0.00     0.000 A 
HETATM   25  C19 UNL     1      26.888  -0.440  52.491  1.00  0.00     0.002 A 
HETATM   26  C20 UNL     1      26.153   0.691  52.146  1.00  0.00     0.029 A 
ENDBRANCH  19  21
ENDBRANCH  16  17
ENDBRANCH   3  16
TORSDOF 8
ENDMDL
