MODEL 1
REMARK VINA RESULT:      -8.2      0.000      0.000
REMARK  5 active torsions:
REMARK  status: ('A' for Active; 'I' for Inactive)
REMARK    1  A    between atoms: O1_2  and  C2_3 
REMARK    2  A    between atoms: C3_4  and  C4_5 
REMARK    3  A    between atoms: C4_5  and  N1_6 
REMARK    4  A    between atoms: C4_5  and  O2_24 
REMARK    5  A    between atoms: N1_6  and  C5_7 
ROOT
HETATM    1  C5  UNL     1      26.408   2.932  51.162  1.00  0.00     0.725 A 
HETATM    2  N2  UNL     1      26.474   3.665  50.044  1.00  0.00    -0.075 NA
HETATM    3  C6  UNL     1      25.367   3.832  49.302  1.00  0.00     0.139 A 
HETATM    4  C7  UNL     1      24.222   3.227  49.752  1.00  0.00     0.053 A 
HETATM    5  C8  UNL     1      24.082   2.470  50.879  1.00  0.00     0.089 A 
HETATM    6  C9  UNL     1      22.948   1.769  51.420  1.00  0.00     0.018 A 
HETATM    7  C10 UNL     1      23.251   0.759  52.342  1.00  0.00     0.029 A 
HETATM    8  C11 UNL     1      22.299   0.000  52.974  1.00  0.00    -0.006 A 
HETATM    9  C12 UNL     1      22.643  -0.985  53.874  1.00  0.00     0.014 A 
HETATM   10  C13 UNL     1      21.643  -1.723  54.483  1.00  0.00     0.001 A 
HETATM   11  C14 UNL     1      20.305  -1.505  54.217  1.00  0.00     0.002 A 
HETATM   12  C15 UNL     1      19.987  -0.517  53.316  1.00  0.00     0.032 A 
HETATM   13  C16 UNL     1      20.976   0.212  52.715  1.00  0.00     0.067 A 
HETATM   14  N3  UNL     1      20.676   1.161  51.849  1.00  0.00    -0.252 NA
HETATM   15  C17 UNL     1      21.600   1.910  51.227  1.00  0.00     0.044 A 
HETATM   16  C18 UNL     1      21.157   2.985  50.310  1.00  0.00     0.071 C 
HETATM   17  N4  UNL     1      25.247   2.376  51.529  1.00  0.00    -0.062 NA
ENDROOT
BRANCH   1  18
HETATM   18  N1  UNL     1      27.548   2.724  51.988  1.00  0.00    -0.193 N 
HETATM   19  H7  UNL     1      28.478   3.100  51.673  1.00  0.00     0.180 HD
BRANCH  18  20
HETATM   20  C4  UNL     1      27.567   2.032  53.246  1.00  0.00     0.263 C 
BRANCH  20  21
HETATM   21  C3  UNL     1      27.938   0.589  53.079  1.00  0.00     0.050 C 
HETATM   22  C2  UNL     1      27.116  -0.463  53.233  1.00  0.00     0.134 C 
BRANCH  22  23
HETATM   23  O1  UNL     1      27.480  -1.813  53.073  1.00  0.00    -0.368 OA
HETATM   24  C1  UNL     1      28.875  -2.094  53.120  1.00  0.00     0.208 C 
ENDBRANCH  22  23
ENDBRANCH  20  21
BRANCH  20  25
HETATM   25  O2  UNL     1      28.301   2.623  54.243  1.00  0.00    -0.368 OA
HETATM   26  C19 UNL     1      29.412   1.941  54.662  1.00  0.00     0.204 C 
ENDBRANCH  20  25
ENDBRANCH  18  20
ENDBRANCH   1  18
TORSDOF 5
ENDMDL
MODEL 2
REMARK VINA RESULT:      -7.9      2.186      4.974
REMARK  5 active torsions:
REMARK  status: ('A' for Active; 'I' for Inactive)
REMARK    1  A    between atoms: O1_2  and  C2_3 
REMARK    2  A    between atoms: C3_4  and  C4_5 
REMARK    3  A    between atoms: C4_5  and  N1_6 
REMARK    4  A    between atoms: C4_5  and  O2_24 
REMARK    5  A    between atoms: N1_6  and  C5_7 
ROOT
HETATM    1  C5  UNL     1      24.263  -0.771  54.160  1.00  0.00     0.725 A 
HETATM    2  N2  UNL     1      23.632  -1.225  55.251  1.00  0.00    -0.075 NA
HETATM    3  C6  UNL     1      22.293  -1.162  55.308  1.00  0.00     0.139 A 
HETATM    4  C7  UNL     1      21.649  -0.627  54.223  1.00  0.00     0.053 A 
HETATM    5  C8  UNL     1      22.225  -0.148  53.081  1.00  0.00     0.089 A 
HETATM    6  C9  UNL     1      21.652   0.459  51.909  1.00  0.00     0.018 A 
HETATM    7  C10 UNL     1      22.540   1.210  51.129  1.00  0.00     0.029 A 
HETATM    8  C11 UNL     1      22.177   1.845  49.968  1.00  0.00    -0.006 A 
HETATM    9  C12 UNL     1      23.085   2.575  49.232  1.00  0.00     0.014 A 
HETATM   10  C13 UNL     1      22.666   3.196  48.068  1.00  0.00     0.001 A 
HETATM   11  C14 UNL     1      21.363   3.109  47.617  1.00  0.00     0.002 A 
HETATM   12  C15 UNL     1      20.476   2.374  48.369  1.00  0.00     0.032 A 
HETATM   13  C16 UNL     1      20.891   1.760  49.519  1.00  0.00     0.067 A 
HETATM   14  N3  UNL     1      20.045   1.055  50.243  1.00  0.00    -0.252 NA
HETATM   15  C17 UNL     1      20.390   0.430  51.380  1.00  0.00     0.044 A 
HETATM   16  C18 UNL     1      19.376  -0.379  52.094  1.00  0.00     0.071 C 
HETATM   17  N4  UNL     1      23.556  -0.263  53.144  1.00  0.00    -0.062 NA
ENDROOT
BRANCH   1  18
HETATM   18  N1  UNL     1      25.680  -0.815  54.042  1.00  0.00    -0.193 N 
HETATM   19  H7  UNL     1      26.266  -0.536  54.869  1.00  0.00     0.180 HD
BRANCH  18  20
HETATM   20  C4  UNL     1      26.421  -1.211  52.879  1.00  0.00     0.263 C 
BRANCH  20  21
HETATM   21  C3  UNL     1      27.051  -0.035  52.195  1.00  0.00     0.050 C 
HETATM   22  C2  UNL     1      26.726   1.256  52.379  1.00  0.00     0.134 C 
BRANCH  22  23
HETATM   23  O1  UNL     1      27.328   2.350  51.729  1.00  0.00    -0.368 OA
HETATM   24  C1  UNL     1      26.545   2.986  50.724  1.00  0.00     0.208 C 
ENDBRANCH  22  23
ENDBRANCH  20  21
BRANCH  20  25
HETATM   25  O2  UNL     1      27.328  -2.225  53.063  1.00  0.00    -0.368 OA
HETATM   26  C19 UNL     1      28.645  -1.857  53.106  1.00  0.00     0.204 C 
ENDBRANCH  20  25
ENDBRANCH  18  20
ENDBRANCH   1  18
TORSDOF 5
ENDMDL
MODEL 3
REMARK VINA RESULT:      -7.9      1.857      5.218
REMARK  5 active torsions:
REMARK  status: ('A' for Active; 'I' for Inactive)
REMARK    1  A    between atoms: O1_2  and  C2_3 
REMARK    2  A    between atoms: C3_4  and  C4_5 
REMARK    3  A    between atoms: C4_5  and  N1_6 
REMARK    4  A    between atoms: C4_5  and  O2_24 
REMARK    5  A    between atoms: N1_6  and  C5_7 
ROOT
HETATM    1  C5  UNL     1      24.395  -0.679  53.996  1.00  0.00     0.725 A 
HETATM    2  N2  UNL     1      23.345  -1.100  54.712  1.00  0.00    -0.075 NA
HETATM    3  C6  UNL     1      22.142  -0.542  54.503  1.00  0.00     0.139 A 
HETATM    4  C7  UNL     1      22.070   0.440  53.551  1.00  0.00     0.053 A 
HETATM    5  C8  UNL     1      23.095   0.916  52.784  1.00  0.00     0.089 A 
HETATM    6  C9  UNL     1      23.136   1.957  51.791  1.00  0.00     0.018 A 
HETATM    7  C10 UNL     1      24.409   2.470  51.513  1.00  0.00     0.029 A 
HETATM    8  C11 UNL     1      24.644   3.451  50.582  1.00  0.00    -0.006 A 
HETATM    9  C12 UNL     1      25.914   3.928  50.343  1.00  0.00     0.014 A 
HETATM   10  C13 UNL     1      26.095   4.919  49.394  1.00  0.00     0.001 A 
HETATM   11  C14 UNL     1      25.041   5.449  48.676  1.00  0.00     0.002 A 
HETATM   12  C15 UNL     1      23.783   4.957  48.933  1.00  0.00     0.032 A 
HETATM   13  C16 UNL     1      23.605   3.977  49.871  1.00  0.00     0.067 A 
HETATM   14  N3  UNL     1      22.401   3.502  50.121  1.00  0.00    -0.252 NA
HETATM   15  C17 UNL     1      22.161   2.542  51.028  1.00  0.00     0.044 A 
HETATM   16  C18 UNL     1      20.778   2.041  51.199  1.00  0.00     0.071 C 
HETATM   17  N4  UNL     1      24.236   0.288  53.084  1.00  0.00    -0.062 NA
ENDROOT
BRANCH   1  18
HETATM   18  N1  UNL     1      25.693  -1.235  54.172  1.00  0.00    -0.193 N 
HETATM   19  H7  UNL     1      25.943  -1.651  55.104  1.00  0.00     0.180 HD
BRANCH  18  20
HETATM   20  C4  UNL     1      26.731  -1.291  53.183  1.00  0.00     0.263 C 
BRANCH  20  21
HETATM   21  C3  UNL     1      27.768  -0.231  53.407  1.00  0.00     0.050 C 
HETATM   22  C2  UNL     1      27.914   0.512  54.517  1.00  0.00     0.134 C 
BRANCH  22  23
HETATM   23  O1  UNL     1      28.894   1.504  54.711  1.00  0.00    -0.368 OA
HETATM   24  C1  UNL     1      28.967   2.514  53.710  1.00  0.00     0.208 C 
ENDBRANCH  22  23
ENDBRANCH  20  21
BRANCH  20  25
HETATM   25  O2  UNL     1      27.310  -2.521  52.991  1.00  0.00    -0.368 OA
HETATM   26  C19 UNL     1      28.677  -2.559  53.033  1.00  0.00     0.204 C 
ENDBRANCH  20  25
ENDBRANCH  18  20
ENDBRANCH   1  18
TORSDOF 5
ENDMDL
MODEL 4
REMARK VINA RESULT:      -7.8      2.582      4.965
REMARK  5 active torsions:
REMARK  status: ('A' for Active; 'I' for Inactive)
REMARK    1  A    between atoms: O1_2  and  C2_3 
REMARK    2  A    between atoms: C3_4  and  C4_5 
REMARK    3  A    between atoms: C4_5  and  N1_6 
REMARK    4  A    between atoms: C4_5  and  O2_24 
REMARK    5  A    between atoms: N1_6  and  C5_7 
ROOT
HETATM    1  C5  UNL     1      26.696   2.359  51.509  1.00  0.00     0.725 A 
HETATM    2  N2  UNL     1      27.773   2.407  52.302  1.00  0.00    -0.075 NA
HETATM    3  C6  UNL     1      27.733   1.806  53.501  1.00  0.00     0.139 A 
HETATM    4  C7  UNL     1      26.566   1.171  53.838  1.00  0.00     0.053 A 
HETATM    5  C8  UNL     1      25.433   1.081  53.082  1.00  0.00     0.089 A 
HETATM    6  C9  UNL     1      24.155   0.475  53.350  1.00  0.00     0.018 A 
HETATM    7  C10 UNL     1      23.098   0.928  52.551  1.00  0.00     0.029 A 
HETATM    8  C11 UNL     1      21.815   0.451  52.651  1.00  0.00    -0.006 A 
HETATM    9  C12 UNL     1      20.804   0.927  51.845  1.00  0.00     0.014 A 
HETATM   10  C13 UNL     1      19.528   0.412  51.988  1.00  0.00     0.001 A 
HETATM   11  C14 UNL     1      19.231  -0.567  52.916  1.00  0.00     0.002 A 
HETATM   12  C15 UNL     1      20.256  -1.026  53.709  1.00  0.00     0.032 A 
HETATM   13  C16 UNL     1      21.518  -0.516  53.566  1.00  0.00     0.067 A 
HETATM   14  N3  UNL     1      22.504  -0.952  54.325  1.00  0.00    -0.252 NA
HETATM   15  C17 UNL     1      23.762  -0.493  54.234  1.00  0.00     0.044 A 
HETATM   16  C18 UNL     1      24.809  -1.086  55.097  1.00  0.00     0.071 C 
HETATM   17  N4  UNL     1      25.595   1.716  51.917  1.00  0.00    -0.062 NA
ENDROOT
BRANCH   1  18
HETATM   18  N1  UNL     1      26.683   2.975  50.226  1.00  0.00    -0.193 N 
HETATM   19  H7  UNL     1      27.398   2.681  49.515  1.00  0.00     0.180 HD
BRANCH  18  20
HETATM   20  C4  UNL     1      25.768   3.989  49.784  1.00  0.00     0.263 C 
BRANCH  20  21
HETATM   21  C3  UNL     1      26.467   5.066  49.010  1.00  0.00     0.050 C 
HETATM   22  C2  UNL     1      27.748   5.048  48.605  1.00  0.00     0.134 C 
BRANCH  22  23
HETATM   23  O1  UNL     1      28.389   6.068  47.878  1.00  0.00    -0.368 OA
HETATM   24  C1  UNL     1      28.302   7.377  48.431  1.00  0.00     0.208 C 
ENDBRANCH  22  23
ENDBRANCH  20  21
BRANCH  20  25
HETATM   25  O2  UNL     1      24.653   3.542  49.120  1.00  0.00    -0.368 OA
HETATM   26  C19 UNL     1      23.462   3.679  49.779  1.00  0.00     0.204 C 
ENDBRANCH  20  25
ENDBRANCH  18  20
ENDBRANCH   1  18
TORSDOF 5
ENDMDL
MODEL 5
REMARK VINA RESULT:      -7.7      2.736      6.309
REMARK  5 active torsions:
REMARK  status: ('A' for Active; 'I' for Inactive)
REMARK    1  A    between atoms: O1_2  and  C2_3 
REMARK    2  A    between atoms: C3_4  and  C4_5 
REMARK    3  A    between atoms: C4_5  and  N1_6 
REMARK    4  A    between atoms: C4_5  and  O2_24 
REMARK    5  A    between atoms: N1_6  and  C5_7 
ROOT
HETATM    1  C5  UNL     1      21.355   2.921  51.997  1.00  0.00     0.725 A 
HETATM    2  N2  UNL     1      20.999   3.949  51.217  1.00  0.00    -0.075 NA
HETATM    3  C6  UNL     1      21.952   4.662  50.594  1.00  0.00     0.139 A 
HETATM    4  C7  UNL     1      23.250   4.278  50.805  1.00  0.00     0.053 A 
HETATM    5  C8  UNL     1      23.685   3.243  51.582  1.00  0.00     0.089 A 
HETATM    6  C9  UNL     1      25.011   2.781  51.896  1.00  0.00     0.018 A 
HETATM    7  C10 UNL     1      25.111   1.980  53.040  1.00  0.00     0.029 A 
HETATM    8  C11 UNL     1      26.290   1.434  53.482  1.00  0.00    -0.006 A 
HETATM    9  C12 UNL     1      26.342   0.653  54.616  1.00  0.00     0.014 A 
HETATM   10  C13 UNL     1      27.558   0.128  55.018  1.00  0.00     0.001 A 
HETATM   11  C14 UNL     1      28.726   0.360  54.318  1.00  0.00     0.002 A 
HETATM   12  C15 UNL     1      28.648   1.142  53.190  1.00  0.00     0.032 A 
HETATM   13  C16 UNL     1      27.446   1.661  52.793  1.00  0.00     0.067 A 
HETATM   14  N3  UNL     1      27.366   2.413  51.713  1.00  0.00    -0.252 NA
HETATM   15  C17 UNL     1      26.218   2.950  51.272  1.00  0.00     0.044 A 
HETATM   16  C18 UNL     1      26.226   3.738  50.018  1.00  0.00     0.071 C 
HETATM   17  N4  UNL     1      22.650   2.614  52.147  1.00  0.00    -0.062 NA
ENDROOT
BRANCH   1  18
HETATM   18  N1  UNL     1      20.390   2.129  52.678  1.00  0.00    -0.193 N 
HETATM   19  H7  UNL     1      19.972   2.496  53.570  1.00  0.00     0.180 HD
BRANCH  18  20
HETATM   20  C4  UNL     1      19.908   0.841  52.267  1.00  0.00     0.263 C 
BRANCH  20  21
HETATM   21  C3  UNL     1      20.468  -0.258  53.119  1.00  0.00     0.050 C 
HETATM   22  C2  UNL     1      20.958  -0.125  54.363  1.00  0.00     0.134 C 
BRANCH  22  23
HETATM   23  O1  UNL     1      21.481  -1.168  55.150  1.00  0.00    -0.368 OA
HETATM   24  C1  UNL     1      22.900  -1.292  55.160  1.00  0.00     0.208 C 
ENDBRANCH  22  23
ENDBRANCH  20  21
BRANCH  20  25
HETATM   25  O2  UNL     1      18.547   0.725  52.135  1.00  0.00    -0.368 OA
HETATM   26  C19 UNL     1      18.065  -0.541  51.936  1.00  0.00     0.204 C 
ENDBRANCH  20  25
ENDBRANCH  18  20
ENDBRANCH   1  18
TORSDOF 5
ENDMDL
MODEL 6
REMARK VINA RESULT:      -7.7      2.452      4.634
REMARK  5 active torsions:
REMARK  status: ('A' for Active; 'I' for Inactive)
REMARK    1  A    between atoms: O1_2  and  C2_3 
REMARK    2  A    between atoms: C3_4  and  C4_5 
REMARK    3  A    between atoms: C4_5  and  N1_6 
REMARK    4  A    between atoms: C4_5  and  O2_24 
REMARK    5  A    between atoms: N1_6  and  C5_7 
ROOT
HETATM    1  C5  UNL     1      26.429   2.331  51.316  1.00  0.00     0.725 A 
HETATM    2  N2  UNL     1      27.535   2.443  52.063  1.00  0.00    -0.075 NA
HETATM    3  C6  UNL     1      27.564   1.877  53.280  1.00  0.00     0.139 A 
HETATM    4  C7  UNL     1      26.437   1.209  53.682  1.00  0.00     0.053 A 
HETATM    5  C8  UNL     1      25.279   1.054  52.975  1.00  0.00     0.089 A 
HETATM    6  C9  UNL     1      24.037   0.410  53.312  1.00  0.00     0.018 A 
HETATM    7  C10 UNL     1      22.933   0.799  52.544  1.00  0.00     0.029 A 
HETATM    8  C11 UNL     1      21.674   0.278  52.709  1.00  0.00    -0.006 A 
HETATM    9  C12 UNL     1      20.615   0.692  51.931  1.00  0.00     0.014 A 
HETATM   10  C13 UNL     1      19.365   0.135  52.141  1.00  0.00     0.001 A 
HETATM   11  C14 UNL     1      19.143  -0.826  53.107  1.00  0.00     0.002 A 
HETATM   12  C15 UNL     1      20.215  -1.223  53.870  1.00  0.00     0.032 A 
HETATM   13  C16 UNL     1      21.450  -0.672  53.663  1.00  0.00     0.067 A 
HETATM   14  N3  UNL     1      22.482  -1.048  54.393  1.00  0.00    -0.252 NA
HETATM   15  C17 UNL     1      23.717  -0.546  54.237  1.00  0.00     0.044 A 
HETATM   16  C18 UNL     1      24.819  -1.073  55.074  1.00  0.00     0.071 C 
HETATM   17  N4  UNL     1      25.371   1.660  51.786  1.00  0.00    -0.062 NA
ENDROOT
BRANCH   1  18
HETATM   18  N1  UNL     1      26.342   2.908  50.019  1.00  0.00    -0.193 N 
HETATM   19  H7  UNL     1      27.035   2.614  49.285  1.00  0.00     0.180 HD
BRANCH  18  20
HETATM   20  C4  UNL     1      25.378   3.881  49.588  1.00  0.00     0.263 C 
BRANCH  20  21
HETATM   21  C3  UNL     1      24.100   3.236  49.144  1.00  0.00     0.050 C 
HETATM   22  C2  UNL     1      22.899   3.371  49.732  1.00  0.00     0.134 C 
BRANCH  22  23
HETATM   23  O1  UNL     1      21.707   2.757  49.303  1.00  0.00    -0.368 OA
HETATM   24  C1  UNL     1      21.855   1.669  48.397  1.00  0.00     0.208 C 
ENDBRANCH  22  23
ENDBRANCH  20  21
BRANCH  20  25
HETATM   25  O2  UNL     1      25.140   4.914  50.460  1.00  0.00    -0.368 OA
HETATM   26  C19 UNL     1      25.457   6.168  50.012  1.00  0.00     0.204 C 
ENDBRANCH  20  25
ENDBRANCH  18  20
ENDBRANCH   1  18
TORSDOF 5
ENDMDL
MODEL 7
REMARK VINA RESULT:      -7.7      2.774      5.874
REMARK  5 active torsions:
REMARK  status: ('A' for Active; 'I' for Inactive)
REMARK    1  A    between atoms: O1_2  and  C2_3 
REMARK    2  A    between atoms: C3_4  and  C4_5 
REMARK    3  A    between atoms: C4_5  and  N1_6 
REMARK    4  A    between atoms: C4_5  and  O2_24 
REMARK    5  A    between atoms: N1_6  and  C5_7 
ROOT
HETATM    1  C5  UNL     1      23.110   3.848  49.964  1.00  0.00     0.725 A 
HETATM    2  N2  UNL     1      21.996   3.311  49.451  1.00  0.00    -0.075 NA
HETATM    3  C6  UNL     1      21.626   2.078  49.833  1.00  0.00     0.139 A 
HETATM    4  C7  UNL     1      22.431   1.442  50.740  1.00  0.00     0.053 A 
HETATM    5  C8  UNL     1      23.576   1.927  51.304  1.00  0.00     0.089 A 
HETATM    6  C9  UNL     1      24.505   1.336  52.231  1.00  0.00     0.018 A 
HETATM    7  C10 UNL     1      25.772   1.931  52.270  1.00  0.00     0.029 A 
HETATM    8  C11 UNL     1      26.779   1.515  53.105  1.00  0.00    -0.006 A 
HETATM    9  C12 UNL     1      28.012   2.129  53.109  1.00  0.00     0.014 A 
HETATM   10  C13 UNL     1      28.993   1.669  53.970  1.00  0.00     0.001 A 
HETATM   11  C14 UNL     1      28.776   0.610  54.830  1.00  0.00     0.002 A 
HETATM   12  C15 UNL     1      27.538   0.014  54.808  1.00  0.00     0.032 A 
HETATM   13  C16 UNL     1      26.569   0.469  53.956  1.00  0.00     0.067 A 
HETATM   14  N3  UNL     1      25.379  -0.100  53.931  1.00  0.00    -0.252 NA
HETATM   15  C17 UNL     1      24.388   0.301  53.119  1.00  0.00     0.044 A 
HETATM   16  C18 UNL     1      23.072  -0.372  53.203  1.00  0.00     0.071 C 
HETATM   17  N4  UNL     1      23.840   3.155  50.847  1.00  0.00    -0.062 NA
ENDROOT
BRANCH   1  18
HETATM   18  N1  UNL     1      23.550   5.151  49.598  1.00  0.00    -0.193 N 
HETATM   19  H7  UNL     1      23.032   5.667  48.843  1.00  0.00     0.180 HD
BRANCH  18  20
HETATM   20  C4  UNL     1      24.661   5.860  50.166  1.00  0.00     0.263 C 
BRANCH  20  21
HETATM   21  C3  UNL     1      25.903   5.694  49.344  1.00  0.00     0.050 C 
HETATM   22  C2  UNL     1      26.711   4.621  49.335  1.00  0.00     0.134 C 
BRANCH  22  23
HETATM   23  O1  UNL     1      27.875   4.481  48.557  1.00  0.00    -0.368 OA
HETATM   24  C1  UNL     1      28.608   5.676  48.309  1.00  0.00     0.208 C 
ENDBRANCH  22  23
ENDBRANCH  20  21
BRANCH  20  25
HETATM   25  O2  UNL     1      24.437   7.179  50.470  1.00  0.00    -0.368 OA
HETATM   26  C19 UNL     1      24.543   8.065  49.432  1.00  0.00     0.204 C 
ENDBRANCH  20  25
ENDBRANCH  18  20
ENDBRANCH   1  18
TORSDOF 5
ENDMDL
MODEL 8
REMARK VINA RESULT:      -7.6      3.024      6.243
REMARK  5 active torsions:
REMARK  status: ('A' for Active; 'I' for Inactive)
REMARK    1  A    between atoms: O1_2  and  C2_3 
REMARK    2  A    between atoms: C3_4  and  C4_5 
REMARK    3  A    between atoms: C4_5  and  N1_6 
REMARK    4  A    between atoms: C4_5  and  O2_24 
REMARK    5  A    between atoms: N1_6  and  C5_7 
ROOT
HETATM    1  C5  UNL     1      22.216   4.248  52.045  1.00  0.00     0.725 A 
HETATM    2  N2  UNL     1      21.045   3.732  51.652  1.00  0.00    -0.075 NA
HETATM    3  C6  UNL     1      20.853   2.406  51.727  1.00  0.00     0.139 A 
HETATM    4  C7  UNL     1      21.892   1.655  52.212  1.00  0.00     0.053 A 
HETATM    5  C8  UNL     1      23.109   2.111  52.631  1.00  0.00     0.089 A 
HETATM    6  C9  UNL     1      24.270   1.415  53.120  1.00  0.00     0.018 A 
HETATM    7  C10 UNL     1      25.470   2.133  53.055  1.00  0.00     0.029 A 
HETATM    8  C11 UNL     1      26.673   1.639  53.494  1.00  0.00    -0.006 A 
HETATM    9  C12 UNL     1      27.831   2.380  53.409  1.00  0.00     0.014 A 
HETATM   10  C13 UNL     1      29.018   1.833  53.865  1.00  0.00     0.001 A 
HETATM   11  C14 UNL     1      29.081   0.562  54.403  1.00  0.00     0.002 A 
HETATM   12  C15 UNL     1      27.913  -0.158  54.476  1.00  0.00     0.032 A 
HETATM   13  C16 UNL     1      26.740   0.384  54.026  1.00  0.00     0.067 A 
HETATM   14  N3  UNL     1      25.616  -0.304  54.093  1.00  0.00    -0.252 NA
HETATM   15  C17 UNL     1      24.435   0.173  53.669  1.00  0.00     0.044 A 
HETATM   16  C18 UNL     1      23.222  -0.660  53.836  1.00  0.00     0.071 C 
HETATM   17  N4  UNL     1      23.179   3.441  52.507  1.00  0.00    -0.062 NA
ENDROOT
BRANCH   1  18
HETATM   18  N1  UNL     1      22.475   5.646  51.990  1.00  0.00    -0.193 N 
HETATM   19  H7  UNL     1      22.118   6.258  52.766  1.00  0.00     0.180 HD
BRANCH  18  20
HETATM   20  C4  UNL     1      23.193   6.334  50.956  1.00  0.00     0.263 C 
BRANCH  20  21
HETATM   21  C3  UNL     1      24.268   5.475  50.362  1.00  0.00     0.050 C 
HETATM   22  C2  UNL     1      25.466   5.895  49.922  1.00  0.00     0.134 C 
BRANCH  22  23
HETATM   23  O1  UNL     1      26.466   5.075  49.366  1.00  0.00    -0.368 OA
HETATM   24  C1  UNL     1      26.451   3.710  49.772  1.00  0.00     0.208 C 
ENDBRANCH  22  23
ENDBRANCH  20  21
BRANCH  20  25
HETATM   25  O2  UNL     1      22.425   6.917  49.979  1.00  0.00    -0.368 OA
HETATM   26  C19 UNL     1      22.587   8.265  49.806  1.00  0.00     0.204 C 
ENDBRANCH  20  25
ENDBRANCH  18  20
ENDBRANCH   1  18
TORSDOF 5
ENDMDL
MODEL 9
REMARK VINA RESULT:      -7.6      3.734      7.152
REMARK  5 active torsions:
REMARK  status: ('A' for Active; 'I' for Inactive)
REMARK    1  A    between atoms: O1_2  and  C2_3 
REMARK    2  A    between atoms: C3_4  and  C4_5 
REMARK    3  A    between atoms: C4_5  and  N1_6 
REMARK    4  A    between atoms: C4_5  and  O2_24 
REMARK    5  A    between atoms: N1_6  and  C5_7 
ROOT
HETATM    1  C5  UNL     1      22.186   4.287  52.091  1.00  0.00     0.725 A 
HETATM    2  N2  UNL     1      21.029   3.781  51.644  1.00  0.00    -0.075 NA
HETATM    3  C6  UNL     1      20.855   2.450  51.636  1.00  0.00     0.139 A 
HETATM    4  C7  UNL     1      21.895   1.685  52.096  1.00  0.00     0.053 A 
HETATM    5  C8  UNL     1      23.097   2.131  52.565  1.00  0.00     0.089 A 
HETATM    6  C9  UNL     1      24.258   1.421  53.034  1.00  0.00     0.018 A 
HETATM    7  C10 UNL     1      25.449   2.157  53.036  1.00  0.00     0.029 A 
HETATM    8  C11 UNL     1      26.650   1.653  53.468  1.00  0.00    -0.006 A 
HETATM    9  C12 UNL     1      27.799   2.413  53.451  1.00  0.00     0.014 A 
HETATM   10  C13 UNL     1      28.985   1.854  53.896  1.00  0.00     0.001 A 
HETATM   11  C14 UNL     1      29.056   0.555  54.358  1.00  0.00     0.002 A 
HETATM   12  C15 UNL     1      27.896  -0.184  54.365  1.00  0.00     0.032 A 
HETATM   13  C16 UNL     1      26.725   0.369  53.925  1.00  0.00     0.067 A 
HETATM   14  N3  UNL     1      25.610  -0.335  53.929  1.00  0.00    -0.252 NA
HETATM   15  C17 UNL     1      24.430   0.150  53.511  1.00  0.00     0.044 A 
HETATM   16  C18 UNL     1      23.226  -0.706  53.604  1.00  0.00     0.071 C 
HETATM   17  N4  UNL     1      23.151   3.466  52.522  1.00  0.00    -0.062 NA
ENDROOT
BRANCH   1  18
HETATM   18  N1  UNL     1      22.425   5.689  52.125  1.00  0.00    -0.193 N 
HETATM   19  H7  UNL     1      22.267   6.209  53.025  1.00  0.00     0.180 HD
BRANCH  18  20
HETATM   20  C4  UNL     1      22.874   6.498  51.028  1.00  0.00     0.263 C 
BRANCH  20  21
HETATM   21  C3  UNL     1      21.790   7.403  50.526  1.00  0.00     0.050 C 
HETATM   22  C2  UNL     1      20.649   7.017  49.930  1.00  0.00     0.134 C 
BRANCH  22  23
HETATM   23  O1  UNL     1      19.639   7.881  49.464  1.00  0.00    -0.368 OA
HETATM   24  C1  UNL     1      19.607   9.178  50.050  1.00  0.00     0.208 C 
ENDBRANCH  22  23
ENDBRANCH  20  21
BRANCH  20  25
HETATM   25  O2  UNL     1      24.044   7.187  51.231  1.00  0.00    -0.368 OA
HETATM   26  C19 UNL     1      25.102   6.828  50.441  1.00  0.00     0.204 C 
ENDBRANCH  20  25
ENDBRANCH  18  20
ENDBRANCH   1  18
TORSDOF 5
ENDMDL
