MODEL 1
REMARK VINA RESULT:      -6.8      0.000      0.000
REMARK  7 active torsions:
REMARK  status: ('A' for Active; 'I' for Inactive)
REMARK    1  A    between atoms: N1_2  and  C2_3 
REMARK    2  A    between atoms: C2_3  and  C3_4 
REMARK    3  A    between atoms: C3_4  and  C4_6 
REMARK    4  A    between atoms: C4_6  and  C5_7 
REMARK    5  A    between atoms: C8_10  and  O2_11 
REMARK    6  A    between atoms: O2_11  and  C9_12 
REMARK    7  A    between atoms: C9_12  and  C10_13 
ROOT
HETATM    1  C5  UNL     1      27.021   2.186  52.821  1.00  0.00    -0.051 A 
HETATM    2  C6  UNL     1      26.017   2.315  53.756  1.00  0.00     0.010 A 
HETATM    3  C7  UNL     1      24.729   2.360  53.307  1.00  0.00     0.037 A 
HETATM    4  C8  UNL     1      24.331   2.287  52.000  1.00  0.00     0.069 A 
HETATM    5  C16 UNL     1      25.379   2.156  51.073  1.00  0.00     0.037 A 
HETATM    6  C17 UNL     1      26.721   2.105  51.478  1.00  0.00     0.010 A 
ENDROOT
BRANCH   4   7
HETATM    7  O2  UNL     1      23.190   2.302  51.279  1.00  0.00    -0.347 OA
BRANCH   7   8
HETATM    8  C9  UNL     1      22.163   1.410  51.099  1.00  0.00     0.214 C 
BRANCH   8   9
HETATM    9  C10 UNL     1      21.999   0.556  52.298  1.00  0.00    -0.034 A 
HETATM   10  C11 UNL     1      21.040   0.998  53.216  1.00  0.00     0.009 A 
HETATM   11  C12 UNL     1      20.729   0.384  54.395  1.00  0.00     0.001 A 
HETATM   12  C13 UNL     1      21.393  -0.766  54.741  1.00  0.00     0.000 A 
HETATM   13  C14 UNL     1      22.347  -1.238  53.867  1.00  0.00     0.001 A 
HETATM   14  C15 UNL     1      22.641  -0.599  52.685  1.00  0.00     0.009 A 
ENDBRANCH   8   9
ENDBRANCH   7   8
ENDBRANCH   4   7
BRANCH   1  15
HETATM   15  C4  UNL     1      28.410   2.141  53.356  1.00  0.00     0.118 C 
BRANCH  15  16
HETATM   16  C3  UNL     1      28.640   0.887  54.143  1.00  0.00     0.159 C 
HETATM   17  O1  UNL     1      28.773   0.901  55.372  1.00  0.00    -0.296 OA
BRANCH  16  18
HETATM   18  C2  UNL     1      28.700  -0.381  53.363  1.00  0.00     0.347 C 
BRANCH  18  19
HETATM   19  N1  UNL     1      27.638  -1.279  53.780  1.00  0.00     0.086 N 
HETATM   20  C1  UNL     1      26.773  -1.486  52.633  1.00  0.00     0.307 C 
HETATM   21  H4  UNL     1      28.031  -2.199  54.039  1.00  0.00     0.315 HD
ENDBRANCH  18  19
ENDBRANCH  16  18
ENDBRANCH  15  16
ENDBRANCH   1  15
TORSDOF 7
ENDMDL
MODEL 2
REMARK VINA RESULT:      -6.7      3.485      6.321
REMARK  7 active torsions:
REMARK  status: ('A' for Active; 'I' for Inactive)
REMARK    1  A    between atoms: N1_2  and  C2_3 
REMARK    2  A    between atoms: C2_3  and  C3_4 
REMARK    3  A    between atoms: C3_4  and  C4_6 
REMARK    4  A    between atoms: C4_6  and  C5_7 
REMARK    5  A    between atoms: C8_10  and  O2_11 
REMARK    6  A    between atoms: O2_11  and  C9_12 
REMARK    7  A    between atoms: C9_12  and  C10_13 
ROOT
HETATM    1  C5  UNL     1      25.271   0.900  52.394  1.00  0.00    -0.051 A 
HETATM    2  C6  UNL     1      24.247   1.798  52.600  1.00  0.00     0.010 A 
HETATM    3  C7  UNL     1      24.331   3.014  51.986  1.00  0.00     0.037 A 
HETATM    4  C8  UNL     1      25.349   3.434  51.174  1.00  0.00     0.069 A 
HETATM    5  C16 UNL     1      26.377   2.495  50.985  1.00  0.00     0.037 A 
HETATM    6  C17 UNL     1      26.342   1.230  51.591  1.00  0.00     0.010 A 
ENDROOT
BRANCH   4   7
HETATM    7  O2  UNL     1      25.698   4.524  50.457  1.00  0.00    -0.347 OA
BRANCH   7   8
HETATM    8  C9  UNL     1      25.422   4.958  49.185  1.00  0.00     0.214 C 
BRANCH   8   9
HETATM    9  C10 UNL     1      26.581   5.688  48.622  1.00  0.00    -0.034 A 
HETATM   10  C11 UNL     1      27.785   4.975  48.613  1.00  0.00     0.009 A 
HETATM   11  C12 UNL     1      28.983   5.447  48.158  1.00  0.00     0.001 A 
HETATM   12  C13 UNL     1      29.048   6.725  47.660  1.00  0.00     0.000 A 
HETATM   13  C14 UNL     1      27.886   7.465  47.650  1.00  0.00     0.001 A 
HETATM   14  C15 UNL     1      26.692   6.963  48.115  1.00  0.00     0.009 A 
ENDBRANCH   8   9
ENDBRANCH   7   8
ENDBRANCH   4   7
BRANCH   1  15
HETATM   15  C4  UNL     1      25.136  -0.414  53.083  1.00  0.00     0.118 C 
BRANCH  15  16
HETATM   16  C3  UNL     1      26.427  -0.815  53.727  1.00  0.00     0.159 C 
HETATM   17  O1  UNL     1      27.065  -1.806  53.354  1.00  0.00    -0.296 OA
BRANCH  16  18
HETATM   18  C2  UNL     1      26.903   0.048  54.845  1.00  0.00     0.347 C 
BRANCH  18  19
HETATM   19  N1  UNL     1      28.337  -0.105  55.023  1.00  0.00     0.086 N 
HETATM   20  C1  UNL     1      28.975   1.018  54.361  1.00  0.00     0.307 C 
HETATM   21  H4  UNL     1      28.579  -0.050  56.027  1.00  0.00     0.315 HD
ENDBRANCH  18  19
ENDBRANCH  16  18
ENDBRANCH  15  16
ENDBRANCH   1  15
TORSDOF 7
ENDMDL
MODEL 3
REMARK VINA RESULT:      -6.7      2.369      3.209
REMARK  7 active torsions:
REMARK  status: ('A' for Active; 'I' for Inactive)
REMARK    1  A    between atoms: N1_2  and  C2_3 
REMARK    2  A    between atoms: C2_3  and  C3_4 
REMARK    3  A    between atoms: C3_4  and  C4_6 
REMARK    4  A    between atoms: C4_6  and  C5_7 
REMARK    5  A    between atoms: C8_10  and  O2_11 
REMARK    6  A    between atoms: O2_11  and  C9_12 
REMARK    7  A    between atoms: C9_12  and  C10_13 
ROOT
HETATM    1  C5  UNL     1      25.446   0.795  52.590  1.00  0.00    -0.051 A 
HETATM    2  C6  UNL     1      25.179  -0.294  53.390  1.00  0.00     0.010 A 
HETATM    3  C7  UNL     1      23.879  -0.530  53.732  1.00  0.00     0.037 A 
HETATM    4  C8  UNL     1      22.800   0.220  53.353  1.00  0.00     0.069 A 
HETATM    5  C16 UNL     1      23.107   1.322  52.539  1.00  0.00     0.037 A 
HETATM    6  C17 UNL     1      24.425   1.613  52.155  1.00  0.00     0.010 A 
ENDROOT
BRANCH   4   7
HETATM    7  O2  UNL     1      21.460   0.238  53.522  1.00  0.00    -0.347 OA
BRANCH   7   8
HETATM    8  C9  UNL     1      20.547  -0.667  54.001  1.00  0.00     0.214 C 
BRANCH   8   9
HETATM    9  C10 UNL     1      19.325  -0.665  53.163  1.00  0.00    -0.034 A 
HETATM   10  C11 UNL     1      19.387   0.143  52.022  1.00  0.00     0.009 A 
HETATM   11  C12 UNL     1      18.381   0.313  51.114  1.00  0.00     0.001 A 
HETATM   12  C13 UNL     1      17.195  -0.350  51.306  1.00  0.00     0.000 A 
HETATM   13  C14 UNL     1      17.088  -1.158  52.417  1.00  0.00     0.001 A 
HETATM   14  C15 UNL     1      18.118  -1.310  53.316  1.00  0.00     0.009 A 
ENDBRANCH   8   9
ENDBRANCH   7   8
ENDBRANCH   4   7
BRANCH   1  15
HETATM   15  C4  UNL     1      26.877   1.014  52.241  1.00  0.00     0.118 C 
BRANCH  15  16
HETATM   16  C3  UNL     1      27.661   1.445  53.443  1.00  0.00     0.159 C 
HETATM   17  O1  UNL     1      27.281   2.365  54.176  1.00  0.00    -0.296 OA
BRANCH  16  18
HETATM   18  C2  UNL     1      28.926   0.704  53.708  1.00  0.00     0.347 C 
BRANCH  18  19
HETATM   19  N1  UNL     1      28.634  -0.634  54.192  1.00  0.00     0.086 N 
HETATM   20  C1  UNL     1      29.472  -1.554  53.446  1.00  0.00     0.307 C 
HETATM   21  H4  UNL     1      28.896  -0.718  55.188  1.00  0.00     0.315 HD
ENDBRANCH  18  19
ENDBRANCH  16  18
ENDBRANCH  15  16
ENDBRANCH   1  15
TORSDOF 7
ENDMDL
MODEL 4
REMARK VINA RESULT:      -6.5      5.054      6.406
REMARK  7 active torsions:
REMARK  status: ('A' for Active; 'I' for Inactive)
REMARK    1  A    between atoms: N1_2  and  C2_3 
REMARK    2  A    between atoms: C2_3  and  C3_4 
REMARK    3  A    between atoms: C3_4  and  C4_6 
REMARK    4  A    between atoms: C4_6  and  C5_7 
REMARK    5  A    between atoms: C8_10  and  O2_11 
REMARK    6  A    between atoms: O2_11  and  C9_12 
REMARK    7  A    between atoms: C9_12  and  C10_13 
ROOT
HETATM    1  C5  UNL     1      27.542   6.386  48.177  1.00  0.00    -0.051 A 
HETATM    2  C6  UNL     1      26.224   6.713  48.408  1.00  0.00     0.010 A 
HETATM    3  C7  UNL     1      25.426   5.770  48.987  1.00  0.00     0.037 A 
HETATM    4  C8  UNL     1      25.812   4.513  49.366  1.00  0.00     0.069 A 
HETATM    5  C16 UNL     1      27.161   4.212  49.116  1.00  0.00     0.037 A 
HETATM    6  C17 UNL     1      28.028   5.143  48.524  1.00  0.00     0.010 A 
ENDROOT
BRANCH   4   7
HETATM    7  O2  UNL     1      25.279   3.411  49.935  1.00  0.00    -0.347 OA
BRANCH   7   8
HETATM    8  C9  UNL     1      24.718   3.145  51.158  1.00  0.00     0.214 C 
BRANCH   8   9
HETATM    9  C10 UNL     1      25.247   1.875  51.708  1.00  0.00    -0.034 A 
HETATM   10  C11 UNL     1      24.360   1.165  52.524  1.00  0.00     0.009 A 
HETATM   11  C12 UNL     1      24.631  -0.018  53.151  1.00  0.00     0.001 A 
HETATM   12  C13 UNL     1      25.869  -0.588  52.986  1.00  0.00     0.000 A 
HETATM   13  C14 UNL     1      26.776   0.077  52.190  1.00  0.00     0.001 A 
HETATM   14  C15 UNL     1      26.475   1.268  51.571  1.00  0.00     0.009 A 
ENDBRANCH   8   9
ENDBRANCH   7   8
ENDBRANCH   4   7
BRANCH   1  15
HETATM   15  C4  UNL     1      28.376   7.445  47.544  1.00  0.00     0.118 C 
BRANCH  15  16
HETATM   16  C3  UNL     1      29.250   8.116  48.559  1.00  0.00     0.159 C 
HETATM   17  O1  UNL     1      28.796   8.911  49.390  1.00  0.00    -0.296 OA
BRANCH  16  18
HETATM   18  C2  UNL     1      30.699   7.774  48.514  1.00  0.00     0.347 C 
BRANCH  18  19
HETATM   19  N1  UNL     1      31.138   7.270  49.804  1.00  0.00     0.086 N 
HETATM   20  C1  UNL     1      31.862   6.036  49.560  1.00  0.00     0.307 C 
HETATM   21  H4  UNL     1      31.799   7.934  50.239  1.00  0.00     0.315 HD
ENDBRANCH  18  19
ENDBRANCH  16  18
ENDBRANCH  15  16
ENDBRANCH   1  15
TORSDOF 7
ENDMDL
MODEL 5
REMARK VINA RESULT:      -6.5      1.957      3.650
REMARK  7 active torsions:
REMARK  status: ('A' for Active; 'I' for Inactive)
REMARK    1  A    between atoms: N1_2  and  C2_3 
REMARK    2  A    between atoms: C2_3  and  C3_4 
REMARK    3  A    between atoms: C3_4  and  C4_6 
REMARK    4  A    between atoms: C4_6  and  C5_7 
REMARK    5  A    between atoms: C8_10  and  O2_11 
REMARK    6  A    between atoms: O2_11  and  C9_12 
REMARK    7  A    between atoms: C9_12  and  C10_13 
ROOT
HETATM    1  C5  UNL     1      26.252  -0.321  52.771  1.00  0.00    -0.051 A 
HETATM    2  C6  UNL     1      25.151  -0.654  53.528  1.00  0.00     0.010 A 
HETATM    3  C7  UNL     1      24.085   0.197  53.511  1.00  0.00     0.037 A 
HETATM    4  C8  UNL     1      24.001   1.367  52.806  1.00  0.00     0.069 A 
HETATM    5  C16 UNL     1      25.141   1.677  52.045  1.00  0.00     0.037 A 
HETATM    6  C17 UNL     1      26.266   0.838  52.024  1.00  0.00     0.010 A 
ENDROOT
BRANCH   4   7
HETATM    7  O2  UNL     1      23.124   2.372  52.597  1.00  0.00    -0.347 OA
BRANCH   7   8
HETATM    8  C9  UNL     1      21.890   2.453  52.005  1.00  0.00     0.214 C 
BRANCH   8   9
HETATM    9  C10 UNL     1      21.993   2.200  50.549  1.00  0.00    -0.034 A 
HETATM   10  C11 UNL     1      22.641   3.201  49.816  1.00  0.00     0.009 A 
HETATM   11  C12 UNL     1      22.840   3.192  48.465  1.00  0.00     0.001 A 
HETATM   12  C13 UNL     1      22.378   2.127  47.732  1.00  0.00     0.000 A 
HETATM   13  C14 UNL     1      21.733   1.117  48.413  1.00  0.00     0.001 A 
HETATM   14  C15 UNL     1      21.547   1.152  49.775  1.00  0.00     0.009 A 
ENDBRANCH   8   9
ENDBRANCH   7   8
ENDBRANCH   4   7
BRANCH   1  15
HETATM   15  C4  UNL     1      27.392  -1.279  52.819  1.00  0.00     0.118 C 
BRANCH  15  16
HETATM   16  C3  UNL     1      28.554  -0.691  53.559  1.00  0.00     0.159 C 
HETATM   17  O1  UNL     1      29.723  -0.949  53.252  1.00  0.00    -0.296 OA
BRANCH  16  18
HETATM   18  C2  UNL     1      28.224   0.223  54.688  1.00  0.00     0.347 C 
BRANCH  18  19
HETATM   19  N1  UNL     1      29.187   1.309  54.754  1.00  0.00     0.086 N 
HETATM   20  C1  UNL     1      28.740   2.336  53.832  1.00  0.00     0.307 C 
HETATM   21  H4  UNL     1      29.190   1.725  55.700  1.00  0.00     0.315 HD
ENDBRANCH  18  19
ENDBRANCH  16  18
ENDBRANCH  15  16
ENDBRANCH   1  15
TORSDOF 7
ENDMDL
MODEL 6
REMARK VINA RESULT:      -6.4      3.640      5.012
REMARK  7 active torsions:
REMARK  status: ('A' for Active; 'I' for Inactive)
REMARK    1  A    between atoms: N1_2  and  C2_3 
REMARK    2  A    between atoms: C2_3  and  C3_4 
REMARK    3  A    between atoms: C3_4  and  C4_6 
REMARK    4  A    between atoms: C4_6  and  C5_7 
REMARK    5  A    between atoms: C8_10  and  O2_11 
REMARK    6  A    between atoms: O2_11  and  C9_12 
REMARK    7  A    between atoms: C9_12  and  C10_13 
ROOT
HETATM    1  C5  UNL     1      23.215   0.514  52.611  1.00  0.00    -0.051 A 
HETATM    2  C6  UNL     1      23.220  -0.203  53.788  1.00  0.00     0.010 A 
HETATM    3  C7  UNL     1      22.039  -0.736  54.215  1.00  0.00     0.037 A 
HETATM    4  C8  UNL     1      20.832  -0.625  53.580  1.00  0.00     0.069 A 
HETATM    5  C16 UNL     1      20.862   0.112  52.385  1.00  0.00     0.037 A 
HETATM    6  C17 UNL     1      22.048   0.682  51.898  1.00  0.00     0.010 A 
ENDROOT
BRANCH   4   7
HETATM    7  O2  UNL     1      19.552  -1.021  53.747  1.00  0.00    -0.347 OA
BRANCH   7   8
HETATM    8  C9  UNL     1      18.386  -0.797  53.059  1.00  0.00     0.214 C 
BRANCH   8   9
HETATM    9  C10 UNL     1      17.518  -1.996  53.102  1.00  0.00    -0.034 A 
HETATM   10  C11 UNL     1      16.297  -1.871  52.430  1.00  0.00     0.009 A 
HETATM   11  C12 UNL     1      15.333  -2.835  52.348  1.00  0.00     0.001 A 
HETATM   12  C13 UNL     1      15.548  -4.043  52.965  1.00  0.00     0.000 A 
HETATM   13  C14 UNL     1      16.738  -4.211  53.640  1.00  0.00     0.001 A 
HETATM   14  C15 UNL     1      17.691  -3.222  53.706  1.00  0.00     0.009 A 
ENDBRANCH   8   9
ENDBRANCH   7   8
ENDBRANCH   4   7
BRANCH   1  15
HETATM   15  C4  UNL     1      24.527   1.075  52.183  1.00  0.00     0.118 C 
BRANCH  15  16
HETATM   16  C3  UNL     1      25.054   2.038  53.202  1.00  0.00     0.159 C 
HETATM   17  O1  UNL     1      24.526   3.139  53.397  1.00  0.00    -0.296 OA
BRANCH  16  18
HETATM   18  C2  UNL     1      26.252   1.597  53.971  1.00  0.00     0.347 C 
BRANCH  18  19
HETATM   19  N1  UNL     1      27.211   2.683  54.075  1.00  0.00     0.086 N 
HETATM   20  C1  UNL     1      28.400   2.279  53.347  1.00  0.00     0.307 C 
HETATM   21  H4  UNL     1      26.840   3.531  53.613  1.00  0.00     0.315 HD
ENDBRANCH  18  19
ENDBRANCH  16  18
ENDBRANCH  15  16
ENDBRANCH   1  15
TORSDOF 7
ENDMDL
MODEL 7
REMARK VINA RESULT:      -6.4      5.275      7.069
REMARK  7 active torsions:
REMARK  status: ('A' for Active; 'I' for Inactive)
REMARK    1  A    between atoms: N1_2  and  C2_3 
REMARK    2  A    between atoms: C2_3  and  C3_4 
REMARK    3  A    between atoms: C3_4  and  C4_6 
REMARK    4  A    between atoms: C4_6  and  C5_7 
REMARK    5  A    between atoms: C8_10  and  O2_11 
REMARK    6  A    between atoms: O2_11  and  C9_12 
REMARK    7  A    between atoms: C9_12  and  C10_13 
ROOT
HETATM    1  C5  UNL     1      27.086   6.144  48.571  1.00  0.00    -0.051 A 
HETATM    2  C6  UNL     1      25.925   6.448  49.247  1.00  0.00     0.010 A 
HETATM    3  C7  UNL     1      25.314   5.448  49.946  1.00  0.00     0.037 A 
HETATM    4  C8  UNL     1      25.747   4.154  50.042  1.00  0.00     0.069 A 
HETATM    5  C16 UNL     1      26.932   3.878  49.341  1.00  0.00     0.037 A 
HETATM    6  C17 UNL     1      27.604   4.867  48.606  1.00  0.00     0.010 A 
ENDROOT
BRANCH   4   7
HETATM    7  O2  UNL     1      25.378   2.996  50.629  1.00  0.00    -0.347 OA
BRANCH   7   8
HETATM    8  C9  UNL     1      25.172   2.607  51.928  1.00  0.00     0.214 C 
BRANCH   8   9
HETATM    9  C10 UNL     1      26.172   1.592  52.332  1.00  0.00    -0.034 A 
HETATM   10  C11 UNL     1      27.344   2.105  52.900  1.00  0.00     0.009 A 
HETATM   11  C12 UNL     1      28.407   1.364  53.332  1.00  0.00     0.001 A 
HETATM   12  C13 UNL     1      28.355  -0.003  53.214  1.00  0.00     0.000 A 
HETATM   13  C14 UNL     1      27.220  -0.552  52.660  1.00  0.00     0.001 A 
HETATM   14  C15 UNL     1      26.164   0.219  52.233  1.00  0.00     0.009 A 
ENDBRANCH   8   9
ENDBRANCH   7   8
ENDBRANCH   4   7
BRANCH   1  15
HETATM   15  C4  UNL     1      27.719   7.265  47.822  1.00  0.00     0.118 C 
BRANCH  15  16
HETATM   16  C3  UNL     1      28.855   7.855  48.601  1.00  0.00     0.159 C 
HETATM   17  O1  UNL     1      29.968   7.320  48.641  1.00  0.00    -0.296 OA
BRANCH  16  18
HETATM   18  C2  UNL     1      28.569   9.124  49.328  1.00  0.00     0.347 C 
BRANCH  18  19
HETATM   19  N1  UNL     1      29.790   9.659  49.904  1.00  0.00     0.086 N 
HETATM   20  C1  UNL     1      30.231  10.744  49.046  1.00  0.00     0.307 C 
HETATM   21  H4  UNL     1      29.598  10.063  50.836  1.00  0.00     0.315 HD
ENDBRANCH  18  19
ENDBRANCH  16  18
ENDBRANCH  15  16
ENDBRANCH   1  15
TORSDOF 7
ENDMDL
MODEL 8
REMARK VINA RESULT:      -6.3      2.402      3.182
REMARK  7 active torsions:
REMARK  status: ('A' for Active; 'I' for Inactive)
REMARK    1  A    between atoms: N1_2  and  C2_3 
REMARK    2  A    between atoms: C2_3  and  C3_4 
REMARK    3  A    between atoms: C3_4  and  C4_6 
REMARK    4  A    between atoms: C4_6  and  C5_7 
REMARK    5  A    between atoms: C8_10  and  O2_11 
REMARK    6  A    between atoms: O2_11  and  C9_12 
REMARK    7  A    between atoms: C9_12  and  C10_13 
ROOT
HETATM    1  C5  UNL     1      25.576   0.125  52.526  1.00  0.00    -0.051 A 
HETATM    2  C6  UNL     1      24.962  -0.754  53.391  1.00  0.00     0.010 A 
HETATM    3  C7  UNL     1      23.648  -0.540  53.690  1.00  0.00     0.037 A 
HETATM    4  C8  UNL     1      22.869   0.476  53.209  1.00  0.00     0.069 A 
HETATM    5  C16 UNL     1      23.526   1.354  52.331  1.00  0.00     0.037 A 
HETATM    6  C17 UNL     1      24.875   1.183  51.987  1.00  0.00     0.010 A 
ENDROOT
BRANCH   4   7
HETATM    7  O2  UNL     1      21.601   0.928  53.315  1.00  0.00    -0.347 OA
BRANCH   7   8
HETATM    8  C9  UNL     1      20.627   1.258  52.408  1.00  0.00     0.214 C 
BRANCH   8   9
HETATM    9  C10 UNL     1      19.497   0.303  52.487  1.00  0.00    -0.034 A 
HETATM   10  C11 UNL     1      18.522   0.452  51.495  1.00  0.00     0.009 A 
HETATM   11  C12 UNL     1      17.388  -0.301  51.377  1.00  0.00     0.001 A 
HETATM   12  C13 UNL     1      17.154  -1.297  52.292  1.00  0.00     0.000 A 
HETATM   13  C14 UNL     1      18.088  -1.479  53.288  1.00  0.00     0.001 A 
HETATM   14  C15 UNL     1      19.222  -0.706  53.383  1.00  0.00     0.009 A 
ENDBRANCH   8   9
ENDBRANCH   7   8
ENDBRANCH   4   7
BRANCH   1  15
HETATM   15  C4  UNL     1      27.010  -0.146  52.228  1.00  0.00     0.118 C 
BRANCH  15  16
HETATM   16  C3  UNL     1      27.739  -0.583  53.462  1.00  0.00     0.159 C 
HETATM   17  O1  UNL     1      28.181  -1.730  53.589  1.00  0.00    -0.296 OA
BRANCH  16  18
HETATM   18  C2  UNL     1      27.904   0.443  54.530  1.00  0.00     0.347 C 
BRANCH  18  19
HETATM   19  N1  UNL     1      29.119   1.208  54.309  1.00  0.00     0.086 N 
HETATM   20  C1  UNL     1      28.730   2.469  53.705  1.00  0.00     0.307 C 
HETATM   21  H4  UNL     1      29.572   1.427  55.212  1.00  0.00     0.315 HD
ENDBRANCH  18  19
ENDBRANCH  16  18
ENDBRANCH  15  16
ENDBRANCH   1  15
TORSDOF 7
ENDMDL
MODEL 9
REMARK VINA RESULT:      -6.2      4.564      6.848
REMARK  7 active torsions:
REMARK  status: ('A' for Active; 'I' for Inactive)
REMARK    1  A    between atoms: N1_2  and  C2_3 
REMARK    2  A    between atoms: C2_3  and  C3_4 
REMARK    3  A    between atoms: C3_4  and  C4_6 
REMARK    4  A    between atoms: C4_6  and  C5_7 
REMARK    5  A    between atoms: C8_10  and  O2_11 
REMARK    6  A    between atoms: O2_11  and  C9_12 
REMARK    7  A    between atoms: C9_12  and  C10_13 
ROOT
HETATM    1  C5  UNL     1      26.160   5.713  49.055  1.00  0.00    -0.051 A 
HETATM    2  C6  UNL     1      27.001   4.628  48.947  1.00  0.00     0.010 A 
HETATM    3  C7  UNL     1      26.733   3.533  49.716  1.00  0.00     0.037 A 
HETATM    4  C8  UNL     1      25.694   3.406  50.597  1.00  0.00     0.069 A 
HETATM    5  C16 UNL     1      24.856   4.530  50.684  1.00  0.00     0.037 A 
HETATM    6  C17 UNL     1      25.084   5.682  49.917  1.00  0.00     0.010 A 
ENDROOT
BRANCH   4   7
HETATM    7  O2  UNL     1      25.191   2.494  51.456  1.00  0.00    -0.347 OA
BRANCH   7   8
HETATM    8  C9  UNL     1      25.484   1.183  51.736  1.00  0.00     0.214 C 
BRANCH   8   9
HETATM    9  C10 UNL     1      26.764   1.083  52.476  1.00  0.00    -0.034 A 
HETATM   10  C11 UNL     1      27.246  -0.218  52.655  1.00  0.00     0.009 A 
HETATM   11  C12 UNL     1      28.393  -0.555  53.315  1.00  0.00     0.001 A 
HETATM   12  C13 UNL     1      29.162   0.442  53.862  1.00  0.00     0.000 A 
HETATM   13  C14 UNL     1      28.725   1.740  53.710  1.00  0.00     0.001 A 
HETATM   14  C15 UNL     1      27.565   2.050  53.040  1.00  0.00     0.009 A 
ENDBRANCH   8   9
ENDBRANCH   7   8
ENDBRANCH   4   7
BRANCH   1  15
HETATM   15  C4  UNL     1      26.491   6.884  48.197  1.00  0.00     0.118 C 
BRANCH  15  16
HETATM   16  C3  UNL     1      27.402   7.833  48.915  1.00  0.00     0.159 C 
HETATM   17  O1  UNL     1      27.026   8.486  49.895  1.00  0.00    -0.296 OA
BRANCH  16  18
HETATM   18  C2  UNL     1      28.789   7.947  48.383  1.00  0.00     0.347 C 
BRANCH  18  19
HETATM   19  N1  UNL     1      29.690   8.411  49.423  1.00  0.00     0.086 N 
HETATM   20  C1  UNL     1      31.014   7.910  49.101  1.00  0.00     0.307 C 
HETATM   21  H4  UNL     1      29.741   9.444  49.416  1.00  0.00     0.315 HD
ENDBRANCH  18  19
ENDBRANCH  16  18
ENDBRANCH  15  16
ENDBRANCH   1  15
TORSDOF 7
ENDMDL
