MODEL 1
REMARK VINA RESULT:      -7.8      0.000      0.000
REMARK  10 active torsions:
REMARK  status: ('A' for Active; 'I' for Inactive)
REMARK    1  A    between atoms: C3_3  and  C5_5 
REMARK    2  A    between atoms: C5_5  and  O1_6 
REMARK    3  A    between atoms: C5_5  and  C6_7 
REMARK    4  A    between atoms: C6_7  and  C8_9 
REMARK    5  A    between atoms: C8_9  and  C9_10 
REMARK    6  A    between atoms: C10_11  and  C11_12 
REMARK    7  A    between atoms: C11_12  and  C12_13 
REMARK    8  A    between atoms: C12_13  and  C14_15 
REMARK    9  A    between atoms: C15_16  and  C16_17 
REMARK   10  A    between atoms: C22_24  and  O3_25 
ROOT
HETATM    1  C12 UNL     1      21.011   0.145  52.234  1.00  0.00     0.007 C 
HETATM    2  C13 UNL     1      20.537   0.938  53.455  1.00  0.00     0.014 C 
ENDROOT
BRANCH   1   3
HETATM    3  C11 UNL     1      20.468   0.850  51.034  1.00  0.00     0.035 C 
BRANCH   3   4
HETATM    4  C10 UNL     1      21.427   1.068  49.946  1.00  0.00    -0.030 C 
HETATM    5  C9  UNL     1      21.948   2.202  49.563  1.00  0.00    -0.030 C 
BRANCH   5   6
HETATM    6  C8  UNL     1      21.725   3.548  50.099  1.00  0.00     0.034 C 
BRANCH   6   7
HETATM    7  C6  UNL     1      22.650   3.829  51.274  1.00  0.00     0.018 C 
HETATM    8  C7  UNL     1      21.744   4.094  52.454  1.00  0.00     0.013 C 
BRANCH   7   9
HETATM    9  C5  UNL     1      23.478   5.048  50.992  1.00  0.00     0.150 C 
BRANCH   9  10
HETATM   10  C3  UNL     1      24.626   4.824  50.093  1.00  0.00    -0.059 C 
HETATM   11  C2  UNL     1      25.423   3.755  50.317  1.00  0.00    -0.026 C 
HETATM   12  C1  UNL     1      26.624   3.230  49.653  1.00  0.00     0.036 C 
HETATM   13  C4  UNL     1      25.153   5.543  48.929  1.00  0.00     0.046 C 
ENDBRANCH   9  10
BRANCH   9  14
HETATM   14  O1  UNL     1      23.946   5.598  52.200  1.00  0.00    -0.391 OA
HETATM   15  H9  UNL     1      23.144   5.920  52.681  1.00  0.00     0.210 HD
ENDBRANCH   9  14
ENDBRANCH   7   9
ENDBRANCH   6   7
ENDBRANCH   5   6
ENDBRANCH   3   4
ENDBRANCH   1   3
BRANCH   1  16
HETATM   16  C14 UNL     1      22.493   0.063  52.234  1.00  0.00    -0.022 C 
HETATM   17  C15 UNL     1      23.319   0.539  53.149  1.00  0.00     0.005 C 
BRANCH  17  18
HETATM   18  C16 UNL     1      24.778   0.490  53.205  1.00  0.00    -0.038 C 
HETATM   19  C17 UNL     1      25.340   1.654  53.442  1.00  0.00    -0.010 C 
HETATM   20  C18 UNL     1      26.532   2.476  53.645  1.00  0.00     0.111 C 
HETATM   21  C19 UNL     1      27.818   1.812  53.339  1.00  0.00     0.163 C 
HETATM   22  O2  UNL     1      28.620   2.608  52.747  1.00  0.00    -0.292 OA
HETATM   23  C20 UNL     1      28.409   0.494  53.533  1.00  0.00     0.042 C 
HETATM   24  C21 UNL     1      29.900   0.510  53.539  1.00  0.00     0.057 C 
HETATM   25  C22 UNL     1      27.842  -0.692  53.698  1.00  0.00     0.190 C 
HETATM   26  O4  UNL     1      26.503  -1.129  53.747  1.00  0.00    -0.326 OA
HETATM   27  C24 UNL     1      25.349  -0.856  52.982  1.00  0.00     0.216 C 
BRANCH  25  28
HETATM   28  O3  UNL     1      28.909  -1.605  53.840  1.00  0.00    -0.335 OA
HETATM   29  C23 UNL     1      28.791  -2.818  53.128  1.00  0.00     0.212 C 
ENDBRANCH  25  28
ENDBRANCH  17  18
ENDBRANCH   1  16
TORSDOF 10
ENDMDL
MODEL 2
REMARK VINA RESULT:      -7.3      2.999      6.332
REMARK  10 active torsions:
REMARK  status: ('A' for Active; 'I' for Inactive)
REMARK    1  A    between atoms: C3_3  and  C5_5 
REMARK    2  A    between atoms: C5_5  and  O1_6 
REMARK    3  A    between atoms: C5_5  and  C6_7 
REMARK    4  A    between atoms: C6_7  and  C8_9 
REMARK    5  A    between atoms: C8_9  and  C9_10 
REMARK    6  A    between atoms: C10_11  and  C11_12 
REMARK    7  A    between atoms: C11_12  and  C12_13 
REMARK    8  A    between atoms: C12_13  and  C14_15 
REMARK    9  A    between atoms: C15_16  and  C16_17 
REMARK   10  A    between atoms: C22_24  and  O3_25 
ROOT
HETATM    1  C12 UNL     1      26.000  -0.632  53.788  1.00  0.00     0.007 C 
HETATM    2  C13 UNL     1      26.910  -1.452  52.869  1.00  0.00     0.014 C 
ENDROOT
BRANCH   1   3
HETATM    3  C11 UNL     1      26.576   0.746  53.834  1.00  0.00     0.035 C 
BRANCH   3   4
HETATM    4  C10 UNL     1      27.258   1.183  52.612  1.00  0.00    -0.030 C 
HETATM    5  C9  UNL     1      26.716   1.697  51.541  1.00  0.00    -0.030 C 
BRANCH   5   6
HETATM    6  C8  UNL     1      25.303   1.975  51.263  1.00  0.00     0.034 C 
BRANCH   6   7
HETATM    7  C6  UNL     1      25.017   3.468  51.328  1.00  0.00     0.018 C 
HETATM    8  C7  UNL     1      23.906   3.628  52.341  1.00  0.00     0.013 C 
BRANCH   7   9
HETATM    9  C5  UNL     1      24.551   3.957  49.989  1.00  0.00     0.150 C 
BRANCH   9  10
HETATM   10  C3  UNL     1      25.489   4.861  49.298  1.00  0.00    -0.059 C 
HETATM   11  C2  UNL     1      26.771   4.463  49.137  1.00  0.00    -0.026 C 
HETATM   12  C1  UNL     1      27.954   5.079  48.522  1.00  0.00     0.036 C 
HETATM   13  C4  UNL     1      25.353   6.194  48.701  1.00  0.00     0.046 C 
ENDBRANCH   9  10
BRANCH   9  14
HETATM   14  O1  UNL     1      23.308   4.605  50.123  1.00  0.00    -0.391 OA
HETATM   15  H9  UNL     1      23.086   4.955  49.225  1.00  0.00     0.210 HD
ENDBRANCH   9  14
ENDBRANCH   7   9
ENDBRANCH   6   7
ENDBRANCH   5   6
ENDBRANCH   3   4
ENDBRANCH   1   3
BRANCH   1  16
HETATM   16  C14 UNL     1      24.609  -0.659  53.270  1.00  0.00    -0.022 C 
HETATM   17  C15 UNL     1      23.532  -0.161  53.850  1.00  0.00     0.005 C 
BRANCH  17  18
HETATM   18  C16 UNL     1      22.144  -0.156  53.393  1.00  0.00    -0.038 C 
HETATM   19  C17 UNL     1      21.994   0.255  52.154  1.00  0.00    -0.010 C 
HETATM   20  C18 UNL     1      21.140   0.556  51.007  1.00  0.00     0.111 C 
HETATM   21  C19 UNL     1      19.686   0.555  51.282  1.00  0.00     0.163 C 
HETATM   22  O2  UNL     1      19.098   1.508  50.671  1.00  0.00    -0.292 OA
HETATM   23  C20 UNL     1      18.751  -0.244  52.064  1.00  0.00     0.042 C 
HETATM   24  C21 UNL     1      17.346  -0.162  51.569  1.00  0.00     0.057 C 
HETATM   25  C22 UNL     1      18.947  -1.013  53.125  1.00  0.00     0.190 C 
HETATM   26  O4  UNL     1      20.087  -1.346  53.884  1.00  0.00    -0.326 OA
HETATM   27  C24 UNL     1      21.170  -0.610  54.409  1.00  0.00     0.216 C 
BRANCH  25  28
HETATM   28  O3  UNL     1      17.678  -1.538  53.451  1.00  0.00    -0.335 OA
HETATM   29  C23 UNL     1      17.637  -2.910  53.781  1.00  0.00     0.212 C 
ENDBRANCH  25  28
ENDBRANCH  17  18
ENDBRANCH   1  16
TORSDOF 10
ENDMDL
MODEL 3
REMARK VINA RESULT:      -7.1      1.481      2.296
REMARK  10 active torsions:
REMARK  status: ('A' for Active; 'I' for Inactive)
REMARK    1  A    between atoms: C3_3  and  C5_5 
REMARK    2  A    between atoms: C5_5  and  O1_6 
REMARK    3  A    between atoms: C5_5  and  C6_7 
REMARK    4  A    between atoms: C6_7  and  C8_9 
REMARK    5  A    between atoms: C8_9  and  C9_10 
REMARK    6  A    between atoms: C10_11  and  C11_12 
REMARK    7  A    between atoms: C11_12  and  C12_13 
REMARK    8  A    between atoms: C12_13  and  C14_15 
REMARK    9  A    between atoms: C15_16  and  C16_17 
REMARK   10  A    between atoms: C22_24  and  O3_25 
ROOT
HETATM    1  C12 UNL     1      21.075   0.425  53.284  1.00  0.00     0.007 C 
HETATM    2  C13 UNL     1      20.363   0.277  54.631  1.00  0.00     0.014 C 
ENDROOT
BRANCH   1   3
HETATM    3  C11 UNL     1      20.444   1.593  52.598  1.00  0.00     0.035 C 
BRANCH   3   4
HETATM    4  C10 UNL     1      19.682   1.273  51.387  1.00  0.00    -0.030 C 
HETATM    5  C9  UNL     1      20.154   1.013  50.198  1.00  0.00    -0.030 C 
BRANCH   5   6
HETATM    6  C8  UNL     1      21.548   0.968  49.747  1.00  0.00     0.034 C 
BRANCH   6   7
HETATM    7  C6  UNL     1      22.047   2.356  49.371  1.00  0.00     0.018 C 
HETATM    8  C7  UNL     1      22.576   2.234  47.961  1.00  0.00     0.013 C 
BRANCH   7   9
HETATM    9  C5  UNL     1      23.158   2.766  50.292  1.00  0.00     0.150 C 
BRANCH   9  10
HETATM   10  C3  UNL     1      22.871   3.952  51.122  1.00  0.00    -0.059 C 
HETATM   11  C2  UNL     1      22.172   4.971  50.573  1.00  0.00    -0.026 C 
HETATM   12  C1  UNL     1      21.716   6.273  51.076  1.00  0.00     0.036 C 
HETATM   13  C4  UNL     1      23.192   4.318  52.505  1.00  0.00     0.046 C 
ENDBRANCH   9  10
BRANCH   9  14
HETATM   14  O1  UNL     1      24.331   3.002  49.550  1.00  0.00    -0.391 OA
HETATM   15  H9  UNL     1      24.747   3.806  49.948  1.00  0.00     0.210 HD
ENDBRANCH   9  14
ENDBRANCH   7   9
ENDBRANCH   6   7
ENDBRANCH   5   6
ENDBRANCH   3   4
ENDBRANCH   1   3
BRANCH   1  16
HETATM   16  C14 UNL     1      22.532   0.603  53.504  1.00  0.00    -0.022 C 
HETATM   17  C15 UNL     1      23.515   0.007  52.854  1.00  0.00     0.005 C 
BRANCH  17  18
HETATM   18  C16 UNL     1      24.961   0.139  53.023  1.00  0.00    -0.038 C 
HETATM   19  C17 UNL     1      25.353   1.362  53.301  1.00  0.00    -0.010 C 
HETATM   20  C18 UNL     1      26.414   2.323  53.594  1.00  0.00     0.111 C 
HETATM   21  C19 UNL     1      27.793   1.828  53.389  1.00  0.00     0.163 C 
HETATM   22  O2  UNL     1      28.533   2.722  52.861  1.00  0.00    -0.292 OA
HETATM   23  C20 UNL     1      28.527   0.591  53.630  1.00  0.00     0.042 C 
HETATM   24  C21 UNL     1      29.999   0.792  53.752  1.00  0.00     0.057 C 
HETATM   25  C22 UNL     1      28.101  -0.658  53.752  1.00  0.00     0.190 C 
HETATM   26  O4  UNL     1      26.827  -1.258  53.698  1.00  0.00    -0.326 OA
HETATM   27  C24 UNL     1      25.710  -1.123  52.846  1.00  0.00     0.216 C 
BRANCH  25  28
HETATM   28  O3  UNL     1      29.259  -1.432  53.977  1.00  0.00    -0.335 OA
HETATM   29  C23 UNL     1      29.332  -2.661  53.287  1.00  0.00     0.212 C 
ENDBRANCH  25  28
ENDBRANCH  17  18
ENDBRANCH   1  16
TORSDOF 10
ENDMDL
MODEL 4
REMARK VINA RESULT:      -7.1      3.102      6.923
REMARK  10 active torsions:
REMARK  status: ('A' for Active; 'I' for Inactive)
REMARK    1  A    between atoms: C3_3  and  C5_5 
REMARK    2  A    between atoms: C5_5  and  O1_6 
REMARK    3  A    between atoms: C5_5  and  C6_7 
REMARK    4  A    between atoms: C6_7  and  C8_9 
REMARK    5  A    between atoms: C8_9  and  C9_10 
REMARK    6  A    between atoms: C10_11  and  C11_12 
REMARK    7  A    between atoms: C11_12  and  C12_13 
REMARK    8  A    between atoms: C12_13  and  C14_15 
REMARK    9  A    between atoms: C15_16  and  C16_17 
REMARK   10  A    between atoms: C22_24  and  O3_25 
ROOT
HETATM    1  C12 UNL     1      24.583   2.396  51.742  1.00  0.00     0.007 C 
HETATM    2  C13 UNL     1      24.625   2.917  53.180  1.00  0.00     0.014 C 
ENDROOT
BRANCH   1   3
HETATM    3  C11 UNL     1      23.165   2.518  51.288  1.00  0.00     0.035 C 
BRANCH   3   4
HETATM    4  C10 UNL     1      22.496   1.252  50.970  1.00  0.00    -0.030 C 
HETATM    5  C9  UNL     1      22.073   0.346  51.809  1.00  0.00    -0.030 C 
BRANCH   5   6
HETATM    6  C8  UNL     1      22.145   0.337  53.273  1.00  0.00     0.034 C 
BRANCH   6   7
HETATM    7  C6  UNL     1      22.761  -0.958  53.783  1.00  0.00     0.018 C 
HETATM    8  C7  UNL     1      21.618  -1.754  54.369  1.00  0.00     0.013 C 
BRANCH   7   9
HETATM    9  C5  UNL     1      23.767  -0.658  54.854  1.00  0.00     0.150 C 
BRANCH   9  10
HETATM   10  C3  UNL     1      25.146  -0.450  54.371  1.00  0.00    -0.059 C 
HETATM   11  C2  UNL     1      25.445  -0.803  53.101  1.00  0.00    -0.026 C 
HETATM   12  C1  UNL     1      26.674  -0.750  52.298  1.00  0.00     0.036 C 
HETATM   13  C4  UNL     1      26.363   0.084  54.990  1.00  0.00     0.046 C 
ENDBRANCH   9  10
BRANCH   9  14
HETATM   14  O1  UNL     1      23.770  -1.692  55.810  1.00  0.00    -0.391 OA
HETATM   15  H9  UNL     1      24.386  -2.382  55.462  1.00  0.00     0.210 HD
ENDBRANCH   9  14
ENDBRANCH   7   9
ENDBRANCH   6   7
ENDBRANCH   5   6
ENDBRANCH   3   4
ENDBRANCH   1   3
BRANCH   1  16
HETATM   16  C14 UNL     1      25.527   3.172  50.899  1.00  0.00    -0.022 C 
HETATM   17  C15 UNL     1      25.252   4.234  50.164  1.00  0.00     0.005 C 
BRANCH  17  18
HETATM   18  C16 UNL     1      26.133   5.037  49.318  1.00  0.00    -0.038 C 
HETATM   19  C17 UNL     1      25.687   6.252  49.089  1.00  0.00    -0.010 C 
HETATM   20  C18 UNL     1      25.835   7.567  48.469  1.00  0.00     0.111 C 
HETATM   21  C19 UNL     1      26.930   7.682  47.482  1.00  0.00     0.163 C 
HETATM   22  O2  UNL     1      26.575   8.381  46.475  1.00  0.00    -0.292 OA
HETATM   23  C20 UNL     1      28.303   7.210  47.354  1.00  0.00     0.042 C 
HETATM   24  C21 UNL     1      29.135   8.050  46.446  1.00  0.00     0.057 C 
HETATM   25  C22 UNL     1      28.915   6.171  47.904  1.00  0.00     0.190 C 
HETATM   26  O4  UNL     1      28.498   5.157  48.789  1.00  0.00    -0.326 OA
HETATM   27  C24 UNL     1      27.355   4.333  48.875  1.00  0.00     0.216 C 
BRANCH  25  28
HETATM   28  O3  UNL     1      30.239   6.212  47.419  1.00  0.00    -0.335 OA
HETATM   29  C23 UNL     1      31.153   5.320  48.022  1.00  0.00     0.212 C 
ENDBRANCH  25  28
ENDBRANCH  17  18
ENDBRANCH   1  16
TORSDOF 10
ENDMDL
MODEL 5
REMARK VINA RESULT:      -7.1      3.921      7.924
REMARK  10 active torsions:
REMARK  status: ('A' for Active; 'I' for Inactive)
REMARK    1  A    between atoms: C3_3  and  C5_5 
REMARK    2  A    between atoms: C5_5  and  O1_6 
REMARK    3  A    between atoms: C5_5  and  C6_7 
REMARK    4  A    between atoms: C6_7  and  C8_9 
REMARK    5  A    between atoms: C8_9  and  C9_10 
REMARK    6  A    between atoms: C10_11  and  C11_12 
REMARK    7  A    between atoms: C11_12  and  C12_13 
REMARK    8  A    between atoms: C12_13  and  C14_15 
REMARK    9  A    between atoms: C15_16  and  C16_17 
REMARK   10  A    between atoms: C22_24  and  O3_25 
ROOT
HETATM    1  C12 UNL     1      25.642   2.987  50.172  1.00  0.00     0.007 C 
HETATM    2  C13 UNL     1      26.631   2.384  51.173  1.00  0.00     0.014 C 
ENDROOT
BRANCH   1   3
HETATM    3  C11 UNL     1      24.349   3.152  50.901  1.00  0.00     0.035 C 
BRANCH   3   4
HETATM    4  C10 UNL     1      23.422   2.020  50.802  1.00  0.00    -0.030 C 
HETATM    5  C9  UNL     1      23.111   1.165  51.738  1.00  0.00    -0.030 C 
BRANCH   5   6
HETATM    6  C8  UNL     1      23.589   1.096  53.122  1.00  0.00     0.034 C 
BRANCH   6   7
HETATM    7  C6  UNL     1      23.997  -0.323  53.490  1.00  0.00     0.018 C 
HETATM    8  C7  UNL     1      22.857  -0.877  54.314  1.00  0.00     0.013 C 
BRANCH   7   9
HETATM    9  C5  UNL     1      25.248  -0.297  54.316  1.00  0.00     0.150 C 
BRANCH   9  10
HETATM   10  C3  UNL     1      26.494  -0.541  53.565  1.00  0.00    -0.059 C 
HETATM   11  C2  UNL     1      27.655  -0.068  54.069  1.00  0.00    -0.026 C 
HETATM   12  C1  UNL     1      29.051  -0.112  53.612  1.00  0.00     0.036 C 
HETATM   13  C4  UNL     1      26.795  -1.224  52.302  1.00  0.00     0.046 C 
ENDBRANCH   9  10
BRANCH   9  14
HETATM   14  O1  UNL     1      25.153  -1.240  55.358  1.00  0.00    -0.391 OA
HETATM   15  H9  UNL     1      24.779  -2.060  54.951  1.00  0.00     0.210 HD
ENDBRANCH   9  14
ENDBRANCH   7   9
ENDBRANCH   6   7
ENDBRANCH   5   6
ENDBRANCH   3   4
ENDBRANCH   1   3
BRANCH   1  16
HETATM   16  C14 UNL     1      26.177   4.268  49.648  1.00  0.00    -0.022 C 
HETATM   17  C15 UNL     1      27.291   4.446  48.962  1.00  0.00     0.005 C 
BRANCH  17  18
HETATM   18  C16 UNL     1      27.869   5.676  48.421  1.00  0.00    -0.038 C 
HETATM   19  C17 UNL     1      26.985   6.619  48.187  1.00  0.00    -0.010 C 
HETATM   20  C18 UNL     1      26.651   7.965  47.727  1.00  0.00     0.111 C 
HETATM   21  C19 UNL     1      27.746   8.692  47.048  1.00  0.00     0.163 C 
HETATM   22  O2  UNL     1      27.314   9.349  46.043  1.00  0.00    -0.292 OA
HETATM   23  C20 UNL     1      29.184   8.857  47.223  1.00  0.00     0.042 C 
HETATM   24  C21 UNL     1      29.714  10.111  46.614  1.00  0.00     0.057 C 
HETATM   25  C22 UNL     1      30.076   8.082  47.823  1.00  0.00     0.190 C 
HETATM   26  O4  UNL     1      29.992   6.848  48.497  1.00  0.00    -0.326 OA
HETATM   27  C24 UNL     1      29.335   5.626  48.237  1.00  0.00     0.216 C 
BRANCH  25  28
HETATM   28  O3  UNL     1      31.311   8.749  47.681  1.00  0.00    -0.335 OA
HETATM   29  C23 UNL     1      32.456   8.041  48.107  1.00  0.00     0.212 C 
ENDBRANCH  25  28
ENDBRANCH  17  18
ENDBRANCH   1  16
TORSDOF 10
ENDMDL
MODEL 6
REMARK VINA RESULT:      -7.0      3.048      7.230
REMARK  10 active torsions:
REMARK  status: ('A' for Active; 'I' for Inactive)
REMARK    1  A    between atoms: C3_3  and  C5_5 
REMARK    2  A    between atoms: C5_5  and  O1_6 
REMARK    3  A    between atoms: C5_5  and  C6_7 
REMARK    4  A    between atoms: C6_7  and  C8_9 
REMARK    5  A    between atoms: C8_9  and  C9_10 
REMARK    6  A    between atoms: C10_11  and  C11_12 
REMARK    7  A    between atoms: C11_12  and  C12_13 
REMARK    8  A    between atoms: C12_13  and  C14_15 
REMARK    9  A    between atoms: C15_16  and  C16_17 
REMARK   10  A    between atoms: C22_24  and  O3_25 
ROOT
HETATM    1  C12 UNL     1      26.856   1.562  51.871  1.00  0.00     0.007 C 
HETATM    2  C13 UNL     1      27.445   1.885  53.247  1.00  0.00     0.014 C 
ENDROOT
BRANCH   1   3
HETATM    3  C11 UNL     1      25.699   0.648  52.110  1.00  0.00     0.035 C 
BRANCH   3   4
HETATM    4  C10 UNL     1      25.553   0.165  53.487  1.00  0.00    -0.030 C 
HETATM    5  C9  UNL     1      24.526  -0.450  54.008  1.00  0.00    -0.030 C 
BRANCH   5   6
HETATM    6  C8  UNL     1      23.256  -0.824  53.377  1.00  0.00     0.034 C 
BRANCH   6   7
HETATM    7  C6  UNL     1      22.174   0.203  53.676  1.00  0.00     0.018 C 
HETATM    8  C7  UNL     1      21.106  -0.540  54.447  1.00  0.00     0.013 C 
BRANCH   7   9
HETATM    9  C5  UNL     1      21.598   0.726  52.394  1.00  0.00     0.150 C 
BRANCH   9  10
HETATM   10  C3  UNL     1      22.331   1.861  51.801  1.00  0.00    -0.059 C 
HETATM   11  C2  UNL     1      22.720   2.871  52.610  1.00  0.00    -0.026 C 
HETATM   12  C1  UNL     1      23.443   4.130  52.382  1.00  0.00     0.036 C 
HETATM   13  C4  UNL     1      22.766   2.180  50.438  1.00  0.00     0.046 C 
ENDBRANCH   9  10
BRANCH   9  14
HETATM   14  O1  UNL     1      20.256   1.104  52.592  1.00  0.00    -0.391 OA
HETATM   15  H9  UNL     1      19.858   0.406  53.169  1.00  0.00     0.210 HD
ENDBRANCH   9  14
ENDBRANCH   7   9
ENDBRANCH   6   7
ENDBRANCH   5   6
ENDBRANCH   3   4
ENDBRANCH   1   3
BRANCH   1  16
HETATM   16  C14 UNL     1      26.468   2.818  51.184  1.00  0.00    -0.022 C 
HETATM   17  C15 UNL     1      26.805   3.198  49.965  1.00  0.00     0.005 C 
BRANCH  17  18
HETATM   18  C16 UNL     1      26.456   4.416  49.236  1.00  0.00    -0.038 C 
HETATM   19  C17 UNL     1      25.180   4.723  49.295  1.00  0.00    -0.010 C 
HETATM   20  C18 UNL     1      24.064   5.600  48.947  1.00  0.00     0.111 C 
HETATM   21  C19 UNL     1      24.359   6.626  47.924  1.00  0.00     0.163 C 
HETATM   22  O2  UNL     1      23.386   6.764  47.111  1.00  0.00    -0.292 OA
HETATM   23  C20 UNL     1      25.465   7.519  47.599  1.00  0.00     0.042 C 
HETATM   24  C21 UNL     1      25.047   8.720  46.821  1.00  0.00     0.057 C 
HETATM   25  C22 UNL     1      26.758   7.431  47.877  1.00  0.00     0.190 C 
HETATM   26  O4  UNL     1      27.539   6.481  48.566  1.00  0.00    -0.326 OA
HETATM   27  C24 UNL     1      27.601   5.071  48.568  1.00  0.00     0.216 C 
BRANCH  25  28
HETATM   28  O3  UNL     1      27.346   8.582  47.313  1.00  0.00    -0.335 OA
HETATM   29  C23 UNL     1      28.757   8.602  47.261  1.00  0.00     0.212 C 
ENDBRANCH  25  28
ENDBRANCH  17  18
ENDBRANCH   1  16
TORSDOF 10
ENDMDL
MODEL 7
REMARK VINA RESULT:      -7.0      2.215      4.202
REMARK  10 active torsions:
REMARK  status: ('A' for Active; 'I' for Inactive)
REMARK    1  A    between atoms: C3_3  and  C5_5 
REMARK    2  A    between atoms: C5_5  and  O1_6 
REMARK    3  A    between atoms: C5_5  and  C6_7 
REMARK    4  A    between atoms: C6_7  and  C8_9 
REMARK    5  A    between atoms: C8_9  and  C9_10 
REMARK    6  A    between atoms: C10_11  and  C11_12 
REMARK    7  A    between atoms: C11_12  and  C12_13 
REMARK    8  A    between atoms: C12_13  and  C14_15 
REMARK    9  A    between atoms: C15_16  and  C16_17 
REMARK   10  A    between atoms: C22_24  and  O3_25 
ROOT
HETATM    1  C12 UNL     1      22.360   4.160  47.607  1.00  0.00     0.007 C 
HETATM    2  C13 UNL     1      21.840   3.240  46.500  1.00  0.00     0.014 C 
ENDROOT
BRANCH   1   3
HETATM    3  C11 UNL     1      21.180   4.925  48.111  1.00  0.00     0.035 C 
BRANCH   3   4
HETATM    4  C10 UNL     1      21.391   6.366  48.280  1.00  0.00    -0.030 C 
HETATM    5  C9  UNL     1      21.588   7.014  49.396  1.00  0.00    -0.030 C 
BRANCH   5   6
HETATM    6  C8  UNL     1      21.651   6.496  50.766  1.00  0.00     0.034 C 
BRANCH   6   7
HETATM    7  C6  UNL     1      22.992   5.829  51.037  1.00  0.00     0.018 C 
HETATM    8  C7  UNL     1      22.801   5.025  52.302  1.00  0.00     0.013 C 
BRANCH   7   9
HETATM    9  C5  UNL     1      24.046   6.872  51.258  1.00  0.00     0.150 C 
BRANCH   9  10
HETATM   10  C3  UNL     1      25.221   6.765  50.373  1.00  0.00    -0.059 C 
HETATM   11  C2  UNL     1      25.518   5.561  49.836  1.00  0.00    -0.026 C 
HETATM   12  C1  UNL     1      26.580   5.084  48.940  1.00  0.00     0.036 C 
HETATM   13  C4  UNL     1      26.224   7.727  49.905  1.00  0.00     0.046 C 
ENDBRANCH   9  10
BRANCH   9  14
HETATM   14  O1  UNL     1      24.480   6.838  52.597  1.00  0.00    -0.391 OA
HETATM   15  H9  UNL     1      24.279   7.731  52.971  1.00  0.00     0.210 HD
ENDBRANCH   9  14
ENDBRANCH   7   9
ENDBRANCH   6   7
ENDBRANCH   5   6
ENDBRANCH   3   4
ENDBRANCH   1   3
BRANCH   1  16
HETATM   16  C14 UNL     1      23.017   3.351  48.664  1.00  0.00    -0.022 C 
HETATM   17  C15 UNL     1      22.427   2.600  49.576  1.00  0.00     0.005 C 
BRANCH  17  18
HETATM   18  C16 UNL     1      23.015   1.785  50.637  1.00  0.00    -0.038 C 
HETATM   19  C17 UNL     1      24.269   2.078  50.899  1.00  0.00    -0.010 C 
HETATM   20  C18 UNL     1      25.497   1.855  51.659  1.00  0.00     0.111 C 
HETATM   21  C19 UNL     1      25.506   0.643  52.506  1.00  0.00     0.163 C 
HETATM   22  O2  UNL     1      26.639   0.057  52.465  1.00  0.00    -0.292 OA
HETATM   23  C20 UNL     1      24.567  -0.058  53.373  1.00  0.00     0.042 C 
HETATM   24  C21 UNL     1      25.233  -0.902  54.406  1.00  0.00     0.057 C 
HETATM   25  C22 UNL     1      23.242  -0.066  53.385  1.00  0.00     0.190 C 
HETATM   26  O4  UNL     1      22.261   0.571  52.598  1.00  0.00    -0.326 OA
HETATM   27  C24 UNL     1      22.094   0.782  51.213  1.00  0.00     0.216 C 
BRANCH  25  28
HETATM   28  O3  UNL     1      22.878  -0.923  54.445  1.00  0.00    -0.335 OA
HETATM   29  C23 UNL     1      21.500  -0.997  54.743  1.00  0.00     0.212 C 
ENDBRANCH  25  28
ENDBRANCH  17  18
ENDBRANCH   1  16
TORSDOF 10
ENDMDL
MODEL 8
REMARK VINA RESULT:      -6.9      2.461      4.960
REMARK  10 active torsions:
REMARK  status: ('A' for Active; 'I' for Inactive)
REMARK    1  A    between atoms: C3_3  and  C5_5 
REMARK    2  A    between atoms: C5_5  and  O1_6 
REMARK    3  A    between atoms: C5_5  and  C6_7 
REMARK    4  A    between atoms: C6_7  and  C8_9 
REMARK    5  A    between atoms: C8_9  and  C9_10 
REMARK    6  A    between atoms: C10_11  and  C11_12 
REMARK    7  A    between atoms: C11_12  and  C12_13 
REMARK    8  A    between atoms: C12_13  and  C14_15 
REMARK    9  A    between atoms: C15_16  and  C16_17 
REMARK   10  A    between atoms: C22_24  and  O3_25 
ROOT
HETATM    1  C12 UNL     1      22.416   4.150  47.679  1.00  0.00     0.007 C 
HETATM    2  C13 UNL     1      21.912   3.335  46.485  1.00  0.00     0.014 C 
ENDROOT
BRANCH   1   3
HETATM    3  C11 UNL     1      21.675   5.447  47.649  1.00  0.00     0.035 C 
BRANCH   3   4
HETATM    4  C10 UNL     1      22.483   6.623  47.309  1.00  0.00    -0.030 C 
HETATM    5  C9  UNL     1      23.074   7.445  48.133  1.00  0.00    -0.030 C 
BRANCH   5   6
HETATM    6  C8  UNL     1      23.097   7.425  49.599  1.00  0.00     0.034 C 
BRANCH   6   7
HETATM    7  C6  UNL     1      24.086   6.391  50.117  1.00  0.00     0.018 C 
HETATM    8  C7  UNL     1      23.931   6.391  51.620  1.00  0.00     0.013 C 
BRANCH   7   9
HETATM    9  C5  UNL     1      25.484   6.795  49.755  1.00  0.00     0.150 C 
BRANCH   9  10
HETATM   10  C3  UNL     1      26.348   5.694  49.287  1.00  0.00    -0.059 C 
HETATM   11  C2  UNL     1      26.057   4.434  49.679  1.00  0.00    -0.026 C 
HETATM   12  C1  UNL     1      26.675   3.126  49.424  1.00  0.00     0.036 C 
HETATM   13  C4  UNL     1      27.541   5.639  48.435  1.00  0.00     0.046 C 
ENDBRANCH   9  10
BRANCH   9  14
HETATM   14  O1  UNL     1      26.101   7.421  50.855  1.00  0.00    -0.391 OA
HETATM   15  H9  UNL     1      26.708   8.102  50.476  1.00  0.00     0.210 HD
ENDBRANCH   9  14
ENDBRANCH   7   9
ENDBRANCH   6   7
ENDBRANCH   5   6
ENDBRANCH   3   4
ENDBRANCH   1   3
BRANCH   1  16
HETATM   16  C14 UNL     1      22.195   3.389  48.934  1.00  0.00    -0.022 C 
HETATM   17  C15 UNL     1      23.006   2.502  49.482  1.00  0.00     0.005 C 
BRANCH  17  18
HETATM   18  C16 UNL     1      22.847   1.724  50.709  1.00  0.00    -0.038 C 
HETATM   19  C17 UNL     1      21.685   1.117  50.806  1.00  0.00    -0.010 C 
HETATM   20  C18 UNL     1      20.754   0.257  51.534  1.00  0.00     0.111 C 
HETATM   21  C19 UNL     1      21.141  -0.059  52.926  1.00  0.00     0.163 C 
HETATM   22  O2  UNL     1      20.130  -0.039  53.704  1.00  0.00    -0.292 OA
HETATM   23  C20 UNL     1      22.367  -0.386  53.644  1.00  0.00     0.042 C 
HETATM   24  C21 UNL     1      22.130  -1.143  54.906  1.00  0.00     0.057 C 
HETATM   25  C22 UNL     1      23.634  -0.117  53.358  1.00  0.00     0.190 C 
HETATM   26  O4  UNL     1      24.266   0.560  52.297  1.00  0.00    -0.326 OA
HETATM   27  C24 UNL     1      24.017   1.769  51.612  1.00  0.00     0.216 C 
BRANCH  25  28
HETATM   28  O3  UNL     1      24.386  -0.681  54.410  1.00  0.00    -0.335 OA
HETATM   29  C23 UNL     1      25.757  -0.348  54.445  1.00  0.00     0.212 C 
ENDBRANCH  25  28
ENDBRANCH  17  18
ENDBRANCH   1  16
TORSDOF 10
ENDMDL
MODEL 9
REMARK VINA RESULT:      -6.9      3.086      7.065
REMARK  10 active torsions:
REMARK  status: ('A' for Active; 'I' for Inactive)
REMARK    1  A    between atoms: C3_3  and  C5_5 
REMARK    2  A    between atoms: C5_5  and  O1_6 
REMARK    3  A    between atoms: C5_5  and  C6_7 
REMARK    4  A    between atoms: C6_7  and  C8_9 
REMARK    5  A    between atoms: C8_9  and  C9_10 
REMARK    6  A    between atoms: C10_11  and  C11_12 
REMARK    7  A    between atoms: C11_12  and  C12_13 
REMARK    8  A    between atoms: C12_13  and  C14_15 
REMARK    9  A    between atoms: C15_16  and  C16_17 
REMARK   10  A    between atoms: C22_24  and  O3_25 
ROOT
HETATM    1  C12 UNL     1      22.881   3.460  49.711  1.00  0.00     0.007 C 
HETATM    2  C13 UNL     1      22.423   2.499  48.611  1.00  0.00     0.014 C 
ENDROOT
BRANCH   1   3
HETATM    3  C11 UNL     1      22.945   2.661  50.972  1.00  0.00     0.035 C 
BRANCH   3   4
HETATM    4  C10 UNL     1      22.323   1.335  50.907  1.00  0.00    -0.030 C 
HETATM    5  C9  UNL     1      22.181   0.476  51.880  1.00  0.00    -0.030 C 
BRANCH   5   6
HETATM    6  C8  UNL     1      22.597   0.591  53.281  1.00  0.00     0.034 C 
BRANCH   6   7
HETATM    7  C6  UNL     1      23.473  -0.583  53.691  1.00  0.00     0.018 C 
HETATM    8  C7  UNL     1      22.805  -1.188  54.905  1.00  0.00     0.013 C 
BRANCH   7   9
HETATM    9  C5  UNL     1      24.842  -0.096  54.060  1.00  0.00     0.150 C 
BRANCH   9  10
HETATM   10  C3  UNL     1      25.752   0.123  52.919  1.00  0.00    -0.059 C 
HETATM   11  C2  UNL     1      25.871   1.373  52.419  1.00  0.00    -0.026 C 
HETATM   12  C1  UNL     1      26.653   1.953  51.318  1.00  0.00     0.036 C 
HETATM   13  C4  UNL     1      26.620  -0.762  52.136  1.00  0.00     0.046 C 
ENDBRANCH   9  10
BRANCH   9  14
HETATM   14  O1  UNL     1      25.445  -0.997  54.957  1.00  0.00    -0.391 OA
HETATM   15  H9  UNL     1      26.175  -0.496  55.398  1.00  0.00     0.210 HD
ENDBRANCH   9  14
ENDBRANCH   7   9
ENDBRANCH   6   7
ENDBRANCH   5   6
ENDBRANCH   3   4
ENDBRANCH   1   3
BRANCH   1  16
HETATM   16  C14 UNL     1      24.186   4.062  49.342  1.00  0.00    -0.022 C 
HETATM   17  C15 UNL     1      24.675   5.220  49.748  1.00  0.00     0.005 C 
BRANCH  17  18
HETATM   18  C16 UNL     1      25.946   5.863  49.422  1.00  0.00    -0.038 C 
HETATM   19  C17 UNL     1      26.838   5.045  48.909  1.00  0.00    -0.010 C 
HETATM   20  C18 UNL     1      28.170   4.795  48.360  1.00  0.00     0.111 C 
HETATM   21  C19 UNL     1      29.136   5.905  48.511  1.00  0.00     0.163 C 
HETATM   22  O2  UNL     1      30.297   5.471  48.810  1.00  0.00    -0.292 OA
HETATM   23  C20 UNL     1      29.112   7.359  48.408  1.00  0.00     0.042 C 
HETATM   24  C21 UNL     1      30.448   7.953  48.114  1.00  0.00     0.057 C 
HETATM   25  C22 UNL     1      28.112   8.219  48.536  1.00  0.00     0.190 C 
HETATM   26  O4  UNL     1      26.737   8.074  48.811  1.00  0.00    -0.326 OA
HETATM   27  C24 UNL     1      25.992   7.308  49.732  1.00  0.00     0.216 C 
BRANCH  25  28
HETATM   28  O3  UNL     1      28.681   9.494  48.332  1.00  0.00    -0.335 OA
HETATM   29  C23 UNL     1      27.929  10.394  47.547  1.00  0.00     0.212 C 
ENDBRANCH  25  28
ENDBRANCH  17  18
ENDBRANCH   1  16
TORSDOF 10
ENDMDL
