MODEL 1
REMARK VINA RESULT:      -8.7      0.000      0.000
REMARK  5 active torsions:
REMARK  status: ('A' for Active; 'I' for Inactive)
REMARK    1  A    between atoms: C5_7  and  O1_8 
REMARK    2  A    between atoms: O1_8  and  C6_9 
REMARK    3  A    between atoms: C6_9  and  C7_10 
REMARK    4  A    between atoms: C7_10  and  O2_11 
REMARK    5  A    between atoms: C11_16  and  C12_17 
ROOT
HETATM    1  C1  UNL     1      23.045   5.121  48.393  1.00  0.00     0.085 C 
HETATM    2  P1  UNL     1      23.610   4.801  50.078  1.00  0.00     0.063 P 
HETATM    3  N1  UNL     1      22.404   4.935  51.109  1.00  0.00    -0.260 NA
HETATM    4  C2  UNL     1      21.615   3.813  51.481  1.00  0.00     0.113 C 
HETATM    5  C3  UNL     1      21.110   2.626  51.752  1.00  0.00    -0.001 C 
HETATM    6  C4  UNL     1      21.553   1.239  51.682  1.00  0.00     0.092 C 
HETATM    7  C5  UNL     1      21.505   0.490  52.962  1.00  0.00     0.046 C 
HETATM    8  C8  UNL     1      22.211  -0.204  53.840  1.00  0.00     0.007 C 
HETATM    9  C9  UNL     1      23.509  -0.760  54.245  1.00  0.00     0.049 C 
HETATM   10  C10 UNL     1      24.666  -0.432  53.354  1.00  0.00     0.125 C 
HETATM   11  N2  UNL     1      24.949   0.988  53.320  1.00  0.00    -0.374 N 
HETATM   12  C11 UNL     1      26.068   1.352  52.486  1.00  0.00     0.138 C 
HETATM   13  N3  UNL     1      26.298   2.106  51.436  1.00  0.00    -0.224 NA
HETATM   14  C18 UNL     1      25.264   2.842  50.822  1.00  0.00     0.235 C 
HETATM   15  N4  UNL     1      24.254   3.166  50.100  1.00  0.00    -0.241 NA
HETATM   16  H4  UNL     1      24.605   5.741  50.390  1.00  0.00     0.100 HD
HETATM   17  H19 UNL     1      24.855   1.998  53.531  1.00  0.00     0.161 HD
ENDROOT
BRANCH  12  18
HETATM   18  C12 UNL     1      27.273   0.703  52.959  1.00  0.00     0.048 A 
HETATM   19  C13 UNL     1      27.557  -0.655  52.774  1.00  0.00     0.018 A 
HETATM   20  C14 UNL     1      28.691  -1.289  53.214  1.00  0.00     0.001 A 
HETATM   21  C15 UNL     1      29.642  -0.555  53.889  1.00  0.00     0.003 A 
HETATM   22  C16 UNL     1      29.400   0.783  54.090  1.00  0.00     0.043 A 
HETATM   23  C17 UNL     1      28.260   1.363  53.636  1.00  0.00     0.130 A 
HETATM   24  F1  UNL     1      28.108   2.687  53.879  1.00  0.00    -0.205 F 
ENDBRANCH  12  18
BRANCH   7  25
HETATM   25  O1  UNL     1      20.127   0.667  53.226  1.00  0.00    -0.353 OA
BRANCH  25  26
HETATM   26  C6  UNL     1      19.146  -0.155  52.664  1.00  0.00     0.201 C 
BRANCH  26  27
HETATM   27  C7  UNL     1      18.760  -1.338  53.518  1.00  0.00     0.190 C 
BRANCH  27  28
HETATM   28  O2  UNL     1      17.432  -1.189  53.917  1.00  0.00    -0.399 OA
HETATM   29  H13 UNL     1      16.787  -1.321  53.191  1.00  0.00     0.209 HD
ENDBRANCH  27  28
ENDBRANCH  26  27
ENDBRANCH  25  26
ENDBRANCH   7  25
TORSDOF 5
ENDMDL
MODEL 2
REMARK VINA RESULT:      -8.3      3.486      7.044
REMARK  5 active torsions:
REMARK  status: ('A' for Active; 'I' for Inactive)
REMARK    1  A    between atoms: C5_7  and  O1_8 
REMARK    2  A    between atoms: O1_8  and  C6_9 
REMARK    3  A    between atoms: C6_9  and  C7_10 
REMARK    4  A    between atoms: C7_10  and  O2_11 
REMARK    5  A    between atoms: C11_16  and  C12_17 
ROOT
HETATM    1  C1  UNL     1      20.274  -1.649  53.821  1.00  0.00     0.085 C 
HETATM    2  P1  UNL     1      21.220  -0.155  54.187  1.00  0.00     0.063 P 
HETATM    3  N1  UNL     1      22.345  -0.455  55.272  1.00  0.00    -0.260 NA
HETATM    4  C2  UNL     1      23.662  -0.835  54.895  1.00  0.00     0.113 C 
HETATM    5  C3  UNL     1      24.820  -1.056  54.305  1.00  0.00    -0.001 C 
HETATM    6  C4  UNL     1      25.437  -0.746  53.021  1.00  0.00     0.092 C 
HETATM    7  C5  UNL     1      26.707   0.018  53.092  1.00  0.00     0.046 C 
HETATM    8  C8  UNL     1      27.333   1.121  52.714  1.00  0.00     0.007 C 
HETATM    9  C9  UNL     1      27.297   2.391  51.976  1.00  0.00     0.049 C 
HETATM   10  C10 UNL     1      25.989   2.738  51.337  1.00  0.00     0.125 C 
HETATM   11  N2  UNL     1      24.935   2.931  52.312  1.00  0.00    -0.374 N 
HETATM   12  C11 UNL     1      23.657   3.284  51.744  1.00  0.00     0.138 C 
HETATM   13  N3  UNL     1      22.435   2.806  51.719  1.00  0.00    -0.224 NA
HETATM   14  C18 UNL     1      22.101   1.611  52.390  1.00  0.00     0.235 C 
HETATM   15  N4  UNL     1      21.952   0.370  52.678  1.00  0.00    -0.241 NA
HETATM   16  H4  UNL     1      20.333   0.813  54.682  1.00  0.00     0.100 HD
HETATM   17  H19 UNL     1      24.472   2.985  53.237  1.00  0.00     0.161 HD
ENDROOT
BRANCH  12  18
HETATM   18  C12 UNL     1      23.767   4.524  51.003  1.00  0.00     0.048 A 
HETATM   19  C13 UNL     1      23.827   5.790  51.596  1.00  0.00     0.018 A 
HETATM   20  C14 UNL     1      23.931   6.975  50.913  1.00  0.00     0.001 A 
HETATM   21  C15 UNL     1      23.985   6.945  49.537  1.00  0.00     0.003 A 
HETATM   22  C16 UNL     1      23.929   5.720  48.917  1.00  0.00     0.043 A 
HETATM   23  C17 UNL     1      23.825   4.575  49.638  1.00  0.00     0.130 A 
HETATM   24  F1  UNL     1      23.777   3.414  48.941  1.00  0.00    -0.205 F 
ENDBRANCH  12  18
BRANCH   7  25
HETATM   25  O1  UNL     1      27.425  -0.896  53.899  1.00  0.00    -0.353 OA
BRANCH  25  26
HETATM   26  C6  UNL     1      28.816  -1.021  53.831  1.00  0.00     0.201 C 
BRANCH  26  27
HETATM   27  C7  UNL     1      29.295  -2.213  53.040  1.00  0.00     0.190 C 
BRANCH  27  28
HETATM   28  O2  UNL     1      28.623  -3.349  53.488  1.00  0.00    -0.399 OA
HETATM   29  H13 UNL     1      28.585  -4.071  52.825  1.00  0.00     0.209 HD
ENDBRANCH  27  28
ENDBRANCH  26  27
ENDBRANCH  25  26
ENDBRANCH   7  25
TORSDOF 5
ENDMDL
MODEL 3
REMARK VINA RESULT:      -7.9      3.323      6.860
REMARK  5 active torsions:
REMARK  status: ('A' for Active; 'I' for Inactive)
REMARK    1  A    between atoms: C5_7  and  O1_8 
REMARK    2  A    between atoms: O1_8  and  C6_9 
REMARK    3  A    between atoms: C6_9  and  C7_10 
REMARK    4  A    between atoms: C7_10  and  O2_11 
REMARK    5  A    between atoms: C11_16  and  C12_17 
ROOT
HETATM    1  C1  UNL     1      19.696  -1.243  53.537  1.00  0.00     0.085 C 
HETATM    2  P1  UNL     1      20.751   0.182  53.885  1.00  0.00     0.063 P 
HETATM    3  N1  UNL     1      21.851  -0.188  54.974  1.00  0.00    -0.260 NA
HETATM    4  C2  UNL     1      23.137  -0.668  54.601  1.00  0.00     0.113 C 
HETATM    5  C3  UNL     1      24.274  -0.980  54.014  1.00  0.00    -0.001 C 
HETATM    6  C4  UNL     1      24.911  -0.732  52.727  1.00  0.00     0.092 C 
HETATM    7  C5  UNL     1      26.235  -0.063  52.789  1.00  0.00     0.046 C 
HETATM    8  C8  UNL     1      26.939   0.986  52.398  1.00  0.00     0.007 C 
HETATM    9  C9  UNL     1      26.997   2.246  51.645  1.00  0.00     0.049 C 
HETATM   10  C10 UNL     1      25.717   2.681  51.002  1.00  0.00     0.125 C 
HETATM   11  N2  UNL     1      24.681   2.964  51.974  1.00  0.00    -0.374 N 
HETATM   12  C11 UNL     1      23.432   3.403  51.402  1.00  0.00     0.138 C 
HETATM   13  N3  UNL     1      22.178   3.015  51.383  1.00  0.00    -0.224 NA
HETATM   14  C18 UNL     1      21.758   1.857  52.067  1.00  0.00     0.235 C 
HETATM   15  N4  UNL     1      21.518   0.633  52.370  1.00  0.00    -0.241 NA
HETATM   16  H4  UNL     1      19.937   1.219  54.369  1.00  0.00     0.100 HD
HETATM   17  H19 UNL     1      24.224   3.062  52.898  1.00  0.00     0.161 HD
ENDROOT
BRANCH  12  18
HETATM   18  C12 UNL     1      23.633   4.623  50.646  1.00  0.00     0.048 A 
HETATM   19  C13 UNL     1      23.597   4.696  49.250  1.00  0.00     0.018 A 
HETATM   20  C14 UNL     1      23.784   5.840  48.517  1.00  0.00     0.001 A 
HETATM   21  C15 UNL     1      24.024   7.022  49.182  1.00  0.00     0.003 A 
HETATM   22  C16 UNL     1      24.067   6.992  50.554  1.00  0.00     0.043 A 
HETATM   23  C17 UNL     1      23.876   5.833  51.235  1.00  0.00     0.130 A 
HETATM   24  F1  UNL     1      23.934   5.899  52.587  1.00  0.00    -0.205 F 
ENDBRANCH  12  18
BRANCH   7  25
HETATM   25  O1  UNL     1      26.884  -1.017  53.607  1.00  0.00    -0.353 OA
BRANCH  25  26
HETATM   26  C6  UNL     1      28.268  -1.017  53.801  1.00  0.00     0.201 C 
BRANCH  26  27
HETATM   27  C7  UNL     1      29.005  -2.086  53.031  1.00  0.00     0.190 C 
BRANCH  27  28
HETATM   28  O2  UNL     1      28.549  -3.335  53.449  1.00  0.00    -0.399 OA
HETATM   29  H13 UNL     1      29.118  -3.754  54.130  1.00  0.00     0.209 HD
ENDBRANCH  27  28
ENDBRANCH  26  27
ENDBRANCH  25  26
ENDBRANCH   7  25
TORSDOF 5
ENDMDL
MODEL 4
REMARK VINA RESULT:      -7.9      3.143      5.110
REMARK  5 active torsions:
REMARK  status: ('A' for Active; 'I' for Inactive)
REMARK    1  A    between atoms: C5_7  and  O1_8 
REMARK    2  A    between atoms: O1_8  and  C6_9 
REMARK    3  A    between atoms: C6_9  and  C7_10 
REMARK    4  A    between atoms: C7_10  and  O2_11 
REMARK    5  A    between atoms: C11_16  and  C12_17 
ROOT
HETATM    1  C1  UNL     1      19.666   0.191  53.774  1.00  0.00     0.085 C 
HETATM    2  P1  UNL     1      21.068  -0.295  52.743  1.00  0.00     0.063 P 
HETATM    3  N1  UNL     1      20.817   0.117  51.226  1.00  0.00    -0.260 NA
HETATM    4  C2  UNL     1      21.257   1.367  50.710  1.00  0.00     0.113 C 
HETATM    5  C3  UNL     1      21.849   2.513  50.443  1.00  0.00    -0.001 C 
HETATM    6  C4  UNL     1      22.942   3.302  50.998  1.00  0.00     0.092 C 
HETATM    7  C5  UNL     1      24.048   3.609  50.057  1.00  0.00     0.046 C 
HETATM    8  C8  UNL     1      25.348   3.500  49.838  1.00  0.00     0.007 C 
HETATM    9  C9  UNL     1      26.661   3.028  50.299  1.00  0.00     0.049 C 
HETATM   10  C10 UNL     1      26.665   2.267  51.587  1.00  0.00     0.125 C 
HETATM   11  N2  UNL     1      25.920   1.029  51.497  1.00  0.00    -0.374 N 
HETATM   12  C11 UNL     1      25.909   0.251  52.712  1.00  0.00     0.138 C 
HETATM   13  N3  UNL     1      25.025  -0.224  53.559  1.00  0.00    -0.224 NA
HETATM   14  C18 UNL     1      23.644  -0.004  53.378  1.00  0.00     0.235 C 
HETATM   15  N4  UNL     1      22.481   0.537  53.376  1.00  0.00    -0.241 NA
HETATM   16  H4  UNL     1      21.216  -1.687  52.836  1.00  0.00     0.100 HD
HETATM   17  H19 UNL     1      25.340   0.278  51.082  1.00  0.00     0.161 HD
ENDROOT
BRANCH  12  18
HETATM   18  C12 UNL     1      27.262  -0.108  53.085  1.00  0.00     0.048 A 
HETATM   19  C13 UNL     1      28.154   0.755  53.729  1.00  0.00     0.018 A 
HETATM   20  C14 UNL     1      29.438   0.435  54.090  1.00  0.00     0.001 A 
HETATM   21  C15 UNL     1      29.909  -0.830  53.811  1.00  0.00     0.003 A 
HETATM   22  C16 UNL     1      29.063  -1.708  53.179  1.00  0.00     0.043 A 
HETATM   23  C17 UNL     1      27.800  -1.341  52.841  1.00  0.00     0.130 A 
HETATM   24  F1  UNL     1      27.037  -2.274  52.221  1.00  0.00    -0.205 F 
ENDBRANCH  12  18
BRANCH   7  25
HETATM   25  O1  UNL     1      23.273   4.266  49.073  1.00  0.00    -0.353 OA
BRANCH  25  26
HETATM   26  C6  UNL     1      23.641   5.502  48.533  1.00  0.00     0.201 C 
BRANCH  26  27
HETATM   27  C7  UNL     1      23.255   6.691  49.380  1.00  0.00     0.190 C 
BRANCH  27  28
HETATM   28  O2  UNL     1      21.949   6.512  49.835  1.00  0.00    -0.399 OA
HETATM   29  H13 UNL     1      21.893   6.274  50.785  1.00  0.00     0.209 HD
ENDBRANCH  27  28
ENDBRANCH  26  27
ENDBRANCH  25  26
ENDBRANCH   7  25
TORSDOF 5
ENDMDL
MODEL 5
REMARK VINA RESULT:      -7.9      3.339      5.344
REMARK  5 active torsions:
REMARK  status: ('A' for Active; 'I' for Inactive)
REMARK    1  A    between atoms: C5_7  and  O1_8 
REMARK    2  A    between atoms: O1_8  and  C6_9 
REMARK    3  A    between atoms: C6_9  and  C7_10 
REMARK    4  A    between atoms: C7_10  and  O2_11 
REMARK    5  A    between atoms: C11_16  and  C12_17 
ROOT
HETATM    1  C1  UNL     1      19.088   3.715  49.065  1.00  0.00     0.085 C 
HETATM    2  P1  UNL     1      20.446   4.490  49.970  1.00  0.00     0.063 P 
HETATM    3  N1  UNL     1      20.404   4.074  51.506  1.00  0.00    -0.260 NA
HETATM    4  C2  UNL     1      21.122   2.947  51.992  1.00  0.00     0.113 C 
HETATM    5  C3  UNL     1      21.948   1.946  52.218  1.00  0.00    -0.001 C 
HETATM    6  C4  UNL     1      23.126   1.372  51.579  1.00  0.00     0.092 C 
HETATM    7  C5  UNL     1      24.343   1.310  52.425  1.00  0.00     0.046 C 
HETATM    8  C8  UNL     1      25.610   1.676  52.533  1.00  0.00     0.007 C 
HETATM    9  C9  UNL     1      26.762   2.384  51.960  1.00  0.00     0.049 C 
HETATM   10  C10 UNL     1      26.512   3.100  50.669  1.00  0.00     0.125 C 
HETATM   11  N2  UNL     1      25.548   4.170  50.812  1.00  0.00    -0.374 N 
HETATM   12  C11 UNL     1      25.285   4.901  49.596  1.00  0.00     0.138 C 
HETATM   13  N3  UNL     1      24.260   5.173  48.823  1.00  0.00    -0.224 NA
HETATM   14  C18 UNL     1      22.969   4.692  49.122  1.00  0.00     0.235 C 
HETATM   15  N4  UNL     1      21.938   3.935  49.227  1.00  0.00    -0.241 NA
HETATM   16  H4  UNL     1      20.309   5.882  49.853  1.00  0.00     0.100 HD
HETATM   17  H19 UNL     1      24.867   4.803  51.269  1.00  0.00     0.161 HD
ENDROOT
BRANCH  12  18
HETATM   18  C12 UNL     1      26.506   5.508  49.108  1.00  0.00     0.048 A 
HETATM   19  C13 UNL     1      27.606   4.787  48.629  1.00  0.00     0.018 A 
HETATM   20  C14 UNL     1      28.770   5.343  48.163  1.00  0.00     0.001 A 
HETATM   21  C15 UNL     1      28.891   6.715  48.151  1.00  0.00     0.003 A 
HETATM   22  C16 UNL     1      27.833   7.459  48.612  1.00  0.00     0.043 A 
HETATM   23  C17 UNL     1      26.702   6.861  49.065  1.00  0.00     0.130 A 
HETATM   24  F1  UNL     1      25.710   7.675  49.500  1.00  0.00    -0.205 F 
ENDBRANCH  12  18
BRANCH   7  25
HETATM   25  O1  UNL     1      23.795   0.538  53.477  1.00  0.00    -0.353 OA
BRANCH  25  26
HETATM   26  C6  UNL     1      24.358  -0.674  53.886  1.00  0.00     0.201 C 
BRANCH  26  27
HETATM   27  C7  UNL     1      23.818  -1.201  55.194  1.00  0.00     0.190 C 
BRANCH  27  28
HETATM   28  O2  UNL     1      24.890  -1.537  56.019  1.00  0.00    -0.399 OA
HETATM   29  H13 UNL     1      24.863  -1.098  56.896  1.00  0.00     0.209 HD
ENDBRANCH  27  28
ENDBRANCH  26  27
ENDBRANCH  25  26
ENDBRANCH   7  25
TORSDOF 5
ENDMDL
MODEL 6
REMARK VINA RESULT:      -7.8      2.023      2.348
REMARK  5 active torsions:
REMARK  status: ('A' for Active; 'I' for Inactive)
REMARK    1  A    between atoms: C5_7  and  O1_8 
REMARK    2  A    between atoms: O1_8  and  C6_9 
REMARK    3  A    between atoms: C6_9  and  C7_10 
REMARK    4  A    between atoms: C7_10  and  O2_11 
REMARK    5  A    between atoms: C11_16  and  C12_17 
ROOT
HETATM    1  C1  UNL     1      25.295   6.822  47.881  1.00  0.00     0.085 C 
HETATM    2  P1  UNL     1      25.424   6.260  49.593  1.00  0.00     0.063 P 
HETATM    3  N1  UNL     1      24.138   6.695  50.423  1.00  0.00    -0.260 NA
HETATM    4  C2  UNL     1      23.006   5.843  50.544  1.00  0.00     0.113 C 
HETATM    5  C3  UNL     1      22.142   4.850  50.605  1.00  0.00    -0.001 C 
HETATM    6  C4  UNL     1      22.176   3.400  50.464  1.00  0.00     0.092 C 
HETATM    7  C5  UNL     1      21.680   2.634  51.634  1.00  0.00     0.046 C 
HETATM    8  C8  UNL     1      21.983   1.717  52.538  1.00  0.00     0.007 C 
HETATM    9  C9  UNL     1      22.970   0.777  53.087  1.00  0.00     0.049 C 
HETATM   10  C10 UNL     1      24.316   0.789  52.434  1.00  0.00     0.125 C 
HETATM   11  N2  UNL     1      24.994   2.059  52.594  1.00  0.00    -0.374 N 
HETATM   12  C11 UNL     1      26.305   2.114  51.994  1.00  0.00     0.138 C 
HETATM   13  N3  UNL     1      26.931   2.818  51.079  1.00  0.00    -0.224 NA
HETATM   14  C18 UNL     1      26.282   3.860  50.386  1.00  0.00     0.235 C 
HETATM   15  N4  UNL     1      25.558   4.509  49.548  1.00  0.00    -0.241 NA
HETATM   16  H4  UNL     1      26.570   6.841  50.157  1.00  0.00     0.100 HD
HETATM   17  H19 UNL     1      25.155   3.038  52.891  1.00  0.00     0.161 HD
ENDROOT
BRANCH  12  18
HETATM   18  C12 UNL     1      27.165   1.110  52.585  1.00  0.00     0.048 A 
HETATM   19  C13 UNL     1      27.061  -0.262  52.330  1.00  0.00     0.018 A 
HETATM   20  C14 UNL     1      27.865  -1.228  52.879  1.00  0.00     0.001 A 
HETATM   21  C15 UNL     1      28.862  -0.845  53.750  1.00  0.00     0.003 A 
HETATM   22  C16 UNL     1      28.997   0.493  54.027  1.00  0.00     0.043 A 
HETATM   23  C17 UNL     1      28.174   1.411  53.458  1.00  0.00     0.130 A 
HETATM   24  F1  UNL     1      28.382   2.709  53.788  1.00  0.00    -0.205 F 
ENDBRANCH  12  18
BRANCH   7  25
HETATM   25  O1  UNL     1      20.385   3.202  51.689  1.00  0.00    -0.353 OA
BRANCH  25  26
HETATM   26  C6  UNL     1      19.226   2.436  51.538  1.00  0.00     0.201 C 
BRANCH  26  27
HETATM   27  C7  UNL     1      18.597   2.523  50.169  1.00  0.00     0.190 C 
BRANCH  27  28
HETATM   28  O2  UNL     1      18.887   1.353  49.467  1.00  0.00    -0.399 OA
HETATM   29  H13 UNL     1      19.805   1.033  49.599  1.00  0.00     0.209 HD
ENDBRANCH  27  28
ENDBRANCH  26  27
ENDBRANCH  25  26
ENDBRANCH   7  25
TORSDOF 5
ENDMDL
MODEL 7
REMARK VINA RESULT:      -7.7      3.765      7.659
REMARK  5 active torsions:
REMARK  status: ('A' for Active; 'I' for Inactive)
REMARK    1  A    between atoms: C5_7  and  O1_8 
REMARK    2  A    between atoms: O1_8  and  C6_9 
REMARK    3  A    between atoms: C6_9  and  C7_10 
REMARK    4  A    between atoms: C7_10  and  O2_11 
REMARK    5  A    between atoms: C11_16  and  C12_17 
ROOT
HETATM    1  C1  UNL     1      28.775  -1.132  53.657  1.00  0.00     0.085 C 
HETATM    2  P1  UNL     1      27.337  -0.122  54.076  1.00  0.00     0.063 P 
HETATM    3  N1  UNL     1      27.716   1.424  54.067  1.00  0.00    -0.260 NA
HETATM    4  C2  UNL     1      27.560   2.222  52.900  1.00  0.00     0.113 C 
HETATM    5  C3  UNL     1      27.225   2.768  51.749  1.00  0.00    -0.001 C 
HETATM    6  C4  UNL     1      26.301   2.476  50.660  1.00  0.00     0.092 C 
HETATM    7  C5  UNL     1      25.314   3.542  50.359  1.00  0.00     0.046 C 
HETATM    8  C8  UNL     1      24.027   3.832  50.260  1.00  0.00     0.007 C 
HETATM    9  C9  UNL     1      22.631   3.383  50.355  1.00  0.00     0.049 C 
HETATM   10  C10 UNL     1      22.428   1.968  50.796  1.00  0.00     0.125 C 
HETATM   11  N2  UNL     1      22.905   1.739  52.144  1.00  0.00    -0.374 N 
HETATM   12  C11 UNL     1      22.717   0.391  52.622  1.00  0.00     0.138 C 
HETATM   13  N3  UNL     1      23.456  -0.601  53.060  1.00  0.00    -0.224 NA
HETATM   14  C18 UNL     1      24.857  -0.484  53.158  1.00  0.00     0.235 C 
HETATM   15  N4  UNL     1      26.107  -0.457  52.867  1.00  0.00    -0.241 NA
HETATM   16  H4  UNL     1      26.902  -0.494  55.358  1.00  0.00     0.100 HD
HETATM   17  H19 UNL     1      23.331   1.942  53.067  1.00  0.00     0.161 HD
ENDROOT
BRANCH  12  18
HETATM   18  C12 UNL     1      21.307   0.055  52.620  1.00  0.00     0.048 A 
HETATM   19  C13 UNL     1      20.447   0.284  51.540  1.00  0.00     0.018 A 
HETATM   20  C14 UNL     1      19.111  -0.027  51.519  1.00  0.00     0.001 A 
HETATM   21  C15 UNL     1      18.548  -0.612  52.632  1.00  0.00     0.003 A 
HETATM   22  C16 UNL     1      19.360  -0.852  53.714  1.00  0.00     0.043 A 
HETATM   23  C17 UNL     1      20.677  -0.525  53.686  1.00  0.00     0.130 A 
HETATM   24  F1  UNL     1      21.401  -0.801  54.797  1.00  0.00    -0.205 F 
ENDBRANCH  12  18
BRANCH   7  25
HETATM   25  O1  UNL     1      26.239   4.580  50.099  1.00  0.00    -0.353 OA
BRANCH  25  26
HETATM   26  C6  UNL     1      26.274   5.262  48.880  1.00  0.00     0.201 C 
BRANCH  26  27
HETATM   27  C7  UNL     1      27.656   5.675  48.437  1.00  0.00     0.190 C 
BRANCH  27  28
HETATM   28  O2  UNL     1      28.594   5.070  49.272  1.00  0.00    -0.399 OA
HETATM   29  H13 UNL     1      28.212   4.723  50.106  1.00  0.00     0.209 HD
ENDBRANCH  27  28
ENDBRANCH  26  27
ENDBRANCH  25  26
ENDBRANCH   7  25
TORSDOF 5
ENDMDL
MODEL 8
REMARK VINA RESULT:      -7.4      4.852      7.802
REMARK  5 active torsions:
REMARK  status: ('A' for Active; 'I' for Inactive)
REMARK    1  A    between atoms: C5_7  and  O1_8 
REMARK    2  A    between atoms: O1_8  and  C6_9 
REMARK    3  A    between atoms: C6_9  and  C7_10 
REMARK    4  A    between atoms: C7_10  and  O2_11 
REMARK    5  A    between atoms: C11_16  and  C12_17 
ROOT
HETATM    1  C1  UNL     1      21.633   9.731  48.851  1.00  0.00     0.085 C 
HETATM    2  P1  UNL     1      21.854   8.019  48.317  1.00  0.00     0.063 P 
HETATM    3  N1  UNL     1      22.918   7.933  47.137  1.00  0.00    -0.260 NA
HETATM    4  C2  UNL     1      24.300   7.715  47.395  1.00  0.00     0.113 C 
HETATM    5  C3  UNL     1      25.486   7.397  47.871  1.00  0.00    -0.001 C 
HETATM    6  C4  UNL     1      26.016   6.755  49.068  1.00  0.00     0.092 C 
HETATM    7  C5  UNL     1      26.853   5.553  48.828  1.00  0.00     0.046 C 
HETATM    8  C8  UNL     1      26.997   4.263  49.085  1.00  0.00     0.007 C 
HETATM    9  C9  UNL     1      26.500   3.057  49.760  1.00  0.00     0.049 C 
HETATM   10  C10 UNL     1      25.216   3.213  50.514  1.00  0.00     0.125 C 
HETATM   11  N2  UNL     1      24.106   3.547  49.645  1.00  0.00    -0.374 N 
HETATM   12  C11 UNL     1      22.842   3.692  50.324  1.00  0.00     0.138 C 
HETATM   13  N3  UNL     1      21.929   4.619  50.499  1.00  0.00    -0.224 NA
HETATM   14  C18 UNL     1      22.065   5.899  49.926  1.00  0.00     0.235 C 
HETATM   15  N4  UNL     1      22.417   7.115  49.715  1.00  0.00    -0.241 NA
HETATM   16  H4  UNL     1      20.613   7.539  47.870  1.00  0.00     0.100 HD
HETATM   17  H19 UNL     1      23.594   3.765  48.772  1.00  0.00     0.161 HD
ENDROOT
BRANCH  12  18
HETATM   18  C12 UNL     1      22.489   2.454  50.988  1.00  0.00     0.048 A 
HETATM   19  C13 UNL     1      21.901   1.358  50.347  1.00  0.00     0.018 A 
HETATM   20  C14 UNL     1      21.560   0.178  50.957  1.00  0.00     0.001 A 
HETATM   21  C15 UNL     1      21.806   0.033  52.305  1.00  0.00     0.003 A 
HETATM   22  C16 UNL     1      22.383   1.087  52.971  1.00  0.00     0.043 A 
HETATM   23  C17 UNL     1      22.701   2.235  52.322  1.00  0.00     0.130 A 
HETATM   24  F1  UNL     1      23.268   3.220  53.060  1.00  0.00    -0.205 F 
ENDBRANCH  12  18
BRANCH   7  25
HETATM   25  O1  UNL     1      27.820   6.165  47.996  1.00  0.00    -0.353 OA
BRANCH  25  26
HETATM   26  C6  UNL     1      29.189   5.918  48.134  1.00  0.00     0.201 C 
BRANCH  26  27
HETATM   27  C7  UNL     1      30.035   7.160  48.272  1.00  0.00     0.190 C 
BRANCH  27  28
HETATM   28  O2  UNL     1      29.471   7.980  49.249  1.00  0.00    -0.399 OA
HETATM   29  H13 UNL     1      29.564   7.627  50.159  1.00  0.00     0.209 HD
ENDBRANCH  27  28
ENDBRANCH  26  27
ENDBRANCH  25  26
ENDBRANCH   7  25
TORSDOF 5
ENDMDL
MODEL 9
REMARK VINA RESULT:      -7.4      3.259      5.259
REMARK  5 active torsions:
REMARK  status: ('A' for Active; 'I' for Inactive)
REMARK    1  A    between atoms: C5_7  and  O1_8 
REMARK    2  A    between atoms: O1_8  and  C6_9 
REMARK    3  A    between atoms: C6_9  and  C7_10 
REMARK    4  A    between atoms: C7_10  and  O2_11 
REMARK    5  A    between atoms: C11_16  and  C12_17 
ROOT
HETATM    1  C1  UNL     1      18.813   1.494  51.952  1.00  0.00     0.085 C 
HETATM    2  P1  UNL     1      20.346   0.873  51.225  1.00  0.00     0.063 P 
HETATM    3  N1  UNL     1      20.463   1.317  49.701  1.00  0.00    -0.260 NA
HETATM    4  C2  UNL     1      21.124   2.519  49.324  1.00  0.00     0.113 C 
HETATM    5  C3  UNL     1      21.871   3.599  49.219  1.00  0.00    -0.001 C 
HETATM    6  C4  UNL     1      22.895   4.267  50.012  1.00  0.00     0.092 C 
HETATM    7  C5  UNL     1      24.199   4.465  49.332  1.00  0.00     0.046 C 
HETATM    8  C8  UNL     1      25.499   4.223  49.387  1.00  0.00     0.007 C 
HETATM    9  C9  UNL     1      26.631   3.615  50.100  1.00  0.00     0.049 C 
HETATM   10  C10 UNL     1      26.287   2.850  51.339  1.00  0.00     0.125 C 
HETATM   11  N2  UNL     1      25.458   1.696  51.060  1.00  0.00    -0.374 N 
HETATM   12  C11 UNL     1      25.113   0.916  52.224  1.00  0.00     0.138 C 
HETATM   13  N3  UNL     1      24.028   0.530  52.853  1.00  0.00    -0.224 NA
HETATM   14  C18 UNL     1      22.746   0.892  52.393  1.00  0.00     0.235 C 
HETATM   15  N4  UNL     1      21.669   1.550  52.162  1.00  0.00    -0.241 NA
HETATM   16  H4  UNL     1      20.332  -0.528  51.309  1.00  0.00     0.100 HD
HETATM   17  H19 UNL     1      24.907   1.011  50.512  1.00  0.00     0.161 HD
ENDROOT
BRANCH  12  18
HETATM   18  C12 UNL     1      26.315   0.417  52.862  1.00  0.00     0.048 A 
HETATM   19  C13 UNL     1      27.054  -0.677  52.397  1.00  0.00     0.018 A 
HETATM   20  C14 UNL     1      28.192  -1.164  52.986  1.00  0.00     0.001 A 
HETATM   21  C15 UNL     1      28.668  -0.547  54.122  1.00  0.00     0.003 A 
HETATM   22  C16 UNL     1      27.970   0.531  54.610  1.00  0.00     0.043 A 
HETATM   23  C17 UNL     1      26.847   0.975  53.991  1.00  0.00     0.130 A 
HETATM   24  F1  UNL     1      26.225   2.045  54.543  1.00  0.00    -0.205 F 
ENDBRANCH  12  18
BRANCH   7  25
HETATM   25  O1  UNL     1      23.719   5.204  48.226  1.00  0.00    -0.353 OA
BRANCH  25  26
HETATM   26  C6  UNL     1      24.122   6.519  47.974  1.00  0.00     0.201 C 
BRANCH  26  27
HETATM   27  C7  UNL     1      23.208   7.572  48.552  1.00  0.00     0.190 C 
BRANCH  27  28
HETATM   28  O2  UNL     1      21.888   7.226  48.267  1.00  0.00    -0.399 OA
HETATM   29  H13 UNL     1      21.343   7.980  47.955  1.00  0.00     0.209 HD
ENDBRANCH  27  28
ENDBRANCH  26  27
ENDBRANCH  25  26
ENDBRANCH   7  25
TORSDOF 5
ENDMDL
