MODEL 1
REMARK VINA RESULT:      -7.4      0.000      0.000
REMARK  6 active torsions:
REMARK  status: ('A' for Active; 'I' for Inactive)
REMARK    1  A    between atoms: C2_2  and  C3_3 
REMARK       I    between atoms: C3_3  and  N1_5 
REMARK    2  A    between atoms: N1_5  and  C4_6 
REMARK    3  A    between atoms: C7_9  and  N2_10 
REMARK    4  A    between atoms: C8_11  and  C9_12 
REMARK    5  A    between atoms: C9_12  and  N3_13 
REMARK    6  A    between atoms: C9_12  and  C11_16 
ROOT
HETATM    1  C9  UNL     1      22.571   3.968  49.412  1.00  0.00     0.302 C 
HETATM    2  C10 UNL     1      22.183   2.602  49.130  1.00  0.00     0.112 C 
HETATM    3  N4  UNL     1      21.875   1.508  48.906  1.00  0.00    -0.194 NA
ENDROOT
BRANCH   1   4
HETATM    4  C8  UNL     1      22.010   4.501  50.669  1.00  0.00     0.319 C 
HETATM    5  N2  UNL     1      22.162   4.119  51.873  1.00  0.00    -0.388 NA
BRANCH   5   6
HETATM    6  C7  UNL     1      22.953   3.026  52.310  1.00  0.00     0.022 A 
HETATM    7  C6  UNL     1      22.632   1.684  52.264  1.00  0.00     0.031 A 
HETATM    8  C5  UNL     1      23.514   0.733  52.731  1.00  0.00     0.032 A 
HETATM    9  C4  UNL     1      24.739   1.098  53.257  1.00  0.00     0.035 A 
HETATM   10  C18 UNL     1      25.065   2.438  53.306  1.00  0.00     0.032 A 
HETATM   11  C17 UNL     1      24.195   3.383  52.845  1.00  0.00     0.031 A 
BRANCH   9  12
HETATM   12  N1  UNL     1      25.508  -0.023  53.686  1.00  0.00    -0.324 N 
HETATM   13  C3  UNL     1      26.477  -0.484  52.725  1.00  0.00     0.244 C 
HETATM   14  O1  UNL     1      26.725  -0.024  51.563  1.00  0.00    -0.268 OA
HETATM   15  H4  UNL     1      25.548  -0.610  54.547  1.00  0.00     0.169 HD
BRANCH  13  16
HETATM   16  C2  UNL     1      27.394  -1.616  52.910  1.00  0.00     0.064 C 
HETATM   17  C1  UNL     1      28.418  -0.881  53.360  1.00  0.00     0.017 C 
ENDBRANCH  13  16
ENDBRANCH   9  12
ENDBRANCH   5   6
ENDBRANCH   1   4
BRANCH   1  18
HETATM   18  N3  UNL     1      22.106   4.842  48.324  1.00  0.00     0.112 N 
HETATM   19  H8  UNL     1      21.714   5.694  48.823  1.00  0.00     0.316 HD
HETATM   20  H9  UNL     1      22.999   5.153  47.842  1.00  0.00     0.316 HD
ENDBRANCH   1  18
BRANCH   1  21
HETATM   21  C11 UNL     1      24.054   4.045  49.382  1.00  0.00     0.001 A 
HETATM   22  C12 UNL     1      24.933   2.987  49.568  1.00  0.00     0.011 A 
HETATM   23  C13 UNL     1      26.298   3.196  49.514  1.00  0.00     0.002 A 
HETATM   24  C14 UNL     1      26.803   4.464  49.273  1.00  0.00     0.019 A 
HETATM   25  C15 UNL     1      25.919   5.519  49.087  1.00  0.00     0.011 A 
HETATM   26 BR1  UNL     1      26.707   7.237  48.759  1.00  0.00    -0.051 Br
HETATM   27  C16 UNL     1      24.545   5.318  49.139  1.00  0.00     0.030 A 
ENDBRANCH   1  21
TORSDOF 6
ENDMDL
MODEL 2
REMARK VINA RESULT:      -7.1      3.071      5.905
REMARK  6 active torsions:
REMARK  status: ('A' for Active; 'I' for Inactive)
REMARK    1  A    between atoms: C2_2  and  C3_3 
REMARK       I    between atoms: C3_3  and  N1_5 
REMARK    2  A    between atoms: N1_5  and  C4_6 
REMARK    3  A    between atoms: C7_9  and  N2_10 
REMARK    4  A    between atoms: C8_11  and  C9_12 
REMARK    5  A    between atoms: C9_12  and  N3_13 
REMARK    6  A    between atoms: C9_12  and  C11_16 
ROOT
HETATM    1  C9  UNL     1      22.128   1.629  51.712  1.00  0.00     0.302 C 
HETATM    2  C10 UNL     1      21.299   2.729  52.159  1.00  0.00     0.112 C 
HETATM    3  N4  UNL     1      20.638   3.611  52.515  1.00  0.00    -0.194 NA
ENDROOT
BRANCH   1   4
HETATM    4  C8  UNL     1      22.205   1.497  50.244  1.00  0.00     0.319 C 
HETATM    5  N2  UNL     1      22.794   2.217  49.376  1.00  0.00    -0.388 NA
BRANCH   5   6
HETATM    6  C7  UNL     1      23.557   3.384  49.636  1.00  0.00     0.022 A 
HETATM    7  C6  UNL     1      23.087   4.647  49.939  1.00  0.00     0.031 A 
HETATM    8  C5  UNL     1      23.962   5.686  50.168  1.00  0.00     0.032 A 
HETATM    9  C4  UNL     1      25.329   5.494  50.100  1.00  0.00     0.035 A 
HETATM   10  C18 UNL     1      25.804   4.234  49.798  1.00  0.00     0.032 A 
HETATM   11  C17 UNL     1      24.942   3.201  49.570  1.00  0.00     0.031 A 
BRANCH   9  12
HETATM   12  N1  UNL     1      26.066   6.685  50.366  1.00  0.00    -0.324 N 
HETATM   13  C3  UNL     1      26.668   7.285  49.203  1.00  0.00     0.244 C 
HETATM   14  O1  UNL     1      26.625   6.891  47.993  1.00  0.00    -0.268 OA
HETATM   15  H4  UNL     1      26.283   7.248  51.216  1.00  0.00     0.169 HD
BRANCH  13  16
HETATM   16  C2  UNL     1      27.476   8.511  49.195  1.00  0.00     0.064 C 
HETATM   17  C1  UNL     1      26.963   9.013  50.325  1.00  0.00     0.017 C 
ENDBRANCH  13  16
ENDBRANCH   9  12
ENDBRANCH   5   6
ENDBRANCH   1   4
BRANCH   1  18
HETATM   18  N3  UNL     1      21.585   0.366  52.234  1.00  0.00     0.112 N 
HETATM   19  H8  UNL     1      22.096   0.223  53.155  1.00  0.00     0.316 HD
HETATM   20  H9  UNL     1      20.577   0.596  52.475  1.00  0.00     0.316 HD
ENDBRANCH   1  18
BRANCH   1  21
HETATM   21  C11 UNL     1      23.469   1.776  52.334  1.00  0.00     0.001 A 
HETATM   22  C12 UNL     1      23.933   2.886  53.026  1.00  0.00     0.011 A 
HETATM   23  C13 UNL     1      25.209   2.893  53.558  1.00  0.00     0.002 A 
HETATM   24  C14 UNL     1      26.036   1.792  53.408  1.00  0.00     0.019 A 
HETATM   25  C15 UNL     1      25.566   0.683  52.715  1.00  0.00     0.011 A 
HETATM   26 BR1  UNL     1      26.779  -0.795  52.556  1.00  0.00    -0.051 Br
HETATM   27  C16 UNL     1      24.285   0.667  52.176  1.00  0.00     0.030 A 
ENDBRANCH   1  21
TORSDOF 6
ENDMDL
MODEL 3
REMARK VINA RESULT:      -7.0      4.044      6.534
REMARK  6 active torsions:
REMARK  status: ('A' for Active; 'I' for Inactive)
REMARK    1  A    between atoms: C2_2  and  C3_3 
REMARK       I    between atoms: C3_3  and  N1_5 
REMARK    2  A    between atoms: N1_5  and  C4_6 
REMARK    3  A    between atoms: C7_9  and  N2_10 
REMARK    4  A    between atoms: C8_11  and  C9_12 
REMARK    5  A    between atoms: C9_12  and  N3_13 
REMARK    6  A    between atoms: C9_12  and  C11_16 
ROOT
HETATM    1  C9  UNL     1      20.765   0.624  52.475  1.00  0.00     0.302 C 
HETATM    2  C10 UNL     1      20.585   2.055  52.607  1.00  0.00     0.112 C 
HETATM    3  N4  UNL     1      20.438   3.199  52.715  1.00  0.00    -0.194 NA
ENDROOT
BRANCH   1   4
HETATM    4  C8  UNL     1      21.547   0.017  53.569  1.00  0.00     0.319 C 
HETATM    5  N2  UNL     1      22.771   0.154  53.890  1.00  0.00    -0.388 NA
BRANCH   5   6
HETATM    6  C7  UNL     1      23.722   0.973  53.229  1.00  0.00     0.022 A 
HETATM    7  C6  UNL     1      23.723   2.350  53.130  1.00  0.00     0.031 A 
HETATM    8  C5  UNL     1      24.724   3.005  52.448  1.00  0.00     0.032 A 
HETATM    9  C4  UNL     1      25.752   2.304  51.846  1.00  0.00     0.035 A 
HETATM   10  C18 UNL     1      25.756   0.927  51.941  1.00  0.00     0.032 A 
HETATM   11  C17 UNL     1      24.766   0.273  52.615  1.00  0.00     0.031 A 
BRANCH   9  12
HETATM   12  N1  UNL     1      26.689   3.155  51.191  1.00  0.00    -0.324 N 
HETATM   13  C3  UNL     1      26.289   3.579  49.873  1.00  0.00     0.244 C 
HETATM   14  O1  UNL     1      25.224   3.291  49.235  1.00  0.00    -0.268 OA
HETATM   15  H4  UNL     1      27.617   3.562  51.434  1.00  0.00     0.169 HD
BRANCH  13  16
HETATM   16  C2  UNL     1      27.063   4.454  48.984  1.00  0.00     0.064 C 
HETATM   17  C1  UNL     1      26.243   5.507  49.090  1.00  0.00     0.017 C 
ENDBRANCH  13  16
ENDBRANCH   9  12
ENDBRANCH   5   6
ENDBRANCH   1   4
BRANCH   1  18
HETATM   18  N3  UNL     1      21.477   0.336  51.220  1.00  0.00     0.112 N 
HETATM   19  H8  UNL     1      21.551   1.281  50.739  1.00  0.00     0.316 HD
HETATM   20  H9  UNL     1      22.457   0.073  51.532  1.00  0.00     0.316 HD
ENDBRANCH   1  18
BRANCH   1  21
HETATM   21  C11 UNL     1      19.426  -0.001  52.328  1.00  0.00     0.001 A 
HETATM   22  C12 UNL     1      18.841  -0.899  53.209  1.00  0.00     0.011 A 
HETATM   23  C13 UNL     1      17.581  -1.408  52.951  1.00  0.00     0.002 A 
HETATM   24  C14 UNL     1      16.890  -1.025  51.813  1.00  0.00     0.019 A 
HETATM   25  C15 UNL     1      17.481  -0.125  50.935  1.00  0.00     0.011 A 
HETATM   26 BR1  UNL     1      16.452   0.348  49.386  1.00  0.00    -0.051 Br
HETATM   27  C16 UNL     1      18.746   0.391  51.185  1.00  0.00     0.030 A 
ENDBRANCH   1  21
TORSDOF 6
ENDMDL
MODEL 4
REMARK VINA RESULT:      -6.8      3.565      6.813
REMARK  6 active torsions:
REMARK  status: ('A' for Active; 'I' for Inactive)
REMARK    1  A    between atoms: C2_2  and  C3_3 
REMARK       I    between atoms: C3_3  and  N1_5 
REMARK    2  A    between atoms: N1_5  and  C4_6 
REMARK    3  A    between atoms: C7_9  and  N2_10 
REMARK    4  A    between atoms: C8_11  and  C9_12 
REMARK    5  A    between atoms: C9_12  and  N3_13 
REMARK    6  A    between atoms: C9_12  and  C11_16 
ROOT
HETATM    1  C9  UNL     1      26.068   2.003  52.377  1.00  0.00     0.302 C 
HETATM    2  C10 UNL     1      26.456   2.716  51.178  1.00  0.00     0.112 C 
HETATM    3  N4  UNL     1      26.767   3.283  50.218  1.00  0.00    -0.194 NA
ENDROOT
BRANCH   1   4
HETATM    4  C8  UNL     1      25.006   1.001  52.160  1.00  0.00     0.319 C 
HETATM    5  N2  UNL     1      23.839   1.122  51.666  1.00  0.00    -0.388 NA
BRANCH   5   6
HETATM    6  C7  UNL     1      23.257   2.321  51.181  1.00  0.00     0.022 A 
HETATM    7  C6  UNL     1      23.309   2.822  49.896  1.00  0.00     0.031 A 
HETATM    8  C5  UNL     1      22.688   4.009  49.577  1.00  0.00     0.032 A 
HETATM    9  C4  UNL     1      21.998   4.730  50.535  1.00  0.00     0.035 A 
HETATM   10  C18 UNL     1      21.944   4.234  51.821  1.00  0.00     0.032 A 
HETATM   11  C17 UNL     1      22.557   3.059  52.142  1.00  0.00     0.031 A 
BRANCH   9  12
HETATM   12  N1  UNL     1      21.426   5.928  50.015  1.00  0.00    -0.324 N 
HETATM   13  C3  UNL     1      22.239   7.103  50.197  1.00  0.00     0.244 C 
HETATM   14  O1  UNL     1      23.380   7.203  50.755  1.00  0.00    -0.268 OA
HETATM   15  H4  UNL     1      20.542   6.173  49.520  1.00  0.00     0.169 HD
BRANCH  13  16
HETATM   16  C2  UNL     1      21.889   8.460  49.759  1.00  0.00     0.064 C 
HETATM   17  C1  UNL     1      20.566   8.303  49.888  1.00  0.00     0.017 C 
ENDBRANCH  13  16
ENDBRANCH   9  12
ENDBRANCH   5   6
ENDBRANCH   1   4
BRANCH   1  18
HETATM   18  N3  UNL     1      25.564   2.961  53.373  1.00  0.00     0.112 N 
HETATM   19  H8  UNL     1      25.298   2.357  54.206  1.00  0.00     0.316 HD
HETATM   20  H9  UNL     1      26.423   3.516  53.658  1.00  0.00     0.316 HD
ENDBRANCH   1  18
BRANCH   1  21
HETATM   21  C11 UNL     1      27.289   1.406  52.978  1.00  0.00     0.001 A 
HETATM   22  C12 UNL     1      28.277   2.090  53.672  1.00  0.00     0.011 A 
HETATM   23  C13 UNL     1      29.368   1.410  54.183  1.00  0.00     0.002 A 
HETATM   24  C14 UNL     1      29.483   0.040  54.009  1.00  0.00     0.019 A 
HETATM   25  C15 UNL     1      28.490  -0.638  53.314  1.00  0.00     0.011 A 
HETATM   26 BR1  UNL     1      28.733  -2.532  53.121  1.00  0.00    -0.051 Br
HETATM   27  C16 UNL     1      27.391   0.036  52.796  1.00  0.00     0.030 A 
ENDBRANCH   1  21
TORSDOF 6
ENDMDL
MODEL 5
REMARK VINA RESULT:      -6.7      3.968      7.159
REMARK  6 active torsions:
REMARK  status: ('A' for Active; 'I' for Inactive)
REMARK    1  A    between atoms: C2_2  and  C3_3 
REMARK       I    between atoms: C3_3  and  N1_5 
REMARK    2  A    between atoms: N1_5  and  C4_6 
REMARK    3  A    between atoms: C7_9  and  N2_10 
REMARK    4  A    between atoms: C8_11  and  C9_12 
REMARK    5  A    between atoms: C9_12  and  N3_13 
REMARK    6  A    between atoms: C9_12  and  C11_16 
ROOT
HETATM    1  C9  UNL     1      24.526   2.563  52.023  1.00  0.00     0.302 C 
HETATM    2  C10 UNL     1      25.934   2.461  51.702  1.00  0.00     0.112 C 
HETATM    3  N4  UNL     1      27.060   2.376  51.444  1.00  0.00    -0.194 NA
ENDROOT
BRANCH   1   4
HETATM    4  C8  UNL     1      23.658   2.776  50.849  1.00  0.00     0.319 C 
HETATM    5  N2  UNL     1      23.640   3.716  49.991  1.00  0.00    -0.388 NA
BRANCH   5   6
HETATM    6  C7  UNL     1      24.503   4.841  49.965  1.00  0.00     0.022 A 
HETATM    7  C6  UNL     1      24.368   6.020  50.670  1.00  0.00     0.031 A 
HETATM    8  C5  UNL     1      25.297   7.029  50.538  1.00  0.00     0.032 A 
HETATM    9  C4  UNL     1      26.385   6.888  49.696  1.00  0.00     0.035 A 
HETATM   10  C18 UNL     1      26.523   5.713  48.988  1.00  0.00     0.032 A 
HETATM   11  C17 UNL     1      25.607   4.710  49.116  1.00  0.00     0.031 A 
BRANCH   9  12
HETATM   12  N1  UNL     1      27.230   8.037  49.694  1.00  0.00    -0.324 N 
HETATM   13  C3  UNL     1      27.009   8.937  48.591  1.00  0.00     0.244 C 
HETATM   14  O1  UNL     1      26.170   8.835  47.638  1.00  0.00    -0.268 OA
HETATM   15  H4  UNL     1      27.989   8.399  50.309  1.00  0.00     0.169 HD
BRANCH  13  16
HETATM   16  C2  UNL     1      27.738  10.188  48.349  1.00  0.00     0.064 C 
HETATM   17  C1  UNL     1      28.756   9.907  49.171  1.00  0.00     0.017 C 
ENDBRANCH  13  16
ENDBRANCH   9  12
ENDBRANCH   5   6
ENDBRANCH   1   4
BRANCH   1  18
HETATM   18  N3  UNL     1      24.314   3.699  52.933  1.00  0.00     0.112 N 
HETATM   19  H8  UNL     1      23.398   3.475  53.422  1.00  0.00     0.316 HD
HETATM   20  H9  UNL     1      25.082   3.598  53.658  1.00  0.00     0.316 HD
ENDBRANCH   1  18
BRANCH   1  21
HETATM   21  C11 UNL     1      24.138   1.354  52.796  1.00  0.00     0.001 A 
HETATM   22  C12 UNL     1      25.005   0.460  53.407  1.00  0.00     0.011 A 
HETATM   23  C13 UNL     1      24.510  -0.630  54.100  1.00  0.00     0.002 A 
HETATM   24  C14 UNL     1      23.143  -0.839  54.191  1.00  0.00     0.019 A 
HETATM   25  C15 UNL     1      22.280   0.060  53.577  1.00  0.00     0.011 A 
HETATM   26 BR1  UNL     1      20.405  -0.308  53.756  1.00  0.00    -0.051 Br
HETATM   27  C16 UNL     1      22.768   1.158  52.879  1.00  0.00     0.030 A 
ENDBRANCH   1  21
TORSDOF 6
ENDMDL
MODEL 6
REMARK VINA RESULT:      -6.7      2.522      3.313
REMARK  6 active torsions:
REMARK  status: ('A' for Active; 'I' for Inactive)
REMARK    1  A    between atoms: C2_2  and  C3_3 
REMARK       I    between atoms: C3_3  and  N1_5 
REMARK    2  A    between atoms: N1_5  and  C4_6 
REMARK    3  A    between atoms: C7_9  and  N2_10 
REMARK    4  A    between atoms: C8_11  and  C9_12 
REMARK    5  A    between atoms: C9_12  and  N3_13 
REMARK    6  A    between atoms: C9_12  and  C11_16 
ROOT
HETATM    1  C9  UNL     1      21.856   2.873  51.878  1.00  0.00     0.302 C 
HETATM    2  C10 UNL     1      22.148   1.663  52.618  1.00  0.00     0.112 C 
HETATM    3  N4  UNL     1      22.385   0.695  53.208  1.00  0.00    -0.194 NA
ENDROOT
BRANCH   1   4
HETATM    4  C8  UNL     1      22.742   4.006  52.209  1.00  0.00     0.319 C 
HETATM    5  N2  UNL     1      23.986   4.037  52.472  1.00  0.00    -0.388 NA
BRANCH   5   6
HETATM    6  C7  UNL     1      24.861   2.921  52.508  1.00  0.00     0.022 A 
HETATM    7  C6  UNL     1      25.393   2.234  51.435  1.00  0.00     0.031 A 
HETATM    8  C5  UNL     1      26.235   1.162  51.634  1.00  0.00     0.032 A 
HETATM    9  C4  UNL     1      26.567   0.746  52.910  1.00  0.00     0.035 A 
HETATM   10  C18 UNL     1      26.038   1.428  53.986  1.00  0.00     0.032 A 
HETATM   11  C17 UNL     1      25.204   2.491  53.794  1.00  0.00     0.031 A 
BRANCH   9  12
HETATM   12  N1  UNL     1      27.447  -0.377  52.911  1.00  0.00    -0.324 N 
HETATM   13  C3  UNL     1      28.783  -0.086  53.363  1.00  0.00     0.244 C 
HETATM   14  O1  UNL     1      29.266   1.027  53.754  1.00  0.00    -0.268 OA
HETATM   15  H4  UNL     1      27.362  -1.385  52.660  1.00  0.00     0.169 HD
BRANCH  13  16
HETATM   16  C2  UNL     1      29.882  -1.054  53.462  1.00  0.00     0.064 C 
HETATM   17  C1  UNL     1      29.122  -2.136  53.251  1.00  0.00     0.017 C 
ENDBRANCH  13  16
ENDBRANCH   9  12
ENDBRANCH   5   6
ENDBRANCH   1   4
BRANCH   1  18
HETATM   18  N3  UNL     1      20.478   3.300  52.165  1.00  0.00     0.112 N 
HETATM   19  H8  UNL     1      20.534   3.723  53.138  1.00  0.00     0.316 HD
HETATM   20  H9  UNL     1      20.308   4.101  51.491  1.00  0.00     0.316 HD
ENDBRANCH   1  18
BRANCH   1  21
HETATM   21  C11 UNL     1      21.880   2.547  50.428  1.00  0.00     0.001 A 
HETATM   22  C12 UNL     1      21.772   1.280  49.872  1.00  0.00     0.011 A 
HETATM   23  C13 UNL     1      21.809   1.115  48.500  1.00  0.00     0.002 A 
HETATM   24  C14 UNL     1      21.952   2.213  47.666  1.00  0.00     0.019 A 
HETATM   25  C15 UNL     1      22.059   3.479  48.228  1.00  0.00     0.011 A 
HETATM   26 BR1  UNL     1      22.254   4.939  46.999  1.00  0.00    -0.051 Br
HETATM   27  C16 UNL     1      22.023   3.654  49.607  1.00  0.00     0.030 A 
ENDBRANCH   1  21
TORSDOF 6
ENDMDL
MODEL 7
REMARK VINA RESULT:      -6.7      1.570      2.234
REMARK  6 active torsions:
REMARK  status: ('A' for Active; 'I' for Inactive)
REMARK    1  A    between atoms: C2_2  and  C3_3 
REMARK       I    between atoms: C3_3  and  N1_5 
REMARK    2  A    between atoms: N1_5  and  C4_6 
REMARK    3  A    between atoms: C7_9  and  N2_10 
REMARK    4  A    between atoms: C8_11  and  C9_12 
REMARK    5  A    between atoms: C9_12  and  N3_13 
REMARK    6  A    between atoms: C9_12  and  C11_16 
ROOT
HETATM    1  C9  UNL     1      21.794   3.994  50.024  1.00  0.00     0.302 C 
HETATM    2  C10 UNL     1      22.246   2.890  49.203  1.00  0.00     0.112 C 
HETATM    3  N4  UNL     1      22.609   2.007  48.548  1.00  0.00    -0.194 NA
ENDROOT
BRANCH   1   4
HETATM    4  C8  UNL     1      21.186   3.578  51.303  1.00  0.00     0.319 C 
HETATM    5  N2  UNL     1      21.701   3.018  52.323  1.00  0.00    -0.388 NA
BRANCH   5   6
HETATM    6  C7  UNL     1      23.059   2.642  52.473  1.00  0.00     0.022 A 
HETATM    7  C6  UNL     1      24.089   3.398  52.999  1.00  0.00     0.031 A 
HETATM    8  C5  UNL     1      25.366   2.888  53.078  1.00  0.00     0.032 A 
HETATM    9  C4  UNL     1      25.651   1.610  52.635  1.00  0.00     0.035 A 
HETATM   10  C18 UNL     1      24.626   0.851  52.109  1.00  0.00     0.032 A 
HETATM   11  C17 UNL     1      23.359   1.351  52.027  1.00  0.00     0.031 A 
BRANCH   9  12
HETATM   12  N1  UNL     1      27.024   1.264  52.801  1.00  0.00    -0.324 N 
HETATM   13  C3  UNL     1      27.362   0.780  54.114  1.00  0.00     0.244 C 
HETATM   14  O1  UNL     1      26.602   0.627  55.125  1.00  0.00    -0.268 OA
HETATM   15  H4  UNL     1      27.869   1.273  52.191  1.00  0.00     0.169 HD
BRANCH  13  16
HETATM   16  C2  UNL     1      28.698   0.357  54.552  1.00  0.00     0.064 C 
HETATM   17  C1  UNL     1      28.755  -0.727  53.769  1.00  0.00     0.017 C 
ENDBRANCH  13  16
ENDBRANCH   9  12
ENDBRANCH   5   6
ENDBRANCH   1   4
BRANCH   1  18
HETATM   18  N3  UNL     1      20.778   4.765  49.290  1.00  0.00     0.112 N 
HETATM   19  H8  UNL     1      19.961   4.828  49.965  1.00  0.00     0.316 HD
HETATM   20  H9  UNL     1      21.193   5.739  49.217  1.00  0.00     0.316 HD
ENDBRANCH   1  18
BRANCH   1  21
HETATM   21  C11 UNL     1      22.936   4.924  50.221  1.00  0.00     0.001 A 
HETATM   22  C12 UNL     1      22.904   6.123  50.918  1.00  0.00     0.011 A 
HETATM   23  C13 UNL     1      24.045   6.897  51.027  1.00  0.00     0.002 A 
HETATM   24  C14 UNL     1      25.231   6.482  50.443  1.00  0.00     0.019 A 
HETATM   25  C15 UNL     1      25.257   5.280  49.747  1.00  0.00     0.011 A 
HETATM   26 BR1  UNL     1      26.941   4.785  48.972  1.00  0.00    -0.051 Br
HETATM   27  C16 UNL     1      24.116   4.496  49.632  1.00  0.00     0.030 A 
ENDBRANCH   1  21
TORSDOF 6
ENDMDL
MODEL 8
REMARK VINA RESULT:      -6.6      4.860      7.782
REMARK  6 active torsions:
REMARK  status: ('A' for Active; 'I' for Inactive)
REMARK    1  A    between atoms: C2_2  and  C3_3 
REMARK       I    between atoms: C3_3  and  N1_5 
REMARK    2  A    between atoms: N1_5  and  C4_6 
REMARK    3  A    between atoms: C7_9  and  N2_10 
REMARK    4  A    between atoms: C8_11  and  C9_12 
REMARK    5  A    between atoms: C9_12  and  N3_13 
REMARK    6  A    between atoms: C9_12  and  C11_16 
ROOT
HETATM    1  C9  UNL     1      24.755   4.747  49.713  1.00  0.00     0.302 C 
HETATM    2  C10 UNL     1      26.111   4.311  49.452  1.00  0.00     0.112 C 
HETATM    3  N4  UNL     1      27.194   3.961  49.241  1.00  0.00    -0.194 NA
ENDROOT
BRANCH   1   4
HETATM    4  C8  UNL     1      24.206   5.646  48.679  1.00  0.00     0.319 C 
HETATM    5  N2  UNL     1      24.619   6.771  48.253  1.00  0.00    -0.388 NA
BRANCH   5   6
HETATM    6  C7  UNL     1      25.773   7.463  48.703  1.00  0.00     0.022 A 
HETATM    7  C6  UNL     1      25.875   8.315  49.785  1.00  0.00     0.031 A 
HETATM    8  C5  UNL     1      27.074   8.916  50.096  1.00  0.00     0.032 A 
HETATM    9  C4  UNL     1      28.206   8.682  49.336  1.00  0.00     0.035 A 
HETATM   10  C18 UNL     1      28.109   7.832  48.254  1.00  0.00     0.032 A 
HETATM   11  C17 UNL     1      26.923   7.235  47.941  1.00  0.00     0.031 A 
BRANCH   9  12
HETATM   12  N1  UNL     1      29.346   9.392  49.815  1.00  0.00    -0.324 N 
HETATM   13  C3  UNL     1      29.709  10.538  49.022  1.00  0.00     0.244 C 
HETATM   14  O1  UNL     1      29.151  10.986  47.969  1.00  0.00    -0.268 OA
HETATM   15  H4  UNL     1      30.000   9.287  50.619  1.00  0.00     0.169 HD
BRANCH  13  16
HETATM   16  C2  UNL     1      30.837  11.440  49.290  1.00  0.00     0.064 C 
HETATM   17  C1  UNL     1      30.172  12.567  49.009  1.00  0.00     0.017 C 
ENDBRANCH  13  16
ENDBRANCH   9  12
ENDBRANCH   5   6
ENDBRANCH   1   4
BRANCH   1  18
HETATM   18  N3  UNL     1      24.715   5.478  50.989  1.00  0.00     0.112 N 
HETATM   19  H8  UNL     1      25.690   5.354  51.392  1.00  0.00     0.316 HD
HETATM   20  H9  UNL     1      24.628   6.497  50.703  1.00  0.00     0.316 HD
ENDBRANCH   1  18
BRANCH   1  21
HETATM   21  C11 UNL     1      23.910   3.542  49.916  1.00  0.00     0.001 A 
HETATM   22  C12 UNL     1      22.940   3.067  49.046  1.00  0.00     0.011 A 
HETATM   23  C13 UNL     1      22.222   1.927  49.357  1.00  0.00     0.002 A 
HETATM   24  C14 UNL     1      22.465   1.246  50.539  1.00  0.00     0.019 A 
HETATM   25  C15 UNL     1      23.438   1.727  51.406  1.00  0.00     0.011 A 
HETATM   26 BR1  UNL     1      23.708   0.722  53.018  1.00  0.00    -0.051 Br
HETATM   27  C16 UNL     1      24.165   2.872  51.102  1.00  0.00     0.030 A 
ENDBRANCH   1  21
TORSDOF 6
ENDMDL
MODEL 9
REMARK VINA RESULT:      -6.6      3.153      4.230
REMARK  6 active torsions:
REMARK  status: ('A' for Active; 'I' for Inactive)
REMARK    1  A    between atoms: C2_2  and  C3_3 
REMARK       I    between atoms: C3_3  and  N1_5 
REMARK    2  A    between atoms: N1_5  and  C4_6 
REMARK    3  A    between atoms: C7_9  and  N2_10 
REMARK    4  A    between atoms: C8_11  and  C9_12 
REMARK    5  A    between atoms: C9_12  and  N3_13 
REMARK    6  A    between atoms: C9_12  and  C11_16 
ROOT
HETATM    1  C9  UNL     1      24.812   5.415  50.023  1.00  0.00     0.302 C 
HETATM    2  C10 UNL     1      25.405   6.371  49.112  1.00  0.00     0.112 C 
HETATM    3  N4  UNL     1      25.876   7.136  48.382  1.00  0.00    -0.194 NA
ENDROOT
BRANCH   1   4
HETATM    4  C8  UNL     1      24.172   6.030  51.202  1.00  0.00     0.319 C 
HETATM    5  N2  UNL     1      23.504   5.508  52.151  1.00  0.00    -0.388 NA
BRANCH   5   6
HETATM    6  C7  UNL     1      23.201   4.131  52.300  1.00  0.00     0.022 A 
HETATM    7  C6  UNL     1      24.026   3.136  52.786  1.00  0.00     0.031 A 
HETATM    8  C5  UNL     1      23.584   1.834  52.871  1.00  0.00     0.032 A 
HETATM    9  C4  UNL     1      22.306   1.489  52.472  1.00  0.00     0.035 A 
HETATM   10  C18 UNL     1      21.477   2.479  51.986  1.00  0.00     0.032 A 
HETATM   11  C17 UNL     1      21.910   3.770  51.899  1.00  0.00     0.031 A 
BRANCH   9  12
HETATM   12  N1  UNL     1      22.035   0.099  52.636  1.00  0.00    -0.324 N 
HETATM   13  C3  UNL     1      21.284  -0.226  53.822  1.00  0.00     0.244 C 
HETATM   14  O1  UNL     1      20.843   0.559  54.723  1.00  0.00    -0.268 OA
HETATM   15  H4  UNL     1      22.249  -0.766  52.096  1.00  0.00     0.169 HD
BRANCH  13  16
HETATM   16  C2  UNL     1      20.872  -1.575  54.230  1.00  0.00     0.064 C 
HETATM   17  C1  UNL     1      21.983  -1.845  54.926  1.00  0.00     0.017 C 
ENDBRANCH  13  16
ENDBRANCH   9  12
ENDBRANCH   5   6
ENDBRANCH   1   4
BRANCH   1  18
HETATM   18  N3  UNL     1      25.854   4.503  50.521  1.00  0.00     0.112 N 
HETATM   19  H8  UNL     1      25.545   3.545  50.183  1.00  0.00     0.316 HD
HETATM   20  H9  UNL     1      26.717   4.763  49.959  1.00  0.00     0.316 HD
ENDBRANCH   1  18
BRANCH   1  21
HETATM   21  C11 UNL     1      23.869   4.562  49.254  1.00  0.00     0.001 A 
HETATM   22  C12 UNL     1      23.962   3.189  49.082  1.00  0.00     0.011 A 
HETATM   23  C13 UNL     1      23.011   2.513  48.338  1.00  0.00     0.002 A 
HETATM   24  C14 UNL     1      21.958   3.201  47.758  1.00  0.00     0.019 A 
HETATM   25  C15 UNL     1      21.871   4.576  47.933  1.00  0.00     0.011 A 
HETATM   26 BR1  UNL     1      20.380   5.445  47.094  1.00  0.00    -0.051 Br
HETATM   27  C16 UNL     1      22.821   5.264  48.679  1.00  0.00     0.030 A 
ENDBRANCH   1  21
TORSDOF 6
ENDMDL
