MODEL 1
REMARK VINA RESULT:      -7.7      0.000      0.000
REMARK  8 active torsions:
REMARK  status: ('A' for Active; 'I' for Inactive)
REMARK    1  A    between atoms: C2_2  and  N1_3 
REMARK    2  A    between atoms: C2_2  and  N2_19 
REMARK    3  A    between atoms: N1_3  and  C3_4 
REMARK    4  A    between atoms: N1_3  and  C9_11 
REMARK    5  A    between atoms: C3_4  and  C4_5 
REMARK    6  A    between atoms: C7_8  and  O1_9 
REMARK    7  A    between atoms: C14_17  and  O2_18 
REMARK    8  A    between atoms: C19_24  and  S1_25 
ROOT
HETATM    1  N1  UNL     1      24.587   1.630  52.584  1.00  0.00    -0.356 N 
ENDROOT
BRANCH   1   2
HETATM    2  C2  UNL     1      24.280   2.924  51.996  1.00  0.00     0.183 C 
HETATM    3  C1  UNL     1      23.307   3.675  52.934  1.00  0.00     0.056 C 
BRANCH   2   4
HETATM    4  N2  UNL     1      23.737   2.861  50.663  1.00  0.00    -0.353 N 
HETATM    5  C15 UNL     1      22.757   1.850  50.345  1.00  0.00     0.089 A 
HETATM    6  C16 UNL     1      22.210   1.756  49.123  1.00  0.00     0.017 A 
HETATM    7  C17 UNL     1      22.632   2.714  48.119  1.00  0.00     0.000 A 
HETATM    8  C18 UNL     1      23.515   3.662  48.354  1.00  0.00     0.009 A 
HETATM    9  C19 UNL     1      24.162   3.848  49.658  1.00  0.00     0.168 A 
BRANCH   9  10
HETATM   10  S1  UNL     1      25.929   4.075  49.575  1.00  0.00    -0.153 SA
HETATM   11  H21 UNL     1      26.588   2.839  49.454  1.00  0.00     0.104 HD
ENDBRANCH   9  10
ENDBRANCH   2   4
ENDBRANCH   1   2
BRANCH   1  12
HETATM   12  C3  UNL     1      23.460   1.180  53.339  1.00  0.00     0.138 C 
BRANCH  12  13
HETATM   13  C4  UNL     1      22.991  -0.211  53.100  1.00  0.00     0.051 A 
HETATM   14  C5  UNL     1      22.858  -0.865  54.459  1.00  0.00    -0.014 A 
HETATM   15  C6  UNL     1      21.613  -1.197  54.837  1.00  0.00     0.033 A 
HETATM   16  C7  UNL     1      20.783  -0.776  53.716  1.00  0.00     0.062 A 
HETATM   17  C8  UNL     1      21.518  -0.226  52.738  1.00  0.00     0.020 A 
BRANCH  16  18
HETATM   18  O1  UNL     1      19.450  -1.105  54.060  1.00  0.00    -0.361 OA
HETATM   19  H10 UNL     1      19.146  -1.116  55.039  1.00  0.00     0.217 HD
ENDBRANCH  16  18
ENDBRANCH  12  13
ENDBRANCH   1  12
BRANCH   1  20
HETATM   20  C9  UNL     1      25.690   0.734  52.679  1.00  0.00     0.066 A 
HETATM   21  C10 UNL     1      25.953  -0.546  52.249  1.00  0.00     0.032 A 
HETATM   22  C11 UNL     1      27.165  -1.142  52.506  1.00  0.00     0.004 A 
HETATM   23  C12 UNL     1      28.166  -0.474  53.210  1.00  0.00     0.022 A 
HETATM   24  C13 UNL     1      27.917   0.802  53.639  1.00  0.00     0.046 A 
HETATM   25 BR1  UNL     1      29.369   1.613  54.582  1.00  0.00    -0.048 Br
HETATM   26  C14 UNL     1      26.688   1.426  53.388  1.00  0.00     0.109 A 
BRANCH  26  27
HETATM   27  O2  UNL     1      26.667   2.701  53.916  1.00  0.00    -0.357 OA
HETATM   28  H15 UNL     1      26.357   3.455  53.330  1.00  0.00     0.217 HD
ENDBRANCH  26  27
ENDBRANCH   1  20
TORSDOF 8
ENDMDL
MODEL 2
REMARK VINA RESULT:      -7.6      1.914      2.682
REMARK  8 active torsions:
REMARK  status: ('A' for Active; 'I' for Inactive)
REMARK    1  A    between atoms: C2_2  and  N1_3 
REMARK    2  A    between atoms: C2_2  and  N2_19 
REMARK    3  A    between atoms: N1_3  and  C3_4 
REMARK    4  A    between atoms: N1_3  and  C9_11 
REMARK    5  A    between atoms: C3_4  and  C4_5 
REMARK    6  A    between atoms: C7_8  and  O1_9 
REMARK    7  A    between atoms: C14_17  and  O2_18 
REMARK    8  A    between atoms: C19_24  and  S1_25 
ROOT
HETATM    1  N1  UNL     1      25.628   1.682  52.431  1.00  0.00    -0.356 N 
ENDROOT
BRANCH   1   2
HETATM    2  C2  UNL     1      25.048   2.136  51.178  1.00  0.00     0.183 C 
HETATM    3  C1  UNL     1      26.188   2.625  50.255  1.00  0.00     0.056 C 
BRANCH   2   4
HETATM    4  N2  UNL     1      24.048   3.162  51.320  1.00  0.00    -0.353 N 
HETATM    5  C15 UNL     1      24.045   3.991  52.502  1.00  0.00     0.089 A 
HETATM    6  C16 UNL     1      23.144   4.970  52.677  1.00  0.00     0.017 A 
HETATM    7  C17 UNL     1      22.162   5.179  51.630  1.00  0.00     0.000 A 
HETATM    8  C18 UNL     1      22.121   4.460  50.528  1.00  0.00     0.009 A 
HETATM    9  C19 UNL     1      23.067   3.374  50.243  1.00  0.00     0.168 A 
BRANCH   9  10
HETATM   10  S1  UNL     1      22.304   1.872  49.658  1.00  0.00    -0.153 SA
HETATM   11  H21 UNL     1      21.687   1.179  50.715  1.00  0.00     0.104 HD
ENDBRANCH   9  10
ENDBRANCH   2   4
ENDBRANCH   1   2
BRANCH   1  12
HETATM   12  C3  UNL     1      24.576   1.368  53.347  1.00  0.00     0.138 C 
BRANCH  12  13
HETATM   13  C4  UNL     1      23.601   0.325  52.932  1.00  0.00     0.051 A 
HETATM   14  C5  UNL     1      23.639  -0.753  53.995  1.00  0.00    -0.014 A 
HETATM   15  C6  UNL     1      22.518  -0.909  54.720  1.00  0.00     0.033 A 
HETATM   16  C7  UNL     1      21.608   0.090  54.175  1.00  0.00     0.062 A 
HETATM   17  C8  UNL     1      22.179   0.789  53.184  1.00  0.00     0.020 A 
BRANCH  16  18
HETATM   18  O1  UNL     1      20.401  -0.031  54.905  1.00  0.00    -0.361 OA
HETATM   19  H10 UNL     1      20.184  -0.885  55.428  1.00  0.00     0.217 HD
ENDBRANCH  16  18
ENDBRANCH  12  13
ENDBRANCH   1  12
BRANCH   1  20
HETATM   20  C9  UNL     1      26.917   1.531  53.020  1.00  0.00     0.066 A 
HETATM   21  C10 UNL     1      27.792   2.357  53.687  1.00  0.00     0.032 A 
HETATM   22  C11 UNL     1      28.995   1.881  54.153  1.00  0.00     0.004 A 
HETATM   23  C12 UNL     1      29.369   0.551  53.966  1.00  0.00     0.022 A 
HETATM   24  C13 UNL     1      28.504  -0.280  53.307  1.00  0.00     0.046 A 
HETATM   25 BR1  UNL     1      29.127  -2.079  53.123  1.00  0.00    -0.048 Br
HETATM   26  C14 UNL     1      27.274   0.186  52.824  1.00  0.00     0.109 A 
BRANCH  26  27
HETATM   27  O2  UNL     1      26.577  -0.826  52.195  1.00  0.00    -0.357 OA
HETATM   28  H15 UNL     1      26.473  -0.785  51.198  1.00  0.00     0.217 HD
ENDBRANCH  26  27
ENDBRANCH   1  20
TORSDOF 8
ENDMDL
MODEL 3
REMARK VINA RESULT:      -7.6      3.519      6.924
REMARK  8 active torsions:
REMARK  status: ('A' for Active; 'I' for Inactive)
REMARK    1  A    between atoms: C2_2  and  N1_3 
REMARK    2  A    between atoms: C2_2  and  N2_19 
REMARK    3  A    between atoms: N1_3  and  C3_4 
REMARK    4  A    between atoms: N1_3  and  C9_11 
REMARK    5  A    between atoms: C3_4  and  C4_5 
REMARK    6  A    between atoms: C7_8  and  O1_9 
REMARK    7  A    between atoms: C14_17  and  O2_18 
REMARK    8  A    between atoms: C19_24  and  S1_25 
ROOT
HETATM    1  N1  UNL     1      23.369   2.616  51.508  1.00  0.00    -0.356 N 
ENDROOT
BRANCH   1   2
HETATM    2  C2  UNL     1      23.898   2.233  52.806  1.00  0.00     0.183 C 
HETATM    3  C1  UNL     1      24.683   3.429  53.393  1.00  0.00     0.056 C 
BRANCH   2   4
HETATM    4  N2  UNL     1      24.727   1.055  52.790  1.00  0.00    -0.353 N 
HETATM    5  C15 UNL     1      25.962   1.068  52.044  1.00  0.00     0.089 A 
HETATM    6  C16 UNL     1      26.777   0.002  52.006  1.00  0.00     0.017 A 
HETATM    7  C17 UNL     1      26.380  -1.178  52.751  1.00  0.00     0.000 A 
HETATM    8  C18 UNL     1      25.269  -1.245  53.455  1.00  0.00     0.009 A 
HETATM    9  C19 UNL     1      24.320  -0.130  53.562  1.00  0.00     0.168 A 
BRANCH   9  10
HETATM   10  S1  UNL     1      22.615  -0.594  53.324  1.00  0.00    -0.153 SA
HETATM   11  H21 UNL     1      22.329  -1.806  53.975  1.00  0.00     0.104 HD
ENDBRANCH   9  10
ENDBRANCH   2   4
ENDBRANCH   1   2
BRANCH   1  12
HETATM   12  C3  UNL     1      24.099   3.744  51.019  1.00  0.00     0.138 C 
BRANCH  12  13
HETATM   13  C4  UNL     1      24.688   3.636  49.658  1.00  0.00     0.051 A 
HETATM   14  C5  UNL     1      24.755   5.043  49.101  1.00  0.00    -0.014 A 
HETATM   15  C6  UNL     1      25.986   5.539  48.893  1.00  0.00     0.033 A 
HETATM   16  C7  UNL     1      26.873   4.461  49.309  1.00  0.00     0.062 A 
HETATM   17  C8  UNL     1      26.184   3.393  49.738  1.00  0.00     0.020 A 
BRANCH  16  18
HETATM   18  O1  UNL     1      28.193   4.930  49.109  1.00  0.00    -0.361 OA
HETATM   19  H10 UNL     1      28.627   4.904  48.181  1.00  0.00     0.217 HD
ENDBRANCH  16  18
ENDBRANCH  12  13
ENDBRANCH   1  12
BRANCH   1  20
HETATM   20  C9  UNL     1      22.309   2.242  50.633  1.00  0.00     0.066 A 
HETATM   21  C10 UNL     1      22.195   1.446  49.517  1.00  0.00     0.032 A 
HETATM   22  C11 UNL     1      20.982   1.281  48.889  1.00  0.00     0.004 A 
HETATM   23  C12 UNL     1      19.832   1.912  49.359  1.00  0.00     0.022 A 
HETATM   24  C13 UNL     1      19.933   2.703  50.471  1.00  0.00     0.046 A 
HETATM   25 BR1  UNL     1      18.286   3.505  51.021  1.00  0.00    -0.048 Br
HETATM   26  C14 UNL     1      21.160   2.885  51.124  1.00  0.00     0.109 A 
BRANCH  26  27
HETATM   27  O2  UNL     1      21.018   3.723  52.212  1.00  0.00    -0.357 OA
HETATM   28  H15 UNL     1      21.755   3.748  52.893  1.00  0.00     0.217 HD
ENDBRANCH  26  27
ENDBRANCH   1  20
TORSDOF 8
ENDMDL
MODEL 4
REMARK VINA RESULT:      -7.3      3.652      7.172
REMARK  8 active torsions:
REMARK  status: ('A' for Active; 'I' for Inactive)
REMARK    1  A    between atoms: C2_2  and  N1_3 
REMARK    2  A    between atoms: C2_2  and  N2_19 
REMARK    3  A    between atoms: N1_3  and  C3_4 
REMARK    4  A    between atoms: N1_3  and  C9_11 
REMARK    5  A    between atoms: C3_4  and  C4_5 
REMARK    6  A    between atoms: C7_8  and  O1_9 
REMARK    7  A    between atoms: C14_17  and  O2_18 
REMARK    8  A    between atoms: C19_24  and  S1_25 
ROOT
HETATM    1  N1  UNL     1      23.161   3.250  51.011  1.00  0.00    -0.356 N 
ENDROOT
BRANCH   1   2
HETATM    2  C2  UNL     1      23.347   2.918  52.414  1.00  0.00     0.183 C 
HETATM    3  C1  UNL     1      24.107   4.077  53.099  1.00  0.00     0.056 C 
BRANCH   2   4
HETATM    4  N2  UNL     1      24.028   1.670  52.647  1.00  0.00    -0.353 N 
HETATM    5  C15 UNL     1      25.411   1.534  52.257  1.00  0.00     0.089 A 
HETATM    6  C16 UNL     1      26.095   0.398  52.463  1.00  0.00     0.017 A 
HETATM    7  C17 UNL     1      25.399  -0.703  53.102  1.00  0.00     0.000 A 
HETATM    8  C18 UNL     1      24.142  -0.633  53.487  1.00  0.00     0.009 A 
HETATM    9  C19 UNL     1      23.315   0.567  53.310  1.00  0.00     0.168 A 
BRANCH   9  10
HETATM   10  S1  UNL     1      21.695   0.248  52.636  1.00  0.00    -0.153 SA
HETATM   11  H21 UNL     1      21.546   0.859  51.379  1.00  0.00     0.104 HD
ENDBRANCH   9  10
ENDBRANCH   2   4
ENDBRANCH   1   2
BRANCH   1  12
HETATM   12  C3  UNL     1      24.067   4.296  50.653  1.00  0.00     0.138 C 
BRANCH  12  13
HETATM   13  C4  UNL     1      24.738   4.193  49.330  1.00  0.00     0.051 A 
HETATM   14  C5  UNL     1      25.041   5.608  48.884  1.00  0.00    -0.014 A 
HETATM   15  C6  UNL     1      26.342   5.935  48.796  1.00  0.00     0.033 A 
HETATM   16  C7  UNL     1      27.036   4.716  49.189  1.00  0.00     0.062 A 
HETATM   17  C8  UNL     1      26.175   3.733  49.490  1.00  0.00     0.020 A 
BRANCH  16  18
HETATM   18  O1  UNL     1      28.420   5.003  49.112  1.00  0.00    -0.361 OA
HETATM   19  H10 UNL     1      28.751   5.939  48.857  1.00  0.00     0.217 HD
ENDBRANCH  16  18
ENDBRANCH  12  13
ENDBRANCH   1  12
BRANCH   1  20
HETATM   20  C9  UNL     1      22.304   2.889  49.931  1.00  0.00     0.066 A 
HETATM   21  C10 UNL     1      22.363   1.989  48.892  1.00  0.00     0.032 A 
HETATM   22  C11 UNL     1      21.326   1.877  47.996  1.00  0.00     0.004 A 
HETATM   23  C12 UNL     1      20.184   2.669  48.108  1.00  0.00     0.022 A 
HETATM   24  C13 UNL     1      20.113   3.565  49.139  1.00  0.00     0.046 A 
HETATM   25 BR1  UNL     1      18.495   4.584  49.189  1.00  0.00    -0.048 Br
HETATM   26  C14 UNL     1      21.160   3.694  50.062  1.00  0.00     0.109 A 
BRANCH  26  27
HETATM   27  O2  UNL     1      20.866   4.658  51.007  1.00  0.00    -0.357 OA
HETATM   28  H15 UNL     1      20.655   4.360  51.942  1.00  0.00     0.217 HD
ENDBRANCH  26  27
ENDBRANCH   1  20
TORSDOF 8
ENDMDL
MODEL 5
REMARK VINA RESULT:      -7.2      3.313      5.634
REMARK  8 active torsions:
REMARK  status: ('A' for Active; 'I' for Inactive)
REMARK    1  A    between atoms: C2_2  and  N1_3 
REMARK    2  A    between atoms: C2_2  and  N2_19 
REMARK    3  A    between atoms: N1_3  and  C3_4 
REMARK    4  A    between atoms: N1_3  and  C9_11 
REMARK    5  A    between atoms: C3_4  and  C4_5 
REMARK    6  A    between atoms: C7_8  and  O1_9 
REMARK    7  A    between atoms: C14_17  and  O2_18 
REMARK    8  A    between atoms: C19_24  and  S1_25 
ROOT
HETATM    1  N1  UNL     1      24.185   3.417  51.198  1.00  0.00    -0.356 N 
ENDROOT
BRANCH   1   2
HETATM    2  C2  UNL     1      24.111   2.747  52.486  1.00  0.00     0.183 C 
HETATM    3  C1  UNL     1      24.619   3.718  53.577  1.00  0.00     0.056 C 
BRANCH   2   4
HETATM    4  N2  UNL     1      24.830   1.502  52.554  1.00  0.00    -0.353 N 
HETATM    5  C15 UNL     1      26.083   1.368  51.849  1.00  0.00     0.089 A 
HETATM    6  C16 UNL     1      26.799   0.234  51.890  1.00  0.00     0.017 A 
HETATM    7  C17 UNL     1      26.277  -0.867  52.676  1.00  0.00     0.000 A 
HETATM    8  C18 UNL     1      25.145  -0.800  53.346  1.00  0.00     0.009 A 
HETATM    9  C19 UNL     1      24.297   0.398  53.368  1.00  0.00     0.168 A 
BRANCH   9  10
HETATM   10  S1  UNL     1      22.564   0.075  53.096  1.00  0.00    -0.153 SA
HETATM   11  H21 UNL     1      22.290  -0.065  51.724  1.00  0.00     0.104 HD
ENDBRANCH   9  10
ENDBRANCH   2   4
ENDBRANCH   1   2
BRANCH   1  12
HETATM   12  C3  UNL     1      22.919   3.311  50.542  1.00  0.00     0.138 C 
BRANCH  12  13
HETATM   13  C4  UNL     1      22.852   2.456  49.327  1.00  0.00     0.051 A 
HETATM   14  C5  UNL     1      21.896   1.325  49.643  1.00  0.00    -0.014 A 
HETATM   15  C6  UNL     1      20.753   1.301  48.937  1.00  0.00     0.033 A 
HETATM   16  C7  UNL     1      20.862   2.458  48.058  1.00  0.00     0.062 A 
HETATM   17  C8  UNL     1      22.014   3.117  48.250  1.00  0.00     0.020 A 
BRANCH  16  18
HETATM   18  O1  UNL     1      19.678   2.482  47.282  1.00  0.00    -0.361 OA
HETATM   19  H10 UNL     1      19.185   1.616  47.045  1.00  0.00     0.217 HD
ENDBRANCH  16  18
ENDBRANCH  12  13
ENDBRANCH   1  12
BRANCH   1  20
HETATM   20  C9  UNL     1      25.156   4.074  50.389  1.00  0.00     0.066 A 
HETATM   21  C10 UNL     1      26.214   3.672  49.607  1.00  0.00     0.032 A 
HETATM   22  C11 UNL     1      26.976   4.590  48.923  1.00  0.00     0.004 A 
HETATM   23  C12 UNL     1      26.705   5.956  49.000  1.00  0.00     0.022 A 
HETATM   24  C13 UNL     1      25.653   6.367  49.772  1.00  0.00     0.046 A 
HETATM   25 BR1  UNL     1      25.380   8.260  49.788  1.00  0.00    -0.048 Br
HETATM   26  C14 UNL     1      24.866   5.446  50.477  1.00  0.00     0.109 A 
BRANCH  26  27
HETATM   27  O2  UNL     1      23.871   6.091  51.185  1.00  0.00    -0.357 OA
HETATM   28  H15 UNL     1      24.012   6.252  52.166  1.00  0.00     0.217 HD
ENDBRANCH  26  27
ENDBRANCH   1  20
TORSDOF 8
ENDMDL
MODEL 6
REMARK VINA RESULT:      -7.2      3.157      5.221
REMARK  8 active torsions:
REMARK  status: ('A' for Active; 'I' for Inactive)
REMARK    1  A    between atoms: C2_2  and  N1_3 
REMARK    2  A    between atoms: C2_2  and  N2_19 
REMARK    3  A    between atoms: N1_3  and  C3_4 
REMARK    4  A    between atoms: N1_3  and  C9_11 
REMARK    5  A    between atoms: C3_4  and  C4_5 
REMARK    6  A    between atoms: C7_8  and  O1_9 
REMARK    7  A    between atoms: C14_17  and  O2_18 
REMARK    8  A    between atoms: C19_24  and  S1_25 
ROOT
HETATM    1  N1  UNL     1      24.514   2.260  51.488  1.00  0.00    -0.356 N 
ENDROOT
BRANCH   1   2
HETATM    2  C2  UNL     1      23.167   1.893  51.893  1.00  0.00     0.183 C 
HETATM    3  C1  UNL     1      23.220   0.520  52.600  1.00  0.00     0.056 C 
BRANCH   2   4
HETATM    4  N2  UNL     1      22.208   1.863  50.819  1.00  0.00    -0.353 N 
HETATM    5  C15 UNL     1      22.673   1.755  49.456  1.00  0.00     0.089 A 
HETATM    6  C16 UNL     1      21.821   1.708  48.420  1.00  0.00     0.017 A 
HETATM    7  C17 UNL     1      20.402   1.765  48.710  1.00  0.00     0.000 A 
HETATM    8  C18 UNL     1      19.919   1.856  49.932  1.00  0.00     0.009 A 
HETATM    9  C19 UNL     1      20.770   1.905  51.127  1.00  0.00     0.168 A 
BRANCH   9  10
HETATM   10  S1  UNL     1      20.321   3.177  52.294  1.00  0.00    -0.153 SA
HETATM   11  H21 UNL     1      20.937   4.398  51.966  1.00  0.00     0.104 HD
ENDBRANCH   9  10
ENDBRANCH   2   4
ENDBRANCH   1   2
BRANCH   1  12
HETATM   12  C3  UNL     1      25.451   1.411  52.156  1.00  0.00     0.138 C 
BRANCH  12  13
HETATM   13  C4  UNL     1      26.253   2.014  53.253  1.00  0.00     0.051 A 
HETATM   14  C5  UNL     1      26.446   0.933  54.296  1.00  0.00    -0.014 A 
HETATM   15  C6  UNL     1      27.706   0.505  54.479  1.00  0.00     0.033 A 
HETATM   16  C7  UNL     1      28.485   1.300  53.539  1.00  0.00     0.062 A 
HETATM   17  C8  UNL     1      27.708   2.145  52.845  1.00  0.00     0.020 A 
BRANCH  16  18
HETATM   18  O1  UNL     1      29.832   0.891  53.691  1.00  0.00    -0.361 OA
HETATM   19  H10 UNL     1      30.600   1.465  53.331  1.00  0.00     0.217 HD
ENDBRANCH  16  18
ENDBRANCH  12  13
ENDBRANCH   1  12
BRANCH   1  20
HETATM   20  C9  UNL     1      25.158   3.247  50.688  1.00  0.00     0.066 A 
HETATM   21  C10 UNL     1      26.146   3.240  49.730  1.00  0.00     0.032 A 
HETATM   22  C11 UNL     1      26.546   4.406  49.121  1.00  0.00     0.004 A 
HETATM   23  C12 UNL     1      25.968   5.631  49.451  1.00  0.00     0.022 A 
HETATM   24  C13 UNL     1      24.982   5.649  50.399  1.00  0.00     0.046 A 
HETATM   25 BR1  UNL     1      24.264   7.385  50.757  1.00  0.00    -0.048 Br
HETATM   26  C14 UNL     1      24.561   4.471  51.032  1.00  0.00     0.109 A 
BRANCH  26  27
HETATM   27  O2  UNL     1      23.563   4.736  51.949  1.00  0.00    -0.357 OA
HETATM   28  H15 UNL     1      23.736   5.429  52.655  1.00  0.00     0.217 HD
ENDBRANCH  26  27
ENDBRANCH   1  20
TORSDOF 8
ENDMDL
MODEL 7
REMARK VINA RESULT:      -7.2      3.215      5.016
REMARK  8 active torsions:
REMARK  status: ('A' for Active; 'I' for Inactive)
REMARK    1  A    between atoms: C2_2  and  N1_3 
REMARK    2  A    between atoms: C2_2  and  N2_19 
REMARK    3  A    between atoms: N1_3  and  C3_4 
REMARK    4  A    between atoms: N1_3  and  C9_11 
REMARK    5  A    between atoms: C3_4  and  C4_5 
REMARK    6  A    between atoms: C7_8  and  O1_9 
REMARK    7  A    between atoms: C14_17  and  O2_18 
REMARK    8  A    between atoms: C19_24  and  S1_25 
ROOT
HETATM    1  N1  UNL     1      23.098   2.748  51.903  1.00  0.00    -0.356 N 
ENDROOT
BRANCH   1   2
HETATM    2  C2  UNL     1      23.986   3.894  52.016  1.00  0.00     0.183 C 
HETATM    3  C1  UNL     1      23.463   4.815  53.142  1.00  0.00     0.056 C 
BRANCH   2   4
HETATM    4  N2  UNL     1      24.152   4.643  50.797  1.00  0.00    -0.353 N 
HETATM    5  C15 UNL     1      23.022   5.345  50.237  1.00  0.00     0.089 A 
HETATM    6  C16 UNL     1      23.126   6.068  49.111  1.00  0.00     0.017 A 
HETATM    7  C17 UNL     1      24.423   6.130  48.466  1.00  0.00     0.000 A 
HETATM    8  C18 UNL     1      25.490   5.518  48.934  1.00  0.00     0.009 A 
HETATM    9  C19 UNL     1      25.477   4.711  50.161  1.00  0.00     0.168 A 
BRANCH   9  10
HETATM   10  S1  UNL     1      26.283   3.127  50.004  1.00  0.00    -0.153 SA
HETATM   11  H21 UNL     1      26.876   2.989  48.737  1.00  0.00     0.104 HD
ENDBRANCH   9  10
ENDBRANCH   2   4
ENDBRANCH   1   2
BRANCH   1  12
HETATM   12  C3  UNL     1      23.302   1.886  53.025  1.00  0.00     0.138 C 
BRANCH  12  13
HETATM   13  C4  UNL     1      23.904   0.552  52.759  1.00  0.00     0.051 A 
HETATM   14  C5  UNL     1      25.362   0.646  53.157  1.00  0.00    -0.014 A 
HETATM   15  C6  UNL     1      25.740  -0.108  54.202  1.00  0.00     0.033 A 
HETATM   16  C7  UNL     1      24.517  -0.793  54.599  1.00  0.00     0.062 A 
HETATM   17  C8  UNL     1      23.483  -0.448  53.818  1.00  0.00     0.020 A 
BRANCH  16  18
HETATM   18  O1  UNL     1      24.858  -1.610  55.704  1.00  0.00    -0.361 OA
HETATM   19  H10 UNL     1      24.135  -2.103  56.238  1.00  0.00     0.217 HD
ENDBRANCH  16  18
ENDBRANCH  12  13
ENDBRANCH   1  12
BRANCH   1  20
HETATM   20  C9  UNL     1      22.154   2.214  50.979  1.00  0.00     0.066 A 
HETATM   21  C10 UNL     1      22.227   1.483  49.816  1.00  0.00     0.032 A 
HETATM   22  C11 UNL     1      21.087   1.105  49.147  1.00  0.00     0.004 A 
HETATM   23  C12 UNL     1      19.822   1.449  49.621  1.00  0.00     0.022 A 
HETATM   24  C13 UNL     1      19.737   2.174  50.779  1.00  0.00     0.046 A 
HETATM   25 BR1  UNL     1      17.950   2.575  51.329  1.00  0.00    -0.048 Br
HETATM   26  C14 UNL     1      20.888   2.569  51.475  1.00  0.00     0.109 A 
BRANCH  26  27
HETATM   27  O2  UNL     1      20.556   3.289  52.605  1.00  0.00    -0.357 OA
HETATM   28  H15 UNL     1      19.916   4.056  52.511  1.00  0.00     0.217 HD
ENDBRANCH  26  27
ENDBRANCH   1  20
TORSDOF 8
ENDMDL
MODEL 8
REMARK VINA RESULT:      -7.0      2.898      5.133
REMARK  8 active torsions:
REMARK  status: ('A' for Active; 'I' for Inactive)
REMARK    1  A    between atoms: C2_2  and  N1_3 
REMARK    2  A    between atoms: C2_2  and  N2_19 
REMARK    3  A    between atoms: N1_3  and  C3_4 
REMARK    4  A    between atoms: N1_3  and  C9_11 
REMARK    5  A    between atoms: C3_4  and  C4_5 
REMARK    6  A    between atoms: C7_8  and  O1_9 
REMARK    7  A    between atoms: C14_17  and  O2_18 
REMARK    8  A    between atoms: C19_24  and  S1_25 
ROOT
HETATM    1  N1  UNL     1      23.805   2.319  51.395  1.00  0.00    -0.356 N 
ENDROOT
BRANCH   1   2
HETATM    2  C2  UNL     1      24.399   3.606  51.717  1.00  0.00     0.183 C 
HETATM    3  C1  UNL     1      23.666   4.195  52.944  1.00  0.00     0.056 C 
BRANCH   2   4
HETATM    4  N2  UNL     1      24.395   4.553  50.633  1.00  0.00    -0.353 N 
HETATM    5  C15 UNL     1      23.154   5.180  50.244  1.00  0.00     0.089 A 
HETATM    6  C16 UNL     1      23.098   6.079  49.249  1.00  0.00     0.017 A 
HETATM    7  C17 UNL     1      24.334   6.413  48.570  1.00  0.00     0.000 A 
HETATM    8  C18 UNL     1      25.497   5.880  48.887  1.00  0.00     0.009 A 
HETATM    9  C19 UNL     1      25.660   4.895  49.962  1.00  0.00     0.168 A 
BRANCH   9  10
HETATM   10  S1  UNL     1      26.643   3.476  49.514  1.00  0.00    -0.153 SA
HETATM   11  H21 UNL     1      25.889   2.563  48.757  1.00  0.00     0.104 HD
ENDBRANCH   9  10
ENDBRANCH   2   4
ENDBRANCH   1   2
BRANCH   1  12
HETATM   12  C3  UNL     1      24.691   1.277  51.811  1.00  0.00     0.138 C 
BRANCH  12  13
HETATM   13  C4  UNL     1      25.870   1.671  52.627  1.00  0.00     0.051 A 
HETATM   14  C5  UNL     1      25.606   1.182  54.036  1.00  0.00    -0.014 A 
HETATM   15  C6  UNL     1      26.423   0.218  54.491  1.00  0.00     0.033 A 
HETATM   16  C7  UNL     1      27.334  -0.022  53.379  1.00  0.00     0.062 A 
HETATM   17  C8  UNL     1      27.053   0.767  52.332  1.00  0.00     0.020 A 
BRANCH  16  18
HETATM   18  O1  UNL     1      28.225  -1.036  53.805  1.00  0.00    -0.361 OA
HETATM   19  H10 UNL     1      27.942  -2.021  53.807  1.00  0.00     0.217 HD
ENDBRANCH  16  18
ENDBRANCH  12  13
ENDBRANCH   1  12
BRANCH   1  20
HETATM   20  C9  UNL     1      22.649   1.810  50.735  1.00  0.00     0.066 A 
HETATM   21  C10 UNL     1      22.220   1.734  49.430  1.00  0.00     0.032 A 
HETATM   22  C11 UNL     1      21.014   1.152  49.117  1.00  0.00     0.004 A 
HETATM   23  C12 UNL     1      20.188   0.621  50.106  1.00  0.00     0.022 A 
HETATM   24  C13 UNL     1      20.606   0.687  51.407  1.00  0.00     0.046 A 
HETATM   25 BR1  UNL     1      19.391  -0.082  52.667  1.00  0.00    -0.048 Br
HETATM   26  C14 UNL     1      21.831   1.278  51.747  1.00  0.00     0.109 A 
BRANCH  26  27
HETATM   27  O2  UNL     1      22.037   1.232  53.111  1.00  0.00    -0.357 OA
HETATM   28  H15 UNL     1      22.085   2.098  53.616  1.00  0.00     0.217 HD
ENDBRANCH  26  27
ENDBRANCH   1  20
TORSDOF 8
ENDMDL
MODEL 9
REMARK VINA RESULT:      -6.9      3.133      5.357
REMARK  8 active torsions:
REMARK  status: ('A' for Active; 'I' for Inactive)
REMARK    1  A    between atoms: C2_2  and  N1_3 
REMARK    2  A    between atoms: C2_2  and  N2_19 
REMARK    3  A    between atoms: N1_3  and  C3_4 
REMARK    4  A    between atoms: N1_3  and  C9_11 
REMARK    5  A    between atoms: C3_4  and  C4_5 
REMARK    6  A    between atoms: C7_8  and  O1_9 
REMARK    7  A    between atoms: C14_17  and  O2_18 
REMARK    8  A    between atoms: C19_24  and  S1_25 
ROOT
HETATM    1  N1  UNL     1      23.785   3.160  51.094  1.00  0.00    -0.356 N 
ENDROOT
BRANCH   1   2
HETATM    2  C2  UNL     1      22.853   2.225  50.485  1.00  0.00     0.183 C 
HETATM    3  C1  UNL     1      22.919   2.393  48.949  1.00  0.00     0.056 C 
BRANCH   2   4
HETATM    4  N2  UNL     1      21.494   2.354  50.941  1.00  0.00    -0.353 N 
HETATM    5  C15 UNL     1      20.925   3.670  51.112  1.00  0.00     0.089 A 
HETATM    6  C16 UNL     1      19.659   3.845  51.523  1.00  0.00     0.017 A 
HETATM    7  C17 UNL     1      18.865   2.661  51.788  1.00  0.00     0.000 A 
HETATM    8  C18 UNL     1      19.327   1.436  51.642  1.00  0.00     0.009 A 
HETATM    9  C19 UNL     1      20.694   1.144  51.192  1.00  0.00     0.168 A 
BRANCH   9  10
HETATM   10  S1  UNL     1      21.539  -0.088  52.166  1.00  0.00    -0.153 SA
HETATM   11  H21 UNL     1      21.488  -1.345  51.538  1.00  0.00     0.104 HD
ENDBRANCH   9  10
ENDBRANCH   2   4
ENDBRANCH   1   2
BRANCH   1  12
HETATM   12  C3  UNL     1      24.429   2.525  52.201  1.00  0.00     0.138 C 
BRANCH  12  13
HETATM   13  C4  UNL     1      24.962   1.153  51.984  1.00  0.00     0.051 A 
HETATM   14  C5  UNL     1      26.456   1.295  51.783  1.00  0.00    -0.014 A 
HETATM   15  C6  UNL     1      27.235   0.751  52.733  1.00  0.00     0.033 A 
HETATM   16  C7  UNL     1      26.286   0.179  53.679  1.00  0.00     0.062 A 
HETATM   17  C8  UNL     1      25.018   0.386  53.291  1.00  0.00     0.020 A 
BRANCH  16  18
HETATM   18  O1  UNL     1      27.055  -0.415  54.708  1.00  0.00    -0.361 OA
HETATM   19  H10 UNL     1      26.721  -0.426  55.676  1.00  0.00     0.217 HD
ENDBRANCH  16  18
ENDBRANCH  12  13
ENDBRANCH   1  12
BRANCH   1  20
HETATM   20  C9  UNL     1      24.181   4.521  50.952  1.00  0.00     0.066 A 
HETATM   21  C10 UNL     1      23.761   5.723  51.473  1.00  0.00     0.032 A 
HETATM   22  C11 UNL     1      24.385   6.899  51.126  1.00  0.00     0.004 A 
HETATM   23  C12 UNL     1      25.459   6.914  50.238  1.00  0.00     0.022 A 
HETATM   24  C13 UNL     1      25.888   5.724  49.717  1.00  0.00     0.046 A 
HETATM   25 BR1  UNL     1      27.372   5.876  48.520  1.00  0.00    -0.048 Br
HETATM   26  C14 UNL     1      25.264   4.515  50.057  1.00  0.00     0.109 A 
BRANCH  26  27
HETATM   27  O2  UNL     1      25.864   3.454  49.409  1.00  0.00    -0.357 OA
HETATM   28  H15 UNL     1      26.722   3.091  49.782  1.00  0.00     0.217 HD
ENDBRANCH  26  27
ENDBRANCH   1  20
TORSDOF 8
ENDMDL
