MODEL 1
REMARK VINA RESULT:      -7.8      0.000      0.000
REMARK  5 active torsions:
REMARK  status: ('A' for Active; 'I' for Inactive)
REMARK    1  A    between atoms: N1_2  and  C2_3 
REMARK    2  A    between atoms: C2_3  and  N2_4 
REMARK    3  A    between atoms: N2_4  and  C3_5 
REMARK    4  A    between atoms: C3_5  and  C4_6 
REMARK    5  A    between atoms: C13_17  and  C14_18 
ROOT
HETATM    1  C2  UNL     1      23.477   3.457  51.877  1.00  0.00     0.169 C 
HETATM    2  C10 UNL     1      24.194   2.472  52.435  1.00  0.00     0.171 C 
HETATM    3  N3  UNL     1      23.609   1.185  52.594  1.00  0.00    -0.215 NA
HETATM    4  C11 UNL     1      23.993   0.187  53.311  1.00  0.00     0.261 C 
HETATM    5  O1  UNL     1      25.147   0.247  54.100  1.00  0.00    -0.307 OA
HETATM    6  C12 UNL     1      26.419   0.758  53.865  1.00  0.00     0.073 C 
HETATM    7  C13 UNL     1      27.474   0.059  54.253  1.00  0.00     0.053 C 
HETATM    8  C17 UNL     1      26.710   2.037  53.208  1.00  0.00     0.186 C 
HETATM    9  N4  UNL     1      25.523   2.778  52.841  1.00  0.00    -0.365 N 
HETATM   10  H19 UNL     1      25.631   3.842  52.866  1.00  0.00     0.161 HD
ENDROOT
BRANCH   1  11
HETATM   11  N1  UNL     1      22.148   3.178  51.462  1.00  0.00    -0.251 NA
HETATM   12  C1  UNL     1      21.146   3.708  52.066  1.00  0.00     0.151 C 
ENDBRANCH   1  11
BRANCH   1  13
HETATM   13  N2  UNL     1      24.090   4.716  51.736  1.00  0.00    -0.367 N 
HETATM   14  H3  UNL     1      24.668   5.028  52.571  1.00  0.00     0.161 HD
BRANCH  13  15
HETATM   15  C3  UNL     1      23.948   5.542  50.532  1.00  0.00     0.160 C 
BRANCH  15  16
HETATM   16  C4  UNL     1      25.274   5.534  49.820  1.00  0.00    -0.041 A 
HETATM   17  C5  UNL     1      25.962   4.345  49.635  1.00  0.00     0.009 A 
HETATM   18  C6  UNL     1      27.167   4.196  49.011  1.00  0.00     0.001 A 
HETATM   19  C7  UNL     1      27.731   5.349  48.526  1.00  0.00     0.000 A 
HETATM   20  C8  UNL     1      27.108   6.572  48.670  1.00  0.00     0.001 A 
HETATM   21  C9  UNL     1      25.885   6.671  49.313  1.00  0.00     0.009 A 
ENDBRANCH  15  16
ENDBRANCH  13  15
ENDBRANCH   1  13
BRANCH   7  22
HETATM   22  C14 UNL     1      28.905   0.315  54.155  1.00  0.00     0.009 C 
HETATM   23 BR1  UNL     1      29.799   1.951  54.650  1.00  0.00    -0.051 Br
HETATM   24  C15 UNL     1      29.730  -0.609  53.688  1.00  0.00    -0.012 C 
HETATM   25  C16 UNL     1      29.186  -1.927  53.261  1.00  0.00     0.037 C 
ENDBRANCH   7  22
TORSDOF 5
ENDMDL
MODEL 2
REMARK VINA RESULT:      -7.8      2.433      6.414
REMARK  5 active torsions:
REMARK  status: ('A' for Active; 'I' for Inactive)
REMARK    1  A    between atoms: N1_2  and  C2_3 
REMARK    2  A    between atoms: C2_3  and  N2_4 
REMARK    3  A    between atoms: N2_4  and  C3_5 
REMARK    4  A    between atoms: C3_5  and  C4_6 
REMARK    5  A    between atoms: C13_17  and  C14_18 
ROOT
HETATM    1  C2  UNL     1      23.900   0.076  52.968  1.00  0.00     0.169 C 
HETATM    2  C10 UNL     1      23.798   1.050  52.054  1.00  0.00     0.171 C 
HETATM    3  N3  UNL     1      22.528   1.344  51.484  1.00  0.00    -0.215 NA
HETATM    4  C11 UNL     1      22.233   2.033  50.437  1.00  0.00     0.261 C 
HETATM    5  O1  UNL     1      23.221   2.641  49.652  1.00  0.00    -0.307 OA
HETATM    6  C12 UNL     1      24.372   3.349  49.976  1.00  0.00     0.073 C 
HETATM    7  C13 UNL     1      24.659   4.451  49.301  1.00  0.00     0.053 C 
HETATM    8  C17 UNL     1      25.327   2.979  51.025  1.00  0.00     0.186 C 
HETATM    9  N4  UNL     1      24.988   1.746  51.703  1.00  0.00    -0.365 N 
HETATM   10  H19 UNL     1      25.825   1.179  52.052  1.00  0.00     0.161 HD
ENDROOT
BRANCH   1  11
HETATM   11  N1  UNL     1      22.726  -0.634  53.336  1.00  0.00    -0.251 NA
HETATM   12  C1  UNL     1      22.393  -0.757  54.571  1.00  0.00     0.151 C 
ENDBRANCH   1  11
BRANCH   1  13
HETATM   13  N2  UNL     1      25.172  -0.186  53.510  1.00  0.00    -0.367 N 
HETATM   14  H3  UNL     1      25.468   0.471  54.291  1.00  0.00     0.161 HD
BRANCH  13  15
HETATM   15  C3  UNL     1      26.031  -1.277  53.039  1.00  0.00     0.160 C 
BRANCH  15  16
HETATM   16  C4  UNL     1      27.459  -0.842  53.230  1.00  0.00    -0.041 A 
HETATM   17  C5  UNL     1      27.761   0.491  53.460  1.00  0.00     0.009 A 
HETATM   18  C6  UNL     1      29.005   1.019  53.648  1.00  0.00     0.001 A 
HETATM   19  C7  UNL     1      30.043   0.123  53.602  1.00  0.00     0.000 A 
HETATM   20  C8  UNL     1      29.826  -1.221  53.377  1.00  0.00     0.001 A 
HETATM   21  C9  UNL     1      28.542  -1.707  53.191  1.00  0.00     0.009 A 
ENDBRANCH  15  16
ENDBRANCH  13  15
ENDBRANCH   1  13
BRANCH   7  22
HETATM   22  C14 UNL     1      25.766   5.395  49.398  1.00  0.00     0.009 C 
HETATM   23 BR1  UNL     1      27.537   5.140  48.677  1.00  0.00    -0.051 Br
HETATM   24  C15 UNL     1      25.620   6.551  50.025  1.00  0.00    -0.012 C 
HETATM   25  C16 UNL     1      24.306   6.891  50.639  1.00  0.00     0.037 C 
ENDBRANCH   7  22
TORSDOF 5
ENDMDL
MODEL 3
REMARK VINA RESULT:      -7.6      3.546      6.158
REMARK  5 active torsions:
REMARK  status: ('A' for Active; 'I' for Inactive)
REMARK    1  A    between atoms: N1_2  and  C2_3 
REMARK    2  A    between atoms: C2_3  and  N2_4 
REMARK    3  A    between atoms: N2_4  and  C3_5 
REMARK    4  A    between atoms: C3_5  and  C4_6 
REMARK    5  A    between atoms: C13_17  and  C14_18 
ROOT
HETATM    1  C2  UNL     1      26.427  -0.115  53.902  1.00  0.00     0.169 C 
HETATM    2  C10 UNL     1      25.173  -0.460  54.227  1.00  0.00     0.171 C 
HETATM    3  N3  UNL     1      24.910  -1.002  55.515  1.00  0.00    -0.215 NA
HETATM    4  C11 UNL     1      23.871  -1.628  55.951  1.00  0.00     0.261 C 
HETATM    5  O1  UNL     1      22.764  -1.875  55.132  1.00  0.00    -0.307 OA
HETATM    6  C12 UNL     1      22.086  -1.089  54.208  1.00  0.00     0.073 C 
HETATM    7  C13 UNL     1      20.762  -1.110  54.195  1.00  0.00     0.053 C 
HETATM    8  C17 UNL     1      22.718  -0.214  53.215  1.00  0.00     0.186 C 
HETATM    9  N4  UNL     1      24.164  -0.259  53.245  1.00  0.00    -0.365 N 
HETATM   10  H19 UNL     1      24.639  -0.103  52.300  1.00  0.00     0.161 HD
ENDROOT
BRANCH   1  11
HETATM   11  N1  UNL     1      27.454  -0.304  54.864  1.00  0.00    -0.251 NA
HETATM   12  C1  UNL     1      28.691  -0.248  54.524  1.00  0.00     0.151 C 
ENDBRANCH   1  11
BRANCH   1  13
HETATM   13  N2  UNL     1      26.649   0.419  52.619  1.00  0.00    -0.367 N 
HETATM   14  H3  UNL     1      26.501  -0.265  51.819  1.00  0.00     0.161 HD
BRANCH  13  15
HETATM   15  C3  UNL     1      27.054   1.810  52.392  1.00  0.00     0.160 C 
BRANCH  15  16
HETATM   16  C4  UNL     1      26.098   2.403  51.392  1.00  0.00    -0.041 A 
HETATM   17  C5  UNL     1      26.577   3.049  50.263  1.00  0.00     0.009 A 
HETATM   18  C6  UNL     1      25.826   3.628  49.282  1.00  0.00     0.001 A 
HETATM   19  C7  UNL     1      24.467   3.550  49.451  1.00  0.00     0.000 A 
HETATM   20  C8  UNL     1      23.911   2.923  50.548  1.00  0.00     0.001 A 
HETATM   21  C9  UNL     1      24.718   2.350  51.518  1.00  0.00     0.009 A 
ENDBRANCH  15  16
ENDBRANCH  13  15
ENDBRANCH   1  13
BRANCH   7  22
HETATM   22  C14 UNL     1      19.783  -0.416  53.368  1.00  0.00     0.009 C 
HETATM   23 BR1  UNL     1      20.017   1.313  52.546  1.00  0.00    -0.051 Br
HETATM   24  C15 UNL     1      18.601  -0.956  53.117  1.00  0.00    -0.012 C 
HETATM   25  C16 UNL     1      18.270  -2.292  53.686  1.00  0.00     0.037 C 
ENDBRANCH   7  22
TORSDOF 5
ENDMDL
MODEL 4
REMARK VINA RESULT:      -7.4      3.410      7.540
REMARK  5 active torsions:
REMARK  status: ('A' for Active; 'I' for Inactive)
REMARK    1  A    between atoms: N1_2  and  C2_3 
REMARK    2  A    between atoms: C2_3  and  N2_4 
REMARK    3  A    between atoms: N2_4  and  C3_5 
REMARK    4  A    between atoms: C3_5  and  C4_6 
REMARK    5  A    between atoms: C13_17  and  C14_18 
ROOT
HETATM    1  C2  UNL     1      26.861   1.860  52.933  1.00  0.00     0.169 C 
HETATM    2  C10 UNL     1      26.219   2.459  51.921  1.00  0.00     0.171 C 
HETATM    3  N3  UNL     1      26.970   3.009  50.845  1.00  0.00    -0.215 NA
HETATM    4  C11 UNL     1      26.610   3.831  49.923  1.00  0.00     0.261 C 
HETATM    5  O1  UNL     1      25.307   4.337  49.855  1.00  0.00    -0.307 OA
HETATM    6  C12 UNL     1      24.060   3.743  50.018  1.00  0.00     0.073 C 
HETATM    7  C13 UNL     1      23.086   4.051  49.176  1.00  0.00     0.053 C 
HETATM    8  C17 UNL     1      23.712   2.780  51.069  1.00  0.00     0.186 C 
HETATM    9  N4  UNL     1      24.799   2.511  51.985  1.00  0.00    -0.365 N 
HETATM   10  H19 UNL     1      24.498   2.282  52.985  1.00  0.00     0.161 HD
ENDROOT
BRANCH   1  11
HETATM   11  N1  UNL     1      28.279   1.794  52.894  1.00  0.00    -0.251 NA
HETATM   12  C1  UNL     1      28.987   2.316  53.830  1.00  0.00     0.151 C 
ENDBRANCH   1  11
BRANCH   1  13
HETATM   13  N2  UNL     1      26.084   1.328  53.980  1.00  0.00    -0.367 N 
HETATM   14  H3  UNL     1      25.477   2.035  54.489  1.00  0.00     0.161 HD
BRANCH  13  15
HETATM   15  C3  UNL     1      26.106  -0.092  54.347  1.00  0.00     0.160 C 
BRANCH  15  16
HETATM   16  C4  UNL     1      24.679  -0.571  54.382  1.00  0.00    -0.041 A 
HETATM   17  C5  UNL     1      23.874  -0.455  53.260  1.00  0.00     0.009 A 
HETATM   18  C6  UNL     1      22.570  -0.846  53.156  1.00  0.00     0.001 A 
HETATM   19  C7  UNL     1      22.027  -1.407  54.284  1.00  0.00     0.000 A 
HETATM   20  C8  UNL     1      22.764  -1.558  55.441  1.00  0.00     0.001 A 
HETATM   21  C9  UNL     1      24.084  -1.144  55.496  1.00  0.00     0.009 A 
ENDBRANCH  15  16
ENDBRANCH  13  15
ENDBRANCH   1  13
BRANCH   7  22
HETATM   22  C14 UNL     1      21.700   3.609  49.083  1.00  0.00     0.009 C 
HETATM   23 BR1  UNL     1      20.208   4.356  50.050  1.00  0.00    -0.051 Br
HETATM   24  C15 UNL     1      21.358   2.609  48.287  1.00  0.00    -0.012 C 
HETATM   25  C16 UNL     1      22.404   1.928  47.476  1.00  0.00     0.037 C 
ENDBRANCH   7  22
TORSDOF 5
ENDMDL
MODEL 5
REMARK VINA RESULT:      -7.3      1.611      2.047
REMARK  5 active torsions:
REMARK  status: ('A' for Active; 'I' for Inactive)
REMARK    1  A    between atoms: N1_2  and  C2_3 
REMARK    2  A    between atoms: C2_3  and  N2_4 
REMARK    3  A    between atoms: N2_4  and  C3_5 
REMARK    4  A    between atoms: C3_5  and  C4_6 
REMARK    5  A    between atoms: C13_17  and  C14_18 
ROOT
HETATM    1  C2  UNL     1      23.286   3.547  49.726  1.00  0.00     0.169 C 
HETATM    2  C10 UNL     1      23.682   2.746  50.725  1.00  0.00     0.171 C 
HETATM    3  N3  UNL     1      22.709   2.014  51.461  1.00  0.00    -0.215 NA
HETATM    4  C11 UNL     1      22.816   1.403  52.589  1.00  0.00     0.261 C 
HETATM    5  O1  UNL     1      24.020   1.379  53.302  1.00  0.00    -0.307 OA
HETATM    6  C12 UNL     1      25.340   1.194  52.909  1.00  0.00     0.073 C 
HETATM    7  C13 UNL     1      26.124   0.414  53.637  1.00  0.00     0.053 C 
HETATM    8  C17 UNL     1      25.965   1.800  51.729  1.00  0.00     0.186 C 
HETATM    9  N4  UNL     1      25.077   2.674  50.992  1.00  0.00    -0.365 N 
HETATM   10  H19 UNL     1      25.556   3.495  50.503  1.00  0.00     0.161 HD
ENDROOT
BRANCH   1  11
HETATM   11  N1  UNL     1      21.898   3.636  49.437  1.00  0.00    -0.251 NA
HETATM   12  C1  UNL     1      21.212   4.655  49.814  1.00  0.00     0.151 C 
ENDBRANCH   1  11
BRANCH   1  13
HETATM   13  N2  UNL     1      24.276   4.255  49.020  1.00  0.00    -0.367 N 
HETATM   14  H3  UNL     1      24.728   3.716  48.223  1.00  0.00     0.161 HD
BRANCH  13  15
HETATM   15  C3  UNL     1      24.664   5.629  49.352  1.00  0.00     0.160 C 
BRANCH  15  16
HETATM   16  C4  UNL     1      26.073   5.832  48.863  1.00  0.00    -0.041 A 
HETATM   17  C5  UNL     1      26.458   7.049  48.321  1.00  0.00     0.009 A 
HETATM   18  C6  UNL     1      27.695   7.367  47.842  1.00  0.00     0.001 A 
HETATM   19  C7  UNL     1      28.634   6.369  47.915  1.00  0.00     0.000 A 
HETATM   20  C8  UNL     1      28.330   5.130  48.441  1.00  0.00     0.001 A 
HETATM   21  C9  UNL     1      27.057   4.857  48.915  1.00  0.00     0.009 A 
ENDBRANCH  15  16
ENDBRANCH  13  15
ENDBRANCH   1  13
BRANCH   7  22
HETATM   22  C14 UNL     1      27.523   0.029  53.493  1.00  0.00     0.009 C 
HETATM   23 BR1  UNL     1      29.047   1.071  54.050  1.00  0.00    -0.051 Br
HETATM   24  C15 UNL     1      27.856  -1.125  52.936  1.00  0.00    -0.012 C 
HETATM   25  C16 UNL     1      26.785  -2.040  52.451  1.00  0.00     0.037 C 
ENDBRANCH   7  22
TORSDOF 5
ENDMDL
MODEL 6
REMARK VINA RESULT:      -7.3      3.345      7.711
REMARK  5 active torsions:
REMARK  status: ('A' for Active; 'I' for Inactive)
REMARK    1  A    between atoms: N1_2  and  C2_3 
REMARK    2  A    between atoms: C2_3  and  N2_4 
REMARK    3  A    between atoms: N2_4  and  C3_5 
REMARK    4  A    between atoms: C3_5  and  C4_6 
REMARK    5  A    between atoms: C13_17  and  C14_18 
ROOT
HETATM    1  C2  UNL     1      26.708   1.978  52.673  1.00  0.00     0.169 C 
HETATM    2  C10 UNL     1      26.129   2.573  51.621  1.00  0.00     0.171 C 
HETATM    3  N3  UNL     1      26.943   3.076  50.567  1.00  0.00    -0.215 NA
HETATM    4  C11 UNL     1      26.647   3.887  49.612  1.00  0.00     0.261 C 
HETATM    5  O1  UNL     1      25.364   4.429  49.477  1.00  0.00    -0.307 OA
HETATM    6  C12 UNL     1      24.094   3.876  49.598  1.00  0.00     0.073 C 
HETATM    7  C13 UNL     1      23.167   4.193  48.708  1.00  0.00     0.053 C 
HETATM    8  C17 UNL     1      23.673   2.948  50.653  1.00  0.00     0.186 C 
HETATM    9  N4  UNL     1      24.710   2.667  51.621  1.00  0.00    -0.365 N 
HETATM   10  H19 UNL     1      24.360   2.470  52.612  1.00  0.00     0.161 HD
ENDROOT
BRANCH   1  11
HETATM   11  N1  UNL     1      28.125   1.870  52.697  1.00  0.00    -0.251 NA
HETATM   12  C1  UNL     1      28.801   2.325  53.689  1.00  0.00     0.151 C 
ENDBRANCH   1  11
BRANCH   1  13
HETATM   13  N2  UNL     1      25.872   1.493  53.695  1.00  0.00    -0.367 N 
HETATM   14  H3  UNL     1      25.237   2.221  54.136  1.00  0.00     0.161 HD
BRANCH  13  15
HETATM   15  C3  UNL     1      25.869   0.091  54.126  1.00  0.00     0.160 C 
BRANCH  15  16
HETATM   16  C4  UNL     1      24.444  -0.392  54.085  1.00  0.00    -0.041 A 
HETATM   17  C5  UNL     1      23.898  -1.055  55.173  1.00  0.00     0.009 A 
HETATM   18  C6  UNL     1      22.628  -1.544  55.269  1.00  0.00     0.001 A 
HETATM   19  C7  UNL     1      21.832  -1.346  54.169  1.00  0.00     0.000 A 
HETATM   20  C8  UNL     1      22.301  -0.695  53.046  1.00  0.00     0.001 A 
HETATM   21  C9  UNL     1      23.600  -0.218  52.999  1.00  0.00     0.009 A 
ENDBRANCH  15  16
ENDBRANCH  13  15
ENDBRANCH   1  13
BRANCH   7  22
HETATM   22  C14 UNL     1      21.774   3.791  48.564  1.00  0.00     0.009 C 
HETATM   23 BR1  UNL     1      21.148   2.030  48.086  1.00  0.00    -0.051 Br
HETATM   24  C15 UNL     1      20.793   4.658  48.759  1.00  0.00    -0.012 C 
HETATM   25  C16 UNL     1      21.120   6.062  49.131  1.00  0.00     0.037 C 
ENDBRANCH   7  22
TORSDOF 5
ENDMDL
MODEL 7
REMARK VINA RESULT:      -7.0      3.067      5.630
REMARK  5 active torsions:
REMARK  status: ('A' for Active; 'I' for Inactive)
REMARK    1  A    between atoms: N1_2  and  C2_3 
REMARK    2  A    between atoms: C2_3  and  N2_4 
REMARK    3  A    between atoms: N2_4  and  C3_5 
REMARK    4  A    between atoms: C3_5  and  C4_6 
REMARK    5  A    between atoms: C13_17  and  C14_18 
ROOT
HETATM    1  C2  UNL     1      26.128   2.064  52.060  1.00  0.00     0.169 C 
HETATM    2  C10 UNL     1      24.930   1.503  52.274  1.00  0.00     0.171 C 
HETATM    3  N3  UNL     1      24.821   0.412  53.180  1.00  0.00    -0.215 NA
HETATM    4  C11 UNL     1      23.859  -0.429  53.347  1.00  0.00     0.261 C 
HETATM    5  O1  UNL     1      22.687  -0.368  52.586  1.00  0.00    -0.307 OA
HETATM    6  C12 UNL     1      21.886   0.692  52.180  1.00  0.00     0.073 C 
HETATM    7  C13 UNL     1      20.570   0.568  52.250  1.00  0.00     0.053 C 
HETATM    8  C17 UNL     1      22.376   1.975  51.664  1.00  0.00     0.186 C 
HETATM    9  N4  UNL     1      23.818   2.043  51.569  1.00  0.00    -0.365 N 
HETATM   10  H19 UNL     1      24.189   2.654  50.773  1.00  0.00     0.161 HD
ENDROOT
BRANCH   1  11
HETATM   11  N1  UNL     1      27.254   1.544  52.752  1.00  0.00    -0.251 NA
HETATM   12  C1  UNL     1      28.071   2.328  53.358  1.00  0.00     0.151 C 
ENDBRANCH   1  11
BRANCH   1  13
HETATM   13  N2  UNL     1      26.196   3.142  51.157  1.00  0.00    -0.367 N 
HETATM   14  H3  UNL     1      25.874   4.075  51.550  1.00  0.00     0.161 HD
BRANCH  13  15
HETATM   15  C3  UNL     1      26.673   2.998  49.778  1.00  0.00     0.160 C 
BRANCH  15  16
HETATM   16  C4  UNL     1      26.757   4.378  49.183  1.00  0.00    -0.041 A 
HETATM   17  C5  UNL     1      25.635   5.191  49.138  1.00  0.00     0.009 A 
HETATM   18  C6  UNL     1      25.572   6.455  48.629  1.00  0.00     0.001 A 
HETATM   19  C7  UNL     1      26.745   6.949  48.118  1.00  0.00     0.000 A 
HETATM   20  C8  UNL     1      27.906   6.201  48.125  1.00  0.00     0.001 A 
HETATM   21  C9  UNL     1      27.918   4.921  48.654  1.00  0.00     0.009 A 
ENDBRANCH  15  16
ENDBRANCH  13  15
ENDBRANCH   1  13
BRANCH   7  22
HETATM   22  C14 UNL     1      19.483   1.477  51.908  1.00  0.00     0.009 C 
HETATM   23 BR1  UNL     1      19.596   3.401  51.840  1.00  0.00    -0.051 Br
HETATM   24  C15 UNL     1      18.279   1.015  51.610  1.00  0.00    -0.012 C 
HETATM   25  C16 UNL     1      18.035  -0.454  51.623  1.00  0.00     0.037 C 
ENDBRANCH   7  22
TORSDOF 5
ENDMDL
MODEL 8
REMARK VINA RESULT:      -6.9      2.747      6.952
REMARK  5 active torsions:
REMARK  status: ('A' for Active; 'I' for Inactive)
REMARK    1  A    between atoms: N1_2  and  C2_3 
REMARK    2  A    between atoms: C2_3  and  N2_4 
REMARK    3  A    between atoms: N2_4  and  C3_5 
REMARK    4  A    between atoms: C3_5  and  C4_6 
REMARK    5  A    between atoms: C13_17  and  C14_18 
ROOT
HETATM    1  C2  UNL     1      24.703   2.030  51.378  1.00  0.00     0.169 C 
HETATM    2  C10 UNL     1      24.758   3.170  50.676  1.00  0.00     0.171 C 
HETATM    3  N3  UNL     1      23.556   3.877  50.395  1.00  0.00    -0.215 NA
HETATM    4  C11 UNL     1      23.333   4.822  49.548  1.00  0.00     0.261 C 
HETATM    5  O1  UNL     1      24.343   5.321  48.719  1.00  0.00    -0.307 OA
HETATM    6  C12 UNL     1      25.675   5.644  48.952  1.00  0.00     0.073 C 
HETATM    7  C13 UNL     1      26.166   6.759  48.436  1.00  0.00     0.053 C 
HETATM    8  C17 UNL     1      26.616   4.840  49.740  1.00  0.00     0.186 C 
HETATM    9  N4  UNL     1      26.040   3.613  50.247  1.00  0.00    -0.365 N 
HETATM   10  H19 UNL     1      26.727   2.799  50.342  1.00  0.00     0.161 HD
ENDROOT
BRANCH   1  11
HETATM   11  N1  UNL     1      23.435   1.566  51.820  1.00  0.00    -0.251 NA
HETATM   12  C1  UNL     1      23.345   0.574  52.631  1.00  0.00     0.151 C 
ENDBRANCH   1  11
BRANCH   1  13
HETATM   13  N2  UNL     1      25.912   1.359  51.637  1.00  0.00    -0.367 N 
HETATM   14  H3  UNL     1      26.297   0.800  50.819  1.00  0.00     0.161 HD
BRANCH  13  15
HETATM   15  C3  UNL     1      26.596   1.420  52.932  1.00  0.00     0.160 C 
BRANCH  15  16
HETATM   16  C4  UNL     1      27.465   0.195  53.043  1.00  0.00    -0.041 A 
HETATM   17  C5  UNL     1      28.765   0.299  53.513  1.00  0.00     0.009 A 
HETATM   18  C6  UNL     1      29.656  -0.724  53.662  1.00  0.00     0.001 A 
HETATM   19  C7  UNL     1      29.197  -1.967  53.306  1.00  0.00     0.000 A 
HETATM   20  C8  UNL     1      27.915  -2.153  52.829  1.00  0.00     0.001 A 
HETATM   21  C9  UNL     1      27.049  -1.081  52.696  1.00  0.00     0.009 A 
ENDBRANCH  15  16
ENDBRANCH  13  15
ENDBRANCH   1  13
BRANCH   7  22
HETATM   22  C14 UNL     1      27.492   7.363  48.497  1.00  0.00     0.009 C 
HETATM   23 BR1  UNL     1      29.057   6.756  47.547  1.00  0.00    -0.051 Br
HETATM   24  C15 UNL     1      27.721   8.425  49.254  1.00  0.00    -0.012 C 
HETATM   25  C16 UNL     1      26.607   9.009  50.051  1.00  0.00     0.037 C 
ENDBRANCH   7  22
TORSDOF 5
ENDMDL
MODEL 9
REMARK VINA RESULT:      -6.8      5.536      8.143
REMARK  5 active torsions:
REMARK  status: ('A' for Active; 'I' for Inactive)
REMARK    1  A    between atoms: N1_2  and  C2_3 
REMARK    2  A    between atoms: C2_3  and  N2_4 
REMARK    3  A    between atoms: N2_4  and  C3_5 
REMARK    4  A    between atoms: C3_5  and  C4_6 
REMARK    5  A    between atoms: C13_17  and  C14_18 
ROOT
HETATM    1  C2  UNL     1      28.356   7.904  48.669  1.00  0.00     0.169 C 
HETATM    2  C10 UNL     1      29.580   7.668  48.178  1.00  0.00     0.171 C 
HETATM    3  N3  UNL     1      30.352   8.752  47.676  1.00  0.00    -0.215 NA
HETATM    4  C11 UNL     1      31.411   8.742  46.943  1.00  0.00     0.261 C 
HETATM    5  O1  UNL     1      31.992   7.546  46.506  1.00  0.00    -0.307 OA
HETATM    6  C12 UNL     1      32.241   6.336  47.143  1.00  0.00     0.073 C 
HETATM    7  C13 UNL     1      33.403   5.733  46.945  1.00  0.00     0.053 C 
HETATM    8  C17 UNL     1      31.310   5.643  48.039  1.00  0.00     0.186 C 
HETATM    9  N4  UNL     1      30.042   6.323  48.189  1.00  0.00    -0.365 N 
HETATM   10  H19 UNL     1      29.203   5.680  48.355  1.00  0.00     0.161 HD
ENDROOT
BRANCH   1  11
HETATM   11  N1  UNL     1      27.871   9.240  48.671  1.00  0.00    -0.251 NA
HETATM   12  C1  UNL     1      27.294   9.727  49.710  1.00  0.00     0.151 C 
ENDBRANCH   1  11
BRANCH   1  13
HETATM   13  N2  UNL     1      27.622   6.807  49.157  1.00  0.00    -0.367 N 
HETATM   14  H3  UNL     1      27.989   6.391  50.063  1.00  0.00     0.161 HD
BRANCH  13  15
HETATM   15  C3  UNL     1      26.440   6.271  48.474  1.00  0.00     0.160 C 
BRANCH  15  16
HETATM   16  C4  UNL     1      25.957   5.087  49.269  1.00  0.00    -0.041 A 
HETATM   17  C5  UNL     1      26.789   3.998  49.478  1.00  0.00     0.009 A 
HETATM   18  C6  UNL     1      26.480   2.866  50.174  1.00  0.00     0.001 A 
HETATM   19  C7  UNL     1      25.218   2.825  50.711  1.00  0.00     0.000 A 
HETATM   20  C8  UNL     1      24.331   3.870  50.548  1.00  0.00     0.001 A 
HETATM   21  C9  UNL     1      24.693   4.998  49.831  1.00  0.00     0.009 A 
ENDBRANCH  15  16
ENDBRANCH  13  15
ENDBRANCH   1  13
BRANCH   7  22
HETATM   22  C14 UNL     1      33.955   4.485  47.457  1.00  0.00     0.009 C 
HETATM   23 BR1  UNL     1      33.420   2.710  46.926  1.00  0.00    -0.051 Br
HETATM   24  C15 UNL     1      34.911   4.489  48.373  1.00  0.00    -0.012 C 
HETATM   25  C16 UNL     1      35.428   5.788  48.885  1.00  0.00     0.037 C 
ENDBRANCH   7  22
TORSDOF 5
ENDMDL
