MODEL 1
REMARK VINA RESULT:      -8.8      0.000      0.000
REMARK  6 active torsions:
REMARK  status: ('A' for Active; 'I' for Inactive)
REMARK    1  A    between atoms: C2_2  and  N1_3 
REMARK    2  A    between atoms: N1_3  and  S1_4 
REMARK    3  A    between atoms: S1_4  and  C3_5 
REMARK    4  A    between atoms: C5_7  and  O1_8 
REMARK    5  A    between atoms: O1_8  and  C6_9 
REMARK    6  A    between atoms: C6_9  and  C7_10 
ROOT
HETATM    1  C3  UNL     1      25.676   5.433  49.060  1.00  0.00     0.025 C 
HETATM    2  C4  UNL     1      25.859   4.321  49.798  1.00  0.00     0.057 C 
HETATM    3  C5  UNL     1      24.973   3.229  50.281  1.00  0.00     0.076 C 
HETATM    4  C13 UNL     1      23.768   2.839  49.826  1.00  0.00     0.004 C 
HETATM    5  C14 UNL     1      23.447   2.011  51.031  1.00  0.00     0.119 C 
HETATM    6  C15 UNL     1      21.931   1.932  51.057  1.00  0.00     0.105 C 
HETATM    7  N2  UNL     1      21.282   1.288  50.150  1.00  0.00    -0.229 NA
HETATM    8  C16 UNL     1      21.611   1.182  48.737  1.00  0.00     0.231 C 
HETATM    9  N3  UNL     1      22.220   2.123  48.037  1.00  0.00    -0.252 NA
HETATM   10  C17 UNL     1      23.003   3.166  48.548  1.00  0.00     0.242 C 
HETATM   11  N4  UNL     1      22.423   4.484  48.743  1.00  0.00    -0.359 N 
HETATM   12  C18 UNL     1      23.135   5.756  48.509  1.00  0.00     0.090 C 
HETATM   13  C19 UNL     1      24.443   6.114  48.581  1.00  0.00     0.037 C 
HETATM   14  C20 UNL     1      21.179   4.984  49.208  1.00  0.00     0.087 A 
HETATM   15  C21 UNL     1      19.940   4.250  49.255  1.00  0.00     0.031 A 
HETATM   16  C22 UNL     1      19.848   4.368  50.780  1.00  0.00     0.007 A 
HETATM   17  C23 UNL     1      19.749   3.102  51.515  1.00  0.00     0.125 C 
HETATM   18  N5  UNL     1      20.971   2.491  51.991  1.00  0.00    -0.378 N 
HETATM   19  C24 UNL     1      21.147   5.077  50.742  1.00  0.00     0.031 A 
HETATM   20  H31 UNL     1      21.324   2.364  52.942  1.00  0.00     0.160 HD
ENDROOT
BRANCH   3  21
HETATM   21  O1  UNL     1      25.497   2.550  51.338  1.00  0.00    -0.348 OA
BRANCH  21  22
HETATM   22  C6  UNL     1      26.856   2.396  51.599  1.00  0.00     0.207 C 
BRANCH  22  23
HETATM   23  C7  UNL     1      27.139   1.406  52.685  1.00  0.00     0.146 C 
HETATM   24  C8  UNL     1      26.457   0.080  52.525  1.00  0.00     0.037 C 
HETATM   25  C9  UNL     1      27.592  -0.917  52.765  1.00  0.00     0.040 C 
HETATM   26  C10 UNL     1      28.557  -0.042  53.547  1.00  0.00     0.054 C 
HETATM   27  C11 UNL     1      29.935  -0.615  53.559  1.00  0.00     0.045 C 
HETATM   28  C12 UNL     1      28.053   0.229  54.945  1.00  0.00     0.045 C 
HETATM   29  O2  UNL     1      28.521   1.115  52.753  1.00  0.00    -0.373 OA
ENDBRANCH  22  23
ENDBRANCH  21  22
ENDBRANCH   3  21
BRANCH   1  30
HETATM   30  S1  UNL     1      27.183   6.200  48.591  1.00  0.00    -0.015 SA
BRANCH  30  31
HETATM   31  N1  UNL     1      27.519   7.665  49.458  1.00  0.00    -0.337 N 
HETATM   32  H4  UNL     1      28.553   7.715  49.338  1.00  0.00     0.173 HD
BRANCH  31  33
HETATM   33  C2  UNL     1      26.799   8.648  50.181  1.00  0.00     0.085 C 
HETATM   34  C1  UNL     1      26.093   9.485  49.447  1.00  0.00     0.030 C 
ENDBRANCH  31  33
ENDBRANCH  30  31
ENDBRANCH   1  30
TORSDOF 6
ENDMDL
MODEL 2
REMARK VINA RESULT:      -8.7      3.410      6.418
REMARK  6 active torsions:
REMARK  status: ('A' for Active; 'I' for Inactive)
REMARK    1  A    between atoms: C2_2  and  N1_3 
REMARK    2  A    between atoms: N1_3  and  S1_4 
REMARK    3  A    between atoms: S1_4  and  C3_5 
REMARK    4  A    between atoms: C5_7  and  O1_8 
REMARK    5  A    between atoms: O1_8  and  C6_9 
REMARK    6  A    between atoms: C6_9  and  C7_10 
ROOT
HETATM    1  C3  UNL     1      20.702  -0.324  53.047  1.00  0.00     0.025 C 
HETATM    2  C4  UNL     1      21.949  -0.010  53.446  1.00  0.00     0.057 C 
HETATM    3  C5  UNL     1      22.920   1.062  53.097  1.00  0.00     0.076 C 
HETATM    4  C13 UNL     1      22.705   2.259  52.519  1.00  0.00     0.004 C 
HETATM    5  C14 UNL     1      24.148   2.500  52.205  1.00  0.00     0.119 C 
HETATM    6  C15 UNL     1      24.134   3.482  51.046  1.00  0.00     0.105 C 
HETATM    7  N2  UNL     1      23.722   4.691  51.203  1.00  0.00    -0.229 NA
HETATM    8  C16 UNL     1      22.639   5.151  52.060  1.00  0.00     0.231 C 
HETATM    9  N3  UNL     1      21.561   4.443  52.349  1.00  0.00    -0.252 NA
HETATM   10  C17 UNL     1      21.429   3.051  52.256  1.00  0.00     0.242 C 
HETATM   11  N4  UNL     1      20.809   2.455  51.084  1.00  0.00    -0.359 N 
HETATM   12  C18 UNL     1      19.932   1.268  51.113  1.00  0.00     0.090 C 
HETATM   13  C19 UNL     1      19.857   0.190  51.935  1.00  0.00     0.037 C 
HETATM   14  C20 UNL     1      20.842   2.700  49.688  1.00  0.00     0.087 A 
HETATM   15  C21 UNL     1      21.233   3.935  49.057  1.00  0.00     0.031 A 
HETATM   16  C22 UNL     1      22.413   3.274  48.336  1.00  0.00     0.007 A 
HETATM   17  C23 UNL     1      23.731   3.867  48.591  1.00  0.00     0.125 C 
HETATM   18  N5  UNL     1      24.534   3.315  49.661  1.00  0.00    -0.378 N 
HETATM   19  C24 UNL     1      22.047   2.014  49.023  1.00  0.00     0.031 A 
HETATM   20  H31 UNL     1      25.404   2.782  49.631  1.00  0.00     0.160 HD
ENDROOT
BRANCH   3  21
HETATM   21  O1  UNL     1      24.201   0.744  53.428  1.00  0.00    -0.348 OA
BRANCH  21  22
HETATM   22  C6  UNL     1      24.653  -0.532  53.755  1.00  0.00     0.207 C 
BRANCH  22  23
HETATM   23  C7  UNL     1      26.074  -0.775  53.356  1.00  0.00     0.146 C 
HETATM   24  C8  UNL     1      26.501  -0.092  52.091  1.00  0.00     0.037 C 
HETATM   25  C9  UNL     1      27.827   0.560  52.486  1.00  0.00     0.040 C 
HETATM   26  C10 UNL     1      28.199  -0.295  53.685  1.00  0.00     0.054 C 
HETATM   27  C11 UNL     1      29.233   0.365  54.535  1.00  0.00     0.045 C 
HETATM   28  C12 UNL     1      28.623  -1.684  53.269  1.00  0.00     0.045 C 
HETATM   29  O2  UNL     1      26.964  -0.313  54.353  1.00  0.00    -0.373 OA
ENDBRANCH  22  23
ENDBRANCH  21  22
ENDBRANCH   3  21
BRANCH   1  30
HETATM   30  S1  UNL     1      19.960  -1.570  54.034  1.00  0.00    -0.015 SA
BRANCH  30  31
HETATM   31  N1  UNL     1      18.233  -1.646  53.880  1.00  0.00    -0.337 N 
HETATM   32  H4  UNL     1      17.959  -0.854  54.499  1.00  0.00     0.173 HD
BRANCH  31  33
HETATM   33  C2  UNL     1      17.272  -2.434  53.198  1.00  0.00     0.085 C 
HETATM   34  C1  UNL     1      17.185  -3.688  53.594  1.00  0.00     0.030 C 
ENDBRANCH  31  33
ENDBRANCH  30  31
ENDBRANCH   1  30
TORSDOF 6
ENDMDL
MODEL 3
REMARK VINA RESULT:      -8.6      1.192      1.354
REMARK  6 active torsions:
REMARK  status: ('A' for Active; 'I' for Inactive)
REMARK    1  A    between atoms: C2_2  and  N1_3 
REMARK    2  A    between atoms: N1_3  and  S1_4 
REMARK    3  A    between atoms: S1_4  and  C3_5 
REMARK    4  A    between atoms: C5_7  and  O1_8 
REMARK    5  A    between atoms: O1_8  and  C6_9 
REMARK    6  A    between atoms: C6_9  and  C7_10 
ROOT
HETATM    1  C3  UNL     1      25.272   5.497  49.398  1.00  0.00     0.025 C 
HETATM    2  C4  UNL     1      25.580   4.328  49.994  1.00  0.00     0.057 C 
HETATM    3  C5  UNL     1      24.806   3.125  50.399  1.00  0.00     0.076 C 
HETATM    4  C13 UNL     1      23.603   2.696  49.973  1.00  0.00     0.004 C 
HETATM    5  C14 UNL     1      23.422   1.720  51.093  1.00  0.00     0.119 C 
HETATM    6  C15 UNL     1      21.919   1.523  51.197  1.00  0.00     0.105 C 
HETATM    7  N2  UNL     1      21.259   0.933  50.263  1.00  0.00    -0.229 NA
HETATM    8  C16 UNL     1      21.500   1.007  48.829  1.00  0.00     0.231 C 
HETATM    9  N3  UNL     1      21.995   2.063  48.207  1.00  0.00    -0.252 NA
HETATM   10  C17 UNL     1      22.735   3.102  48.787  1.00  0.00     0.242 C 
HETATM   11  N4  UNL     1      22.079   4.342  49.164  1.00  0.00    -0.359 N 
HETATM   12  C18 UNL     1      22.684   5.683  49.036  1.00  0.00     0.090 C 
HETATM   13  C19 UNL     1      23.965   6.130  49.072  1.00  0.00     0.037 C 
HETATM   14  C20 UNL     1      20.837   4.691  49.754  1.00  0.00     0.087 A 
HETATM   15  C21 UNL     1      19.658   3.864  49.788  1.00  0.00     0.031 A 
HETATM   16  C22 UNL     1      19.658   3.807  51.320  1.00  0.00     0.007 A 
HETATM   17  C23 UNL     1      19.697   2.465  51.911  1.00  0.00     0.125 C 
HETATM   18  N5  UNL     1      20.986   1.901  52.243  1.00  0.00    -0.378 N 
HETATM   19  C24 UNL     1      20.899   4.614  51.288  1.00  0.00     0.031 A 
HETATM   20  H31 UNL     1      21.409   1.699  53.151  1.00  0.00     0.160 HD
ENDROOT
BRANCH   3  21
HETATM   21  O1  UNL     1      25.444   2.377  51.340  1.00  0.00    -0.348 OA
BRANCH  21  22
HETATM   22  C6  UNL     1      26.793   2.482  51.669  1.00  0.00     0.207 C 
BRANCH  22  23
HETATM   23  C7  UNL     1      27.204   1.561  52.775  1.00  0.00     0.146 C 
HETATM   24  C8  UNL     1      26.520   0.226  52.772  1.00  0.00     0.037 C 
HETATM   25  C9  UNL     1      27.683  -0.752  52.944  1.00  0.00     0.040 C 
HETATM   26  C10 UNL     1      28.721   0.171  53.561  1.00  0.00     0.054 C 
HETATM   27  C11 UNL     1      30.097  -0.397  53.455  1.00  0.00     0.045 C 
HETATM   28  C12 UNL     1      28.372   0.526  54.986  1.00  0.00     0.045 C 
HETATM   29  O2  UNL     1      28.587   1.278  52.707  1.00  0.00    -0.373 OA
ENDBRANCH  22  23
ENDBRANCH  21  22
ENDBRANCH   3  21
BRANCH   1  30
HETATM   30  S1  UNL     1      26.687   6.423  48.933  1.00  0.00    -0.015 SA
BRANCH  30  31
HETATM   31  N1  UNL     1      28.160   5.506  48.958  1.00  0.00    -0.337 N 
HETATM   32  H4  UNL     1      27.984   4.900  49.787  1.00  0.00     0.173 HD
BRANCH  31  33
HETATM   33  C2  UNL     1      29.360   5.422  48.207  1.00  0.00     0.085 C 
HETATM   34  C1  UNL     1      29.985   6.565  48.012  1.00  0.00     0.030 C 
ENDBRANCH  31  33
ENDBRANCH  30  31
ENDBRANCH   1  30
TORSDOF 6
ENDMDL
MODEL 4
REMARK VINA RESULT:      -8.3      2.528      6.200
REMARK  6 active torsions:
REMARK  status: ('A' for Active; 'I' for Inactive)
REMARK    1  A    between atoms: C2_2  and  N1_3 
REMARK    2  A    between atoms: N1_3  and  S1_4 
REMARK    3  A    between atoms: S1_4  and  C3_5 
REMARK    4  A    between atoms: C5_7  and  O1_8 
REMARK    5  A    between atoms: O1_8  and  C6_9 
REMARK    6  A    between atoms: C6_9  and  C7_10 
ROOT
HETATM    1  C3  UNL     1      26.302   2.147  52.533  1.00  0.00     0.025 C 
HETATM    2  C4  UNL     1      26.261   2.868  51.396  1.00  0.00     0.057 C 
HETATM    3  C5  UNL     1      25.172   3.384  50.523  1.00  0.00     0.076 C 
HETATM    4  C13 UNL     1      23.870   3.578  50.802  1.00  0.00     0.004 C 
HETATM    5  C14 UNL     1      23.462   3.725  49.370  1.00  0.00     0.119 C 
HETATM    6  C15 UNL     1      21.986   3.369  49.347  1.00  0.00     0.105 C 
HETATM    7  N2  UNL     1      21.111   4.120  49.919  1.00  0.00    -0.229 NA
HETATM    8  C16 UNL     1      21.266   4.875  51.153  1.00  0.00     0.231 C 
HETATM    9  N3  UNL     1      22.028   4.503  52.166  1.00  0.00    -0.252 NA
HETATM   10  C17 UNL     1      23.099   3.600  52.117  1.00  0.00     0.242 C 
HETATM   11  N4  UNL     1      22.899   2.212  52.500  1.00  0.00    -0.359 N 
HETATM   12  C18 UNL     1      23.890   1.392  53.224  1.00  0.00     0.090 C 
HETATM   13  C19 UNL     1      25.246   1.409  53.278  1.00  0.00     0.037 C 
HETATM   14  C20 UNL     1      21.876   1.248  52.311  1.00  0.00     0.087 A 
HETATM   15  C21 UNL     1      20.500   1.531  51.991  1.00  0.00     0.031 A 
HETATM   16  C22 UNL     1      20.585   0.785  50.655  1.00  0.00     0.007 A 
HETATM   17  C23 UNL     1      20.233   1.565  49.464  1.00  0.00     0.125 C 
HETATM   18  N5  UNL     1      21.295   2.240  48.750  1.00  0.00    -0.378 N 
HETATM   19  C24 UNL     1      22.014   0.537  50.955  1.00  0.00     0.031 A 
HETATM   20  H31 UNL     1      21.691   2.063  47.825  1.00  0.00     0.160 HD
ENDROOT
BRANCH   3  21
HETATM   21  O1  UNL     1      25.600   3.691  49.269  1.00  0.00    -0.348 OA
BRANCH  21  22
HETATM   22  C6  UNL     1      26.874   4.152  48.946  1.00  0.00     0.207 C 
BRANCH  22  23
HETATM   23  C7  UNL     1      27.000   5.641  49.021  1.00  0.00     0.146 C 
HETATM   24  C8  UNL     1      28.159   6.216  48.263  1.00  0.00     0.037 C 
HETATM   25  C9  UNL     1      27.519   7.363  47.480  1.00  0.00     0.040 C 
HETATM   26  C10 UNL     1      26.275   7.599  48.319  1.00  0.00     0.054 C 
HETATM   27  C11 UNL     1      25.244   8.376  47.570  1.00  0.00     0.045 C 
HETATM   28  C12 UNL     1      26.610   8.247  49.641  1.00  0.00     0.045 C 
HETATM   29  O2  UNL     1      25.851   6.272  48.489  1.00  0.00    -0.373 OA
ENDBRANCH  22  23
ENDBRANCH  21  22
ENDBRANCH   3  21
BRANCH   1  30
HETATM   30  S1  UNL     1      27.904   2.080  53.244  1.00  0.00    -0.015 SA
BRANCH  30  31
HETATM   31  N1  UNL     1      28.049   0.922  54.529  1.00  0.00    -0.337 N 
HETATM   32  H4  UNL     1      27.359   1.313  55.205  1.00  0.00     0.173 HD
BRANCH  31  33
HETATM   33  C2  UNL     1      28.789  -0.254  54.808  1.00  0.00     0.085 C 
HETATM   34  C1  UNL     1      29.446  -0.763  53.785  1.00  0.00     0.030 C 
ENDBRANCH  31  33
ENDBRANCH  30  31
ENDBRANCH   1  30
TORSDOF 6
ENDMDL
MODEL 5
REMARK VINA RESULT:      -7.6      3.139      6.105
REMARK  6 active torsions:
REMARK  status: ('A' for Active; 'I' for Inactive)
REMARK    1  A    between atoms: C2_2  and  N1_3 
REMARK    2  A    between atoms: N1_3  and  S1_4 
REMARK    3  A    between atoms: S1_4  and  C3_5 
REMARK    4  A    between atoms: C5_7  and  O1_8 
REMARK    5  A    between atoms: O1_8  and  C6_9 
REMARK    6  A    between atoms: C6_9  and  C7_10 
ROOT
HETATM    1  C3  UNL     1      25.602   2.763  50.900  1.00  0.00     0.025 C 
HETATM    2  C4  UNL     1      26.246   3.721  50.206  1.00  0.00     0.057 C 
HETATM    3  C5  UNL     1      25.826   4.954  49.488  1.00  0.00     0.076 C 
HETATM    4  C13 UNL     1      24.696   5.675  49.612  1.00  0.00     0.004 C 
HETATM    5  C14 UNL     1      24.906   6.444  48.346  1.00  0.00     0.119 C 
HETATM    6  C15 UNL     1      23.518   6.901  47.933  1.00  0.00     0.105 C 
HETATM    7  N2  UNL     1      22.868   7.767  48.630  1.00  0.00    -0.229 NA
HETATM    8  C16 UNL     1      22.865   7.914  50.078  1.00  0.00     0.231 C 
HETATM    9  N3  UNL     1      23.015   6.917  50.931  1.00  0.00    -0.252 NA
HETATM   10  C17 UNL     1      23.590   5.668  50.661  1.00  0.00     0.242 C 
HETATM   11  N4  UNL     1      22.742   4.527  50.357  1.00  0.00    -0.359 N 
HETATM   12  C18 UNL     1      23.012   3.143  50.794  1.00  0.00     0.090 C 
HETATM   13  C19 UNL     1      24.154   2.461  51.065  1.00  0.00     0.037 C 
HETATM   14  C20 UNL     1      21.559   4.318  49.603  1.00  0.00     0.087 A 
HETATM   15  C21 UNL     1      20.610   5.334  49.225  1.00  0.00     0.031 A 
HETATM   16  C22 UNL     1      20.856   5.106  47.730  1.00  0.00     0.007 A 
HETATM   17  C23 UNL     1      21.278   6.284  46.964  1.00  0.00     0.125 C 
HETATM   18  N5  UNL     1      22.695   6.521  46.799  1.00  0.00    -0.378 N 
HETATM   19  C24 UNL     1      21.871   4.098  48.114  1.00  0.00     0.031 A 
HETATM   20  H31 UNL     1      23.285   6.468  45.967  1.00  0.00     0.160 HD
ENDROOT
BRANCH   3  21
HETATM   21  O1  UNL     1      26.748   5.380  48.583  1.00  0.00    -0.348 OA
BRANCH  21  22
HETATM   22  C6  UNL     1      28.067   4.937  48.511  1.00  0.00     0.207 C 
BRANCH  22  23
HETATM   23  C7  UNL     1      29.015   5.984  48.019  1.00  0.00     0.146 C 
HETATM   24  C8  UNL     1      28.477   7.384  48.040  1.00  0.00     0.037 C 
HETATM   25  C9  UNL     1      29.606   8.172  48.706  1.00  0.00     0.040 C 
HETATM   26  C10 UNL     1      30.775   7.238  48.447  1.00  0.00     0.054 C 
HETATM   27  C11 UNL     1      31.931   7.538  49.342  1.00  0.00     0.045 C 
HETATM   28  C12 UNL     1      31.180   7.244  46.992  1.00  0.00     0.045 C 
HETATM   29  O2  UNL     1      30.185   6.017  48.812  1.00  0.00    -0.373 OA
ENDBRANCH  22  23
ENDBRANCH  21  22
ENDBRANCH   3  21
BRANCH   1  30
HETATM   30  S1  UNL     1      26.692   1.686  51.755  1.00  0.00    -0.015 SA
BRANCH  30  31
HETATM   31  N1  UNL     1      27.748   2.500  52.866  1.00  0.00    -0.337 N 
HETATM   32  H4  UNL     1      27.495   3.490  52.666  1.00  0.00     0.173 HD
BRANCH  31  33
HETATM   33  C2  UNL     1      28.725   2.155  53.832  1.00  0.00     0.085 C 
HETATM   34  C1  UNL     1      29.145   0.907  53.791  1.00  0.00     0.030 C 
ENDBRANCH  31  33
ENDBRANCH  30  31
ENDBRANCH   1  30
TORSDOF 6
ENDMDL
MODEL 6
REMARK VINA RESULT:      -7.6      6.250     11.676
REMARK  6 active torsions:
REMARK  status: ('A' for Active; 'I' for Inactive)
REMARK    1  A    between atoms: C2_2  and  N1_3 
REMARK    2  A    between atoms: N1_3  and  S1_4 
REMARK    3  A    between atoms: S1_4  and  C3_5 
REMARK    4  A    between atoms: C5_7  and  O1_8 
REMARK    5  A    between atoms: O1_8  and  C6_9 
REMARK    6  A    between atoms: C6_9  and  C7_10 
ROOT
HETATM    1  C3  UNL     1      28.846   6.999  48.170  1.00  0.00     0.025 C 
HETATM    2  C4  UNL     1      29.339   8.252  48.137  1.00  0.00     0.057 C 
HETATM    3  C5  UNL     1      30.673   8.844  47.848  1.00  0.00     0.076 C 
HETATM    4  C13 UNL     1      31.719   8.316  47.184  1.00  0.00     0.004 C 
HETATM    5  C14 UNL     1      32.696   9.342  47.667  1.00  0.00     0.119 C 
HETATM    6  C15 UNL     1      34.053   8.669  47.557  1.00  0.00     0.105 C 
HETATM    7  N2  UNL     1      34.562   8.381  46.411  1.00  0.00    -0.229 NA
HETATM    8  C16 UNL     1      33.857   7.936  45.218  1.00  0.00     0.231 C 
HETATM    9  N3  UNL     1      32.750   7.214  45.228  1.00  0.00    -0.252 NA
HETATM   10  C17 UNL     1      31.847   7.087  46.292  1.00  0.00     0.242 C 
HETATM   11  N4  UNL     1      31.926   5.940  47.181  1.00  0.00    -0.359 N 
HETATM   12  C18 UNL     1      30.758   5.254  47.768  1.00  0.00     0.090 C 
HETATM   13  C19 UNL     1      29.511   5.669  48.107  1.00  0.00     0.037 C 
HETATM   14  C20 UNL     1      32.973   5.193  47.779  1.00  0.00     0.087 A 
HETATM   15  C21 UNL     1      34.339   5.141  47.322  1.00  0.00     0.031 A 
HETATM   16  C22 UNL     1      34.870   5.747  48.626  1.00  0.00     0.007 A 
HETATM   17  C23 UNL     1      35.665   6.972  48.485  1.00  0.00     0.125 C 
HETATM   18  N5  UNL     1      34.984   8.244  48.587  1.00  0.00    -0.378 N 
HETATM   19  C24 UNL     1      33.464   5.850  49.079  1.00  0.00     0.031 A 
HETATM   20  H31 UNL     1      35.032   8.968  49.306  1.00  0.00     0.160 HD
ENDROOT
BRANCH   3  21
HETATM   21  O1  UNL     1      30.812  10.103  48.344  1.00  0.00    -0.348 OA
BRANCH  21  22
HETATM   22  C6  UNL     1      29.796  10.851  48.932  1.00  0.00     0.207 C 
BRANCH  22  23
HETATM   23  C7  UNL     1      29.373  12.025  48.107  1.00  0.00     0.146 C 
HETATM   24  C8  UNL     1      28.862  11.685  46.739  1.00  0.00     0.037 C 
HETATM   25  C9  UNL     1      27.566  12.491  46.649  1.00  0.00     0.040 C 
HETATM   26  C10 UNL     1      27.836  13.550  47.705  1.00  0.00     0.054 C 
HETATM   27  C11 UNL     1      26.580  14.230  48.139  1.00  0.00     0.045 C 
HETATM   28  C12 UNL     1      28.876  14.543  47.244  1.00  0.00     0.045 C 
HETATM   29  O2  UNL     1      28.324  12.733  48.737  1.00  0.00    -0.373 OA
ENDBRANCH  22  23
ENDBRANCH  21  22
ENDBRANCH   3  21
BRANCH   1  30
HETATM   30  S1  UNL     1      27.099   6.954  48.318  1.00  0.00    -0.015 SA
BRANCH  30  31
HETATM   31  N1  UNL     1      26.534   5.958  49.622  1.00  0.00    -0.337 N 
HETATM   32  H4  UNL     1      26.790   6.559  50.434  1.00  0.00     0.173 HD
BRANCH  31  33
HETATM   33  C2  UNL     1      25.900   4.702  49.788  1.00  0.00     0.085 C 
HETATM   34  C1  UNL     1      26.639   3.652  49.490  1.00  0.00     0.030 C 
ENDBRANCH  31  33
ENDBRANCH  30  31
ENDBRANCH   1  30
TORSDOF 6
ENDMDL
MODEL 7
REMARK VINA RESULT:      -7.5      6.462     10.407
REMARK  6 active torsions:
REMARK  status: ('A' for Active; 'I' for Inactive)
REMARK    1  A    between atoms: C2_2  and  N1_3 
REMARK    2  A    between atoms: N1_3  and  S1_4 
REMARK    3  A    between atoms: S1_4  and  C3_5 
REMARK    4  A    between atoms: C5_7  and  O1_8 
REMARK    5  A    between atoms: O1_8  and  C6_9 
REMARK    6  A    between atoms: C6_9  and  C7_10 
ROOT
HETATM    1  C3  UNL     1      30.914   8.822  44.987  1.00  0.00     0.025 C 
HETATM    2  C4  UNL     1      30.630   8.701  46.298  1.00  0.00     0.057 C 
HETATM    3  C5  UNL     1      31.203   7.917  47.424  1.00  0.00     0.076 C 
HETATM    4  C13 UNL     1      32.417   7.346  47.540  1.00  0.00     0.004 C 
HETATM    5  C14 UNL     1      32.038   6.501  48.716  1.00  0.00     0.119 C 
HETATM    6  C15 UNL     1      33.015   5.339  48.691  1.00  0.00     0.105 C 
HETATM    7  N2  UNL     1      34.268   5.517  48.924  1.00  0.00    -0.229 NA
HETATM    8  C16 UNL     1      35.082   6.663  48.545  1.00  0.00     0.231 C 
HETATM    9  N3  UNL     1      34.886   7.395  47.463  1.00  0.00    -0.252 NA
HETATM   10  C17 UNL     1      33.698   7.494  46.727  1.00  0.00     0.242 C 
HETATM   11  N4  UNL     1      33.517   6.696  45.526  1.00  0.00    -0.359 N 
HETATM   12  C18 UNL     1      32.823   7.161  44.309  1.00  0.00     0.090 C 
HETATM   13  C19 UNL     1      31.824   8.054  44.094  1.00  0.00     0.037 C 
HETATM   14  C20 UNL     1      33.829   5.368  45.137  1.00  0.00     0.087 A 
HETATM   15  C21 UNL     1      34.820   4.521  45.750  1.00  0.00     0.031 A 
HETATM   16  C22 UNL     1      33.773   3.485  46.173  1.00  0.00     0.007 A 
HETATM   17  C23 UNL     1      33.721   3.179  47.607  1.00  0.00     0.125 C 
HETATM   18  N5  UNL     1      32.798   3.927  48.433  1.00  0.00    -0.378 N 
HETATM   19  C24 UNL     1      32.745   4.378  45.591  1.00  0.00     0.031 A 
HETATM   20  H31 UNL     1      31.946   3.631  48.913  1.00  0.00     0.160 HD
ENDROOT
BRANCH   3  21
HETATM   21  O1  UNL     1      30.342   7.784  48.469  1.00  0.00    -0.348 OA
BRANCH  21  22
HETATM   22  C6  UNL     1      29.204   8.560  48.675  1.00  0.00     0.207 C 
BRANCH  22  23
HETATM   23  C7  UNL     1      27.932   7.840  48.355  1.00  0.00     0.146 C 
HETATM   24  C8  UNL     1      28.105   6.411  47.932  1.00  0.00     0.037 C 
HETATM   25  C9  UNL     1      27.072   5.676  48.788  1.00  0.00     0.040 C 
HETATM   26  C10 UNL     1      26.135   6.824  49.123  1.00  0.00     0.054 C 
HETATM   27  C11 UNL     1      25.261   6.501  50.289  1.00  0.00     0.045 C 
HETATM   28  C12 UNL     1      25.326   7.250  47.921  1.00  0.00     0.045 C 
HETATM   29  O2  UNL     1      27.079   7.800  49.481  1.00  0.00    -0.373 OA
ENDBRANCH  22  23
ENDBRANCH  21  22
ENDBRANCH   3  21
BRANCH   1  30
HETATM   30  S1  UNL     1      30.037  10.129  44.212  1.00  0.00    -0.015 SA
BRANCH  30  31
HETATM   31  N1  UNL     1      28.494  10.459  44.937  1.00  0.00    -0.337 N 
HETATM   32  H4  UNL     1      28.719  11.335  45.454  1.00  0.00     0.173 HD
BRANCH  31  33
HETATM   33  C2  UNL     1      27.201   9.880  44.967  1.00  0.00     0.085 C 
HETATM   34  C1  UNL     1      27.156   8.585  44.724  1.00  0.00     0.030 C 
ENDBRANCH  31  33
ENDBRANCH  30  31
ENDBRANCH   1  30
TORSDOF 6
ENDMDL
MODEL 8
REMARK VINA RESULT:      -7.4      5.130      8.854
REMARK  6 active torsions:
REMARK  status: ('A' for Active; 'I' for Inactive)
REMARK    1  A    between atoms: C2_2  and  N1_3 
REMARK    2  A    between atoms: N1_3  and  S1_4 
REMARK    3  A    between atoms: S1_4  and  C3_5 
REMARK    4  A    between atoms: C5_7  and  O1_8 
REMARK    5  A    between atoms: O1_8  and  C6_9 
REMARK    6  A    between atoms: C6_9  and  C7_10 
ROOT
HETATM    1  C3  UNL     1      27.147   5.554  48.654  1.00  0.00     0.025 C 
HETATM    2  C4  UNL     1      28.485   5.549  48.501  1.00  0.00     0.057 C 
HETATM    3  C5  UNL     1      29.502   6.578  48.157  1.00  0.00     0.076 C 
HETATM    4  C13 UNL     1      29.424   7.920  48.234  1.00  0.00     0.004 C 
HETATM    5  C14 UNL     1      30.637   8.158  47.390  1.00  0.00     0.119 C 
HETATM    6  C15 UNL     1      30.450   9.556  46.827  1.00  0.00     0.105 C 
HETATM    7  N2  UNL     1      30.488  10.592  47.591  1.00  0.00    -0.229 NA
HETATM    8  C16 UNL     1      29.998  10.700  48.957  1.00  0.00     0.231 C 
HETATM    9  N3  UNL     1      28.965  10.029  49.437  1.00  0.00    -0.252 NA
HETATM   10  C17 UNL     1      28.423   8.847  48.915  1.00  0.00     0.242 C 
HETATM   11  N4  UNL     1      27.258   8.901  48.049  1.00  0.00    -0.359 N 
HETATM   12  C18 UNL     1      26.166   7.907  48.050  1.00  0.00     0.090 C 
HETATM   13  C19 UNL     1      26.117   6.584  48.349  1.00  0.00     0.037 C 
HETATM   14  C20 UNL     1      26.813   9.750  47.003  1.00  0.00     0.087 A 
HETATM   15  C21 UNL     1      27.257  11.100  46.766  1.00  0.00     0.031 A 
HETATM   16  C22 UNL     1      27.829  10.744  45.389  1.00  0.00     0.007 A 
HETATM   17  C23 UNL     1      29.251  11.045  45.190  1.00  0.00     0.125 C 
HETATM   18  N5  UNL     1      30.216  10.004  45.467  1.00  0.00    -0.378 N 
HETATM   19  C24 UNL     1      27.421   9.345  45.650  1.00  0.00     0.031 A 
HETATM   20  H31 UNL     1      30.820   9.473  44.836  1.00  0.00     0.160 HD
ENDROOT
BRANCH   3  21
HETATM   21  O1  UNL     1      30.666   6.040  47.702  1.00  0.00    -0.348 OA
BRANCH  21  22
HETATM   22  C6  UNL     1      30.884   4.687  47.458  1.00  0.00     0.207 C 
BRANCH  22  23
HETATM   23  C7  UNL     1      32.333   4.332  47.351  1.00  0.00     0.146 C 
HETATM   24  C8  UNL     1      33.014   4.820  46.107  1.00  0.00     0.037 C 
HETATM   25  C9  UNL     1      34.293   5.461  46.648  1.00  0.00     0.040 C 
HETATM   26  C10 UNL     1      34.397   4.759  47.991  1.00  0.00     0.054 C 
HETATM   27  C11 UNL     1      35.312   5.482  48.923  1.00  0.00     0.045 C 
HETATM   28  C12 UNL     1      34.794   3.311  47.833  1.00  0.00     0.045 C 
HETATM   29  O2  UNL     1      33.068   4.884  48.426  1.00  0.00    -0.373 OA
ENDBRANCH  22  23
ENDBRANCH  21  22
ENDBRANCH   3  21
BRANCH   1  30
HETATM   30  S1  UNL     1      26.529   4.061  49.339  1.00  0.00    -0.015 SA
BRANCH  30  31
HETATM   31  N1  UNL     1      25.646   4.284  50.816  1.00  0.00    -0.337 N 
HETATM   32  H4  UNL     1      26.434   4.459  51.475  1.00  0.00     0.173 HD
BRANCH  31  33
HETATM   33  C2  UNL     1      24.295   4.278  51.245  1.00  0.00     0.085 C 
HETATM   34  C1  UNL     1      24.022   3.460  52.241  1.00  0.00     0.030 C 
ENDBRANCH  31  33
ENDBRANCH  30  31
ENDBRANCH   1  30
TORSDOF 6
ENDMDL
MODEL 9
REMARK VINA RESULT:      -7.3      2.739      5.656
REMARK  6 active torsions:
REMARK  status: ('A' for Active; 'I' for Inactive)
REMARK    1  A    between atoms: C2_2  and  N1_3 
REMARK    2  A    between atoms: N1_3  and  S1_4 
REMARK    3  A    between atoms: S1_4  and  C3_5 
REMARK    4  A    between atoms: C5_7  and  O1_8 
REMARK    5  A    between atoms: O1_8  and  C6_9 
REMARK    6  A    between atoms: C6_9  and  C7_10 
ROOT
HETATM    1  C3  UNL     1      22.000   0.536  52.643  1.00  0.00     0.025 C 
HETATM    2  C4  UNL     1      23.237   0.984  52.354  1.00  0.00     0.057 C 
HETATM    3  C5  UNL     1      23.779   2.165  51.631  1.00  0.00     0.076 C 
HETATM    4  C13 UNL     1      23.186   3.339  51.342  1.00  0.00     0.004 C 
HETATM    5  C14 UNL     1      24.219   3.750  50.339  1.00  0.00     0.119 C 
HETATM    6  C15 UNL     1      23.510   4.743  49.435  1.00  0.00     0.105 C 
HETATM    7  N2  UNL     1      23.137   5.894  49.874  1.00  0.00    -0.229 NA
HETATM    8  C16 UNL     1      22.633   6.213  51.201  1.00  0.00     0.231 C 
HETATM    9  N3  UNL     1      21.937   5.381  51.956  1.00  0.00    -0.252 NA
HETATM   10  C17 UNL     1      21.899   3.985  51.843  1.00  0.00     0.242 C 
HETATM   11  N4  UNL     1      20.811   3.342  51.126  1.00  0.00    -0.359 N 
HETATM   12  C18 UNL     1      20.190   2.062  51.520  1.00  0.00     0.090 C 
HETATM   13  C19 UNL     1      20.654   0.968  52.177  1.00  0.00     0.037 C 
HETATM   14  C20 UNL     1      20.081   3.612  49.941  1.00  0.00     0.087 A 
HETATM   15  C21 UNL     1      19.969   4.894  49.293  1.00  0.00     0.031 A 
HETATM   16  C22 UNL     1      20.646   4.385  48.015  1.00  0.00     0.007 A 
HETATM   17  C23 UNL     1      21.841   5.120  47.588  1.00  0.00     0.125 C 
HETATM   18  N5  UNL     1      23.132   4.646  48.037  1.00  0.00    -0.378 N 
HETATM   19  C24 UNL     1      20.809   3.080  48.696  1.00  0.00     0.031 A 
HETATM   20  H31 UNL     1      23.899   4.216  47.517  1.00  0.00     0.160 HD
ENDROOT
BRANCH   3  21
HETATM   21  O1  UNL     1      25.064   1.991  51.220  1.00  0.00    -0.348 OA
BRANCH  21  22
HETATM   22  C6  UNL     1      26.190   2.484  51.874  1.00  0.00     0.207 C 
BRANCH  22  23
HETATM   23  C7  UNL     1      26.911   1.443  52.672  1.00  0.00     0.146 C 
HETATM   24  C8  UNL     1      26.417   1.269  54.078  1.00  0.00     0.037 C 
HETATM   25  C9  UNL     1      26.268  -0.247  54.200  1.00  0.00     0.040 C 
HETATM   26  C10 UNL     1      27.201  -0.700  53.091  1.00  0.00     0.054 C 
HETATM   27  C11 UNL     1      26.943  -2.115  52.695  1.00  0.00     0.045 C 
HETATM   28  C12 UNL     1      28.649  -0.478  53.456  1.00  0.00     0.045 C 
HETATM   29  O2  UNL     1      26.789   0.171  52.069  1.00  0.00    -0.373 OA
ENDBRANCH  22  23
ENDBRANCH  21  22
ENDBRANCH   3  21
BRANCH   1  30
HETATM   30  S1  UNL     1      22.004  -0.803  53.777  1.00  0.00    -0.015 SA
BRANCH  30  31
HETATM   31  N1  UNL     1      20.420  -1.265  54.316  1.00  0.00    -0.337 N 
HETATM   32  H4  UNL     1      20.401  -0.799  55.248  1.00  0.00     0.173 HD
BRANCH  31  33
HETATM   33  C2  UNL     1      19.323  -2.021  53.832  1.00  0.00     0.085 C 
HETATM   34  C1  UNL     1      18.283  -1.317  53.435  1.00  0.00     0.030 C 
ENDBRANCH  31  33
ENDBRANCH  30  31
ENDBRANCH   1  30
TORSDOF 6
ENDMDL
