MODEL 1
REMARK VINA RESULT:      -8.1      0.000      0.000
REMARK  7 active torsions:
REMARK  status: ('A' for Active; 'I' for Inactive)
REMARK    1  A    between atoms: C2_2  and  N1_3 
REMARK    2  A    between atoms: N1_3  and  C3_4 
REMARK    3  A    between atoms: N1_3  and  C5_6 
REMARK    4  A    between atoms: C5_6  and  C7_8 
REMARK    5  A    between atoms: C8_9  and  C9_10 
REMARK       I    between atoms: C9_10  and  N2_12 
REMARK    6  A    between atoms: N2_12  and  C10_13 
REMARK    7  A    between atoms: C19_24  and  O2_25 
ROOT
HETATM    1  C10 UNL     1      26.108   2.334  52.090  1.00  0.00     0.069 A 
HETATM    2  C11 UNL     1      24.847   1.798  52.239  1.00  0.00     0.046 A 
HETATM    3  C12 UNL     1      24.601   0.793  53.145  1.00  0.00    -0.004 A 
HETATM    4  C13 UNL     1      23.365   0.208  53.345  1.00  0.00     0.038 A 
HETATM    5  C14 UNL     1      23.248  -0.795  54.285  1.00  0.00     0.063 A 
HETATM    6  C15 UNL     1      21.990  -1.430  54.525  1.00  0.00     0.101 C 
HETATM    7  N3  UNL     1      20.980  -1.948  54.730  1.00  0.00    -0.191 NA
HETATM    8  C16 UNL     1      24.325  -1.252  55.050  1.00  0.00     0.140 A 
HETATM    9  N4  UNL     1      25.510  -0.660  54.828  1.00  0.00    -0.259 NA
HETATM   10  C17 UNL     1      25.634   0.317  53.915  1.00  0.00     0.069 A 
HETATM   11  C18 UNL     1      26.905   0.835  53.788  1.00  0.00     0.071 A 
HETATM   12  C19 UNL     1      27.166   1.854  52.872  1.00  0.00     0.097 A 
ENDROOT
BRANCH   1  13
HETATM   13  N2  UNL     1      26.426   3.368  51.174  1.00  0.00    -0.321 N 
HETATM   14  C9  UNL     1      25.989   3.822  49.915  1.00  0.00     0.245 C 
HETATM   15  O1  UNL     1      25.048   3.225  49.313  1.00  0.00    -0.268 OA
HETATM   16  H17 UNL     1      27.205   3.809  51.741  1.00  0.00     0.169 HD
BRANCH  14  17
HETATM   17  C8  UNL     1      26.631   4.983  49.315  1.00  0.00     0.072 C 
HETATM   18  C7  UNL     1      27.698   5.075  48.548  1.00  0.00     0.013 C 
BRANCH  18  19
HETATM   19  C5  UNL     1      28.297   6.328  47.964  1.00  0.00     0.242 C 
HETATM   20  C6  UNL     1      29.730   6.325  48.352  1.00  0.00     0.047 C 
BRANCH  19  21
HETATM   21  N1  UNL     1      27.496   7.422  48.392  1.00  0.00     0.095 N 
BRANCH  21  22
HETATM   22  C2  UNL     1      26.821   7.906  47.169  1.00  0.00     0.268 C 
HETATM   23  C1  UNL     1      27.752   8.715  46.323  1.00  0.00     0.037 C 
ENDBRANCH  21  22
BRANCH  21  24
HETATM   24  C3  UNL     1      28.211   8.528  48.988  1.00  0.00     0.268 C 
HETATM   25  C4  UNL     1      27.522   9.235  50.092  1.00  0.00     0.037 C 
ENDBRANCH  21  24
ENDBRANCH  19  21
ENDBRANCH  18  19
ENDBRANCH  14  17
ENDBRANCH   1  13
BRANCH  12  26
HETATM   26  O2  UNL     1      28.443   2.382  52.736  1.00  0.00    -0.354 OA
HETATM   27  C20 UNL     1      29.279   2.400  53.871  1.00  0.00     0.210 C 
ENDBRANCH  12  26
TORSDOF 7
ENDMDL
MODEL 2
REMARK VINA RESULT:      -7.5      4.814      9.403
REMARK  7 active torsions:
REMARK  status: ('A' for Active; 'I' for Inactive)
REMARK    1  A    between atoms: C2_2  and  N1_3 
REMARK    2  A    between atoms: N1_3  and  C3_4 
REMARK    3  A    between atoms: N1_3  and  C5_6 
REMARK    4  A    between atoms: C5_6  and  C7_8 
REMARK    5  A    between atoms: C8_9  and  C9_10 
REMARK       I    between atoms: C9_10  and  N2_12 
REMARK    6  A    between atoms: N2_12  and  C10_13 
REMARK    7  A    between atoms: C19_24  and  O2_25 
ROOT
HETATM    1  C10 UNL     1      23.155   0.157  53.297  1.00  0.00     0.069 A 
HETATM    2  C11 UNL     1      24.336  -0.514  53.531  1.00  0.00     0.046 A 
HETATM    3  C12 UNL     1      25.554   0.102  53.360  1.00  0.00    -0.004 A 
HETATM    4  C13 UNL     1      26.775  -0.509  53.571  1.00  0.00     0.038 A 
HETATM    5  C14 UNL     1      27.928   0.218  53.362  1.00  0.00     0.063 A 
HETATM    6  C15 UNL     1      29.214  -0.373  53.567  1.00  0.00     0.101 C 
HETATM    7  N3  UNL     1      30.257  -0.838  53.732  1.00  0.00    -0.191 NA
HETATM    8  C16 UNL     1      27.923   1.552  52.943  1.00  0.00     0.140 A 
HETATM    9  N4  UNL     1      26.718   2.113  52.748  1.00  0.00    -0.259 NA
HETATM   10  C17 UNL     1      25.590   1.413  52.948  1.00  0.00     0.069 A 
HETATM   11  C18 UNL     1      24.424   2.109  52.709  1.00  0.00     0.071 A 
HETATM   12  C19 UNL     1      23.185   1.494  52.879  1.00  0.00     0.097 A 
ENDROOT
BRANCH   1  13
HETATM   13  N2  UNL     1      21.871  -0.421  53.454  1.00  0.00    -0.321 N 
HETATM   14  C9  UNL     1      21.252  -1.387  54.270  1.00  0.00     0.245 C 
HETATM   15  O1  UNL     1      21.917  -1.992  55.161  1.00  0.00    -0.268 OA
HETATM   16  H17 UNL     1      21.387   0.127  52.688  1.00  0.00     0.169 HD
BRANCH  14  17
HETATM   17  C8  UNL     1      19.838  -1.681  54.076  1.00  0.00     0.072 C 
HETATM   18  C7  UNL     1      18.919  -1.054  53.370  1.00  0.00     0.013 C 
BRANCH  18  19
HETATM   19  C5  UNL     1      17.468  -1.432  53.223  1.00  0.00     0.242 C 
HETATM   20  C6  UNL     1      17.399  -2.903  53.407  1.00  0.00     0.047 C 
BRANCH  19  21
HETATM   21  N1  UNL     1      17.011  -0.895  51.987  1.00  0.00     0.095 N 
BRANCH  21  22
HETATM   22  C2  UNL     1      18.164  -0.146  51.444  1.00  0.00     0.268 C 
HETATM   23  C1  UNL     1      17.844   0.443  50.107  1.00  0.00     0.037 C 
ENDBRANCH  21  22
BRANCH  21  24
HETATM   24  C3  UNL     1      15.882   0.002  52.073  1.00  0.00     0.268 C 
HETATM   25  C4  UNL     1      14.541  -0.617  51.951  1.00  0.00     0.037 C 
ENDBRANCH  21  24
ENDBRANCH  19  21
ENDBRANCH  18  19
ENDBRANCH  14  17
ENDBRANCH   1  13
BRANCH  12  26
HETATM   26  O2  UNL     1      22.005   2.186  52.640  1.00  0.00    -0.354 OA
HETATM   27  C20 UNL     1      22.095   3.486  52.101  1.00  0.00     0.210 C 
ENDBRANCH  12  26
TORSDOF 7
ENDMDL
MODEL 3
REMARK VINA RESULT:      -7.3      2.264      3.574
REMARK  7 active torsions:
REMARK  status: ('A' for Active; 'I' for Inactive)
REMARK    1  A    between atoms: C2_2  and  N1_3 
REMARK    2  A    between atoms: N1_3  and  C3_4 
REMARK    3  A    between atoms: N1_3  and  C5_6 
REMARK    4  A    between atoms: C5_6  and  C7_8 
REMARK    5  A    between atoms: C8_9  and  C9_10 
REMARK       I    between atoms: C9_10  and  N2_12 
REMARK    6  A    between atoms: N2_12  and  C10_13 
REMARK    7  A    between atoms: C19_24  and  O2_25 
ROOT
HETATM    1  C10 UNL     1      25.688   3.718  50.813  1.00  0.00     0.069 A 
HETATM    2  C11 UNL     1      26.500   2.611  50.929  1.00  0.00     0.046 A 
HETATM    3  C12 UNL     1      26.122   1.524  51.683  1.00  0.00    -0.004 A 
HETATM    4  C13 UNL     1      26.885   0.383  51.847  1.00  0.00     0.038 A 
HETATM    5  C14 UNL     1      26.394  -0.639  52.632  1.00  0.00     0.063 A 
HETATM    6  C15 UNL     1      27.149  -1.836  52.831  1.00  0.00     0.101 C 
HETATM    7  N3  UNL     1      27.747  -2.809  52.996  1.00  0.00    -0.191 NA
HETATM    8  C16 UNL     1      25.153  -0.578  53.275  1.00  0.00     0.140 A 
HETATM    9  N4  UNL     1      24.441   0.546  53.093  1.00  0.00    -0.259 NA
HETATM   10  C17 UNL     1      24.910   1.547  52.331  1.00  0.00     0.069 A 
HETATM   11  C18 UNL     1      24.077   2.641  52.231  1.00  0.00     0.071 A 
HETATM   12  C19 UNL     1      24.451   3.748  51.470  1.00  0.00     0.097 A 
ENDROOT
BRANCH   1  13
HETATM   13  N2  UNL     1      26.020   4.868  50.054  1.00  0.00    -0.321 N 
HETATM   14  C9  UNL     1      26.947   5.232  49.058  1.00  0.00     0.245 C 
HETATM   15  O1  UNL     1      27.783   4.385  48.623  1.00  0.00    -0.268 OA
HETATM   16  H17 UNL     1      25.291   5.514  50.470  1.00  0.00     0.169 HD
BRANCH  14  17
HETATM   17  C8  UNL     1      26.931   6.591  48.533  1.00  0.00     0.072 C 
HETATM   18  C7  UNL     1      27.758   7.204  47.710  1.00  0.00     0.013 C 
BRANCH  18  19
HETATM   19  C5  UNL     1      27.664   8.623  47.215  1.00  0.00     0.242 C 
HETATM   20  C6  UNL     1      28.419   8.669  45.938  1.00  0.00     0.047 C 
BRANCH  19  21
HETATM   21  N1  UNL     1      28.095   9.473  48.271  1.00  0.00     0.095 N 
BRANCH  21  22
HETATM   22  C2  UNL     1      27.216  10.659  48.192  1.00  0.00     0.268 C 
HETATM   23  C1  UNL     1      25.799  10.305  48.518  1.00  0.00     0.037 C 
ENDBRANCH  21  22
BRANCH  21  24
HETATM   24  C3  UNL     1      29.468   9.916  48.200  1.00  0.00     0.268 C 
HETATM   25  C4  UNL     1      30.352   9.492  49.311  1.00  0.00     0.037 C 
ENDBRANCH  21  24
ENDBRANCH  19  21
ENDBRANCH  18  19
ENDBRANCH  14  17
ENDBRANCH   1  13
BRANCH  12  26
HETATM   26  O2  UNL     1      23.620   4.855  51.364  1.00  0.00    -0.354 OA
HETATM   27  C20 UNL     1      22.329   4.773  51.925  1.00  0.00     0.210 C 
ENDBRANCH  12  26
TORSDOF 7
ENDMDL
MODEL 4
REMARK VINA RESULT:      -7.3      5.497      9.292
REMARK  7 active torsions:
REMARK  status: ('A' for Active; 'I' for Inactive)
REMARK    1  A    between atoms: C2_2  and  N1_3 
REMARK    2  A    between atoms: N1_3  and  C3_4 
REMARK    3  A    between atoms: N1_3  and  C5_6 
REMARK    4  A    between atoms: C5_6  and  C7_8 
REMARK    5  A    between atoms: C8_9  and  C9_10 
REMARK       I    between atoms: C9_10  and  N2_12 
REMARK    6  A    between atoms: N2_12  and  C10_13 
REMARK    7  A    between atoms: C19_24  and  O2_25 
ROOT
HETATM    1  C10 UNL     1      18.940  -1.281  53.128  1.00  0.00     0.069 A 
HETATM    2  C11 UNL     1      18.586  -2.527  53.598  1.00  0.00     0.046 A 
HETATM    3  C12 UNL     1      17.317  -3.026  53.416  1.00  0.00    -0.004 A 
HETATM    4  C13 UNL     1      16.892  -4.262  53.862  1.00  0.00     0.038 A 
HETATM    5  C14 UNL     1      15.590  -4.647  53.618  1.00  0.00     0.063 A 
HETATM    6  C15 UNL     1      15.106  -5.916  54.062  1.00  0.00     0.101 C 
HETATM    7  N3  UNL     1      14.705  -6.940  54.412  1.00  0.00    -0.191 NA
HETATM    8  C16 UNL     1      14.672  -3.841  52.936  1.00  0.00     0.140 A 
HETATM    9  N4  UNL     1      15.121  -2.646  52.518  1.00  0.00    -0.259 NA
HETATM   10  C17 UNL     1      16.387  -2.263  52.751  1.00  0.00     0.069 A 
HETATM   11  C18 UNL     1      16.714  -1.014  52.269  1.00  0.00     0.071 A 
HETATM   12  C19 UNL     1      17.997  -0.499  52.448  1.00  0.00     0.097 A 
ENDROOT
BRANCH   1  13
HETATM   13  N2  UNL     1      20.229  -0.712  53.285  1.00  0.00    -0.321 N 
HETATM   14  C9  UNL     1      21.362  -0.897  54.100  1.00  0.00     0.245 C 
HETATM   15  O1  UNL     1      21.367  -1.796  54.992  1.00  0.00    -0.268 OA
HETATM   16  H17 UNL     1      20.144   0.016  52.519  1.00  0.00     0.169 HD
BRANCH  14  17
HETATM   17  C8  UNL     1      22.526  -0.044  53.904  1.00  0.00     0.072 C 
HETATM   18  C7  UNL     1      23.793  -0.351  53.707  1.00  0.00     0.013 C 
BRANCH  18  19
HETATM   19  C5  UNL     1      24.941   0.604  53.510  1.00  0.00     0.242 C 
HETATM   20  C6  UNL     1      24.728   1.247  52.190  1.00  0.00     0.047 C 
BRANCH  19  21
HETATM   21  N1  UNL     1      26.144  -0.131  53.705  1.00  0.00     0.095 N 
BRANCH  21  22
HETATM   22  C2  UNL     1      27.068   0.813  54.367  1.00  0.00     0.268 C 
HETATM   23  C1  UNL     1      28.323   0.125  54.803  1.00  0.00     0.037 C 
ENDBRANCH  21  22
BRANCH  21  24
HETATM   24  C3  UNL     1      26.778  -0.624  52.503  1.00  0.00     0.268 C 
HETATM   25  C4  UNL     1      26.842  -2.097  52.353  1.00  0.00     0.037 C 
ENDBRANCH  21  24
ENDBRANCH  19  21
ENDBRANCH  18  19
ENDBRANCH  14  17
ENDBRANCH   1  13
BRANCH  12  26
HETATM   26  O2  UNL     1      18.336   0.758  51.967  1.00  0.00    -0.354 OA
HETATM   27  C20 UNL     1      18.473   0.922  50.574  1.00  0.00     0.210 C 
ENDBRANCH  12  26
TORSDOF 7
ENDMDL
MODEL 5
REMARK VINA RESULT:      -7.1      1.670      2.231
REMARK  7 active torsions:
REMARK  status: ('A' for Active; 'I' for Inactive)
REMARK    1  A    between atoms: C2_2  and  N1_3 
REMARK    2  A    between atoms: N1_3  and  C3_4 
REMARK    3  A    between atoms: N1_3  and  C5_6 
REMARK    4  A    between atoms: C5_6  and  C7_8 
REMARK    5  A    between atoms: C8_9  and  C9_10 
REMARK       I    between atoms: C9_10  and  N2_12 
REMARK    6  A    between atoms: N2_12  and  C10_13 
REMARK    7  A    between atoms: C19_24  and  O2_25 
ROOT
HETATM    1  C10 UNL     1      24.185   1.811  51.489  1.00  0.00     0.069 A 
HETATM    2  C11 UNL     1      22.829   1.563  51.479  1.00  0.00     0.046 A 
HETATM    3  C12 UNL     1      22.264   0.643  52.331  1.00  0.00    -0.004 A 
HETATM    4  C13 UNL     1      20.916   0.341  52.373  1.00  0.00     0.038 A 
HETATM    5  C14 UNL     1      20.474  -0.604  53.274  1.00  0.00     0.063 A 
HETATM    6  C15 UNL     1      19.089  -0.949  53.352  1.00  0.00     0.101 C 
HETATM    7  N3  UNL     1      17.973  -1.233  53.427  1.00  0.00    -0.191 NA
HETATM    8  C16 UNL     1      21.327  -1.278  54.154  1.00  0.00     0.140 A 
HETATM    9  N4  UNL     1      22.630  -0.959  54.084  1.00  0.00    -0.259 NA
HETATM   10  C17 UNL     1      23.071  -0.040  53.209  1.00  0.00     0.069 A 
HETATM   11  C18 UNL     1      24.430   0.189  53.243  1.00  0.00     0.071 A 
HETATM   12  C19 UNL     1      25.013   1.119  52.383  1.00  0.00     0.097 A 
ENDROOT
BRANCH   1  13
HETATM   13  N2  UNL     1      24.826   2.744  50.637  1.00  0.00    -0.321 N 
HETATM   14  C9  UNL     1      24.848   4.138  50.440  1.00  0.00     0.245 C 
HETATM   15  O1  UNL     1      24.135   4.896  51.162  1.00  0.00    -0.268 OA
HETATM   16  H17 UNL     1      25.389   2.043  50.077  1.00  0.00     0.169 HD
BRANCH  14  17
HETATM   17  C8  UNL     1      25.698   4.696  49.397  1.00  0.00     0.072 C 
HETATM   18  C7  UNL     1      26.272   5.878  49.298  1.00  0.00     0.013 C 
BRANCH  18  19
HETATM   19  C5  UNL     1      27.144   6.376  48.175  1.00  0.00     0.242 C 
HETATM   20  C6  UNL     1      28.465   5.721  48.352  1.00  0.00     0.047 C 
BRANCH  19  21
HETATM   21  N1  UNL     1      27.100   7.798  48.199  1.00  0.00     0.095 N 
BRANCH  21  22
HETATM   22  C2  UNL     1      27.297   8.212  46.794  1.00  0.00     0.268 C 
HETATM   23  C1  UNL     1      25.989   8.485  46.122  1.00  0.00     0.037 C 
ENDBRANCH  21  22
BRANCH  21  24
HETATM   24  C3  UNL     1      28.106   8.443  49.012  1.00  0.00     0.268 C 
HETATM   25  C4  UNL     1      27.608   9.305  50.109  1.00  0.00     0.037 C 
ENDBRANCH  21  24
ENDBRANCH  19  21
ENDBRANCH  18  19
ENDBRANCH  14  17
ENDBRANCH   1  13
BRANCH  12  26
HETATM   26  O2  UNL     1      26.380   1.356  52.409  1.00  0.00    -0.354 OA
HETATM   27  C20 UNL     1      27.238   0.270  52.678  1.00  0.00     0.210 C 
ENDBRANCH  12  26
TORSDOF 7
ENDMDL
MODEL 6
REMARK VINA RESULT:      -7.0      2.231      9.397
REMARK  7 active torsions:
REMARK  status: ('A' for Active; 'I' for Inactive)
REMARK    1  A    between atoms: C2_2  and  N1_3 
REMARK    2  A    between atoms: N1_3  and  C3_4 
REMARK    3  A    between atoms: N1_3  and  C5_6 
REMARK    4  A    between atoms: C5_6  and  C7_8 
REMARK    5  A    between atoms: C8_9  and  C9_10 
REMARK       I    between atoms: C9_10  and  N2_12 
REMARK    6  A    between atoms: N2_12  and  C10_13 
REMARK    7  A    between atoms: C19_24  and  O2_25 
ROOT
HETATM    1  C10 UNL     1      25.922   4.534  49.620  1.00  0.00     0.069 A 
HETATM    2  C11 UNL     1      27.244   4.528  49.231  1.00  0.00     0.046 A 
HETATM    3  C12 UNL     1      27.781   5.570  48.512  1.00  0.00    -0.004 A 
HETATM    4  C13 UNL     1      29.095   5.631  48.087  1.00  0.00     0.038 A 
HETATM    5  C14 UNL     1      29.512   6.732  47.369  1.00  0.00     0.063 A 
HETATM    6  C15 UNL     1      30.861   6.837  46.908  1.00  0.00     0.101 C 
HETATM    7  N3  UNL     1      31.948   6.935  46.534  1.00  0.00    -0.191 NA
HETATM    8  C16 UNL     1      28.666   7.798  47.048  1.00  0.00     0.140 A 
HETATM    9  N4  UNL     1      27.397   7.705  47.478  1.00  0.00    -0.259 NA
HETATM   10  C17 UNL     1      26.981   6.636  48.177  1.00  0.00     0.069 A 
HETATM   11  C18 UNL     1      25.655   6.669  48.554  1.00  0.00     0.071 A 
HETATM   12  C19 UNL     1      25.100   5.618  49.282  1.00  0.00     0.097 A 
ENDROOT
BRANCH   1  13
HETATM   13  N2  UNL     1      25.309   3.491  50.360  1.00  0.00    -0.321 N 
HETATM   14  C9  UNL     1      25.677   2.547  51.336  1.00  0.00     0.245 C 
HETATM   15  O1  UNL     1      26.867   2.504  51.768  1.00  0.00    -0.268 OA
HETATM   16  H17 UNL     1      24.339   3.592  49.947  1.00  0.00     0.169 HD
BRANCH  14  17
HETATM   17  C8  UNL     1      24.673   1.621  51.844  1.00  0.00     0.072 C 
HETATM   18  C7  UNL     1      23.791   1.757  52.813  1.00  0.00     0.013 C 
BRANCH  18  19
HETATM   19  C5  UNL     1      22.780   0.740  53.275  1.00  0.00     0.242 C 
HETATM   20  C6  UNL     1      23.416  -0.589  53.100  1.00  0.00     0.047 C 
BRANCH  19  21
HETATM   21  N1  UNL     1      21.569   0.994  52.574  1.00  0.00     0.095 N 
BRANCH  21  22
HETATM   22  C2  UNL     1      20.498   0.791  53.573  1.00  0.00     0.268 C 
HETATM   23  C1  UNL     1      19.661  -0.402  53.233  1.00  0.00     0.037 C 
ENDBRANCH  21  22
BRANCH  21  24
HETATM   24  C3  UNL     1      21.307   0.134  51.442  1.00  0.00     0.268 C 
HETATM   25  C4  UNL     1      21.399   0.765  50.105  1.00  0.00     0.037 C 
ENDBRANCH  21  24
ENDBRANCH  19  21
ENDBRANCH  18  19
ENDBRANCH  14  17
ENDBRANCH   1  13
BRANCH  12  26
HETATM   26  O2  UNL     1      23.767   5.640  49.665  1.00  0.00    -0.354 OA
HETATM   27  C20 UNL     1      23.366   6.594  50.623  1.00  0.00     0.210 C 
ENDBRANCH  12  26
TORSDOF 7
ENDMDL
MODEL 7
REMARK VINA RESULT:      -6.8      4.747      8.679
REMARK  7 active torsions:
REMARK  status: ('A' for Active; 'I' for Inactive)
REMARK    1  A    between atoms: C2_2  and  N1_3 
REMARK    2  A    between atoms: N1_3  and  C3_4 
REMARK    3  A    between atoms: N1_3  and  C5_6 
REMARK    4  A    between atoms: C5_6  and  C7_8 
REMARK    5  A    between atoms: C8_9  and  C9_10 
REMARK       I    between atoms: C9_10  and  N2_12 
REMARK    6  A    between atoms: N2_12  and  C10_13 
REMARK    7  A    between atoms: C19_24  and  O2_25 
ROOT
HETATM    1  C10 UNL     1      23.168   1.324  52.134  1.00  0.00     0.069 A 
HETATM    2  C11 UNL     1      24.122   0.333  52.195  1.00  0.00     0.046 A 
HETATM    3  C12 UNL     1      25.359   0.564  52.752  1.00  0.00    -0.004 A 
HETATM    4  C13 UNL     1      26.363  -0.380  52.845  1.00  0.00     0.038 A 
HETATM    5  C14 UNL     1      27.562  -0.022  53.425  1.00  0.00     0.063 A 
HETATM    6  C15 UNL     1      28.630  -0.965  53.541  1.00  0.00     0.101 C 
HETATM    7  N3  UNL     1      29.498  -1.719  53.643  1.00  0.00    -0.191 NA
HETATM    8  C16 UNL     1      27.814   1.259  53.927  1.00  0.00     0.140 A 
HETATM    9  N4  UNL     1      26.815   2.150  53.819  1.00  0.00    -0.259 NA
HETATM   10  C17 UNL     1      25.643   1.810  53.256  1.00  0.00     0.069 A 
HETATM   11  C18 UNL     1      24.707   2.821  53.209  1.00  0.00     0.071 A 
HETATM   12  C19 UNL     1      23.452   2.597  52.646  1.00  0.00     0.097 A 
ENDROOT
BRANCH   1  13
HETATM   13  N2  UNL     1      21.878   1.149  51.572  1.00  0.00    -0.321 N 
HETATM   14  C9  UNL     1      21.289   1.123  50.294  1.00  0.00     0.245 C 
HETATM   15  O1  UNL     1      22.000   1.290  49.260  1.00  0.00    -0.268 OA
HETATM   16  H17 UNL     1      21.356   1.019  52.485  1.00  0.00     0.169 HD
BRANCH  14  17
HETATM   17  C8  UNL     1      19.854   0.899  50.177  1.00  0.00     0.072 C 
HETATM   18  C7  UNL     1      18.873   1.155  51.018  1.00  0.00     0.013 C 
BRANCH  18  19
HETATM   19  C5  UNL     1      17.404   0.891  50.813  1.00  0.00     0.242 C 
HETATM   20  C6  UNL     1      16.682   1.976  51.523  1.00  0.00     0.047 C 
BRANCH  19  21
HETATM   21  N1  UNL     1      17.152  -0.449  51.217  1.00  0.00     0.095 N 
BRANCH  21  22
HETATM   22  C2  UNL     1      15.896  -0.826  50.534  1.00  0.00     0.268 C 
HETATM   23  C1  UNL     1      16.064  -0.811  49.047  1.00  0.00     0.037 C 
ENDBRANCH  21  22
BRANCH  21  24
HETATM   24  C3  UNL     1      16.979  -0.654  52.637  1.00  0.00     0.268 C 
HETATM   25  C4  UNL     1      17.808  -1.718  53.251  1.00  0.00     0.037 C 
ENDBRANCH  21  24
ENDBRANCH  19  21
ENDBRANCH  18  19
ENDBRANCH  14  17
ENDBRANCH   1  13
BRANCH  12  26
HETATM   26  O2  UNL     1      22.502   3.609  52.593  1.00  0.00    -0.354 OA
HETATM   27  C20 UNL     1      22.893   4.861  52.077  1.00  0.00     0.210 C 
ENDBRANCH  12  26
TORSDOF 7
ENDMDL
MODEL 8
REMARK VINA RESULT:      -6.7      2.259      4.071
REMARK  7 active torsions:
REMARK  status: ('A' for Active; 'I' for Inactive)
REMARK    1  A    between atoms: C2_2  and  N1_3 
REMARK    2  A    between atoms: N1_3  and  C3_4 
REMARK    3  A    between atoms: N1_3  and  C5_6 
REMARK    4  A    between atoms: C5_6  and  C7_8 
REMARK    5  A    between atoms: C8_9  and  C9_10 
REMARK       I    between atoms: C9_10  and  N2_12 
REMARK    6  A    between atoms: N2_12  and  C10_13 
REMARK    7  A    between atoms: C19_24  and  O2_25 
ROOT
HETATM    1  C10 UNL     1      25.317   4.084  49.908  1.00  0.00     0.069 A 
HETATM    2  C11 UNL     1      25.825   3.306  50.925  1.00  0.00     0.046 A 
HETATM    3  C12 UNL     1      25.072   2.313  51.509  1.00  0.00    -0.004 A 
HETATM    4  C13 UNL     1      25.514   1.498  52.534  1.00  0.00     0.038 A 
HETATM    5  C14 UNL     1      24.660   0.539  53.036  1.00  0.00     0.063 A 
HETATM    6  C15 UNL     1      25.073  -0.326  54.097  1.00  0.00     0.101 C 
HETATM    7  N3  UNL     1      25.397  -1.032  54.950  1.00  0.00    -0.191 NA
HETATM    8  C16 UNL     1      23.360   0.349  52.557  1.00  0.00     0.140 A 
HETATM    9  N4  UNL     1      22.965   1.159  51.562  1.00  0.00    -0.259 NA
HETATM   10  C17 UNL     1      23.790   2.097  51.066  1.00  0.00     0.069 A 
HETATM   11  C18 UNL     1      23.256   2.859  50.049  1.00  0.00     0.071 A 
HETATM   12  C19 UNL     1      24.010   3.868  49.451  1.00  0.00     0.097 A 
ENDROOT
BRANCH   1  13
HETATM   13  N2  UNL     1      26.040   5.121  49.268  1.00  0.00    -0.321 N 
HETATM   14  C9  UNL     1      27.301   5.300  48.667  1.00  0.00     0.245 C 
HETATM   15  O1  UNL     1      28.127   4.341  48.617  1.00  0.00    -0.268 OA
HETATM   16  H17 UNL     1      25.296   5.870  49.351  1.00  0.00     0.169 HD
BRANCH  14  17
HETATM   17  C8  UNL     1      27.644   6.600  48.105  1.00  0.00     0.072 C 
HETATM   18  C7  UNL     1      28.811   7.109  47.768  1.00  0.00     0.013 C 
BRANCH  18  19
HETATM   19  C5  UNL     1      29.077   8.473  47.187  1.00  0.00     0.242 C 
HETATM   20  C6  UNL     1      28.772   8.376  45.738  1.00  0.00     0.047 C 
BRANCH  19  21
HETATM   21  N1  UNL     1      30.396   8.848  47.564  1.00  0.00     0.095 N 
BRANCH  21  22
HETATM   22  C2  UNL     1      30.429   8.711  49.035  1.00  0.00     0.268 C 
HETATM   23  C1  UNL     1      31.739   8.155  49.497  1.00  0.00     0.037 C 
ENDBRANCH  21  22
BRANCH  21  24
HETATM   24  C3  UNL     1      30.787  10.197  47.221  1.00  0.00     0.268 C 
HETATM   25  C4  UNL     1      30.270  11.272  48.099  1.00  0.00     0.037 C 
ENDBRANCH  21  24
ENDBRANCH  19  21
ENDBRANCH  18  19
ENDBRANCH  14  17
ENDBRANCH   1  13
BRANCH  12  26
HETATM   26  O2  UNL     1      23.483   4.642  48.426  1.00  0.00    -0.354 OA
HETATM   27  C20 UNL     1      22.409   5.504  48.730  1.00  0.00     0.210 C 
ENDBRANCH  12  26
TORSDOF 7
ENDMDL
MODEL 9
REMARK VINA RESULT:      -6.5      5.172      8.748
REMARK  7 active torsions:
REMARK  status: ('A' for Active; 'I' for Inactive)
REMARK    1  A    between atoms: C2_2  and  N1_3 
REMARK    2  A    between atoms: N1_3  and  C3_4 
REMARK    3  A    between atoms: N1_3  and  C5_6 
REMARK    4  A    between atoms: C5_6  and  C7_8 
REMARK    5  A    between atoms: C8_9  and  C9_10 
REMARK       I    between atoms: C9_10  and  N2_12 
REMARK    6  A    between atoms: N2_12  and  C10_13 
REMARK    7  A    between atoms: C19_24  and  O2_25 
ROOT
HETATM    1  C10 UNL     1      22.450   1.348  52.722  1.00  0.00     0.069 A 
HETATM    2  C11 UNL     1      23.649   2.021  52.799  1.00  0.00     0.046 A 
HETATM    3  C12 UNL     1      24.772   1.424  53.324  1.00  0.00    -0.004 A 
HETATM    4  C13 UNL     1      26.004   2.039  53.436  1.00  0.00     0.038 A 
HETATM    5  C14 UNL     1      27.054   1.331  53.983  1.00  0.00     0.063 A 
HETATM    6  C15 UNL     1      28.346   1.927  54.120  1.00  0.00     0.101 C 
HETATM    7  N3  UNL     1      29.395   2.395  54.232  1.00  0.00    -0.191 NA
HETATM    8  C16 UNL     1      26.932   0.013  54.435  1.00  0.00     0.140 A 
HETATM    9  N4  UNL     1      25.719  -0.551  54.310  1.00  0.00    -0.259 NA
HETATM   10  C17 UNL     1      24.691   0.130  53.779  1.00  0.00     0.069 A 
HETATM   11  C18 UNL     1      23.504  -0.569  53.712  1.00  0.00     0.071 A 
HETATM   12  C19 UNL     1      22.361   0.027  53.183  1.00  0.00     0.097 A 
ENDROOT
BRANCH   1  13
HETATM   13  N2  UNL     1      21.260   1.907  52.194  1.00  0.00    -0.321 N 
HETATM   14  C9  UNL     1      20.689   3.184  52.025  1.00  0.00     0.245 C 
HETATM   15  O1  UNL     1      21.310   4.217  52.413  1.00  0.00    -0.268 OA
HETATM   16  H17 UNL     1      20.807   0.996  51.899  1.00  0.00     0.169 HD
BRANCH  14  17
HETATM   17  C8  UNL     1      19.379   3.300  51.400  1.00  0.00     0.072 C 
HETATM   18  C7  UNL     1      18.236   2.707  51.682  1.00  0.00     0.013 C 
BRANCH  18  19
HETATM   19  C5  UNL     1      16.917   2.889  50.978  1.00  0.00     0.242 C 
HETATM   20  C6  UNL     1      16.975   4.218  50.321  1.00  0.00     0.047 C 
BRANCH  19  21
HETATM   21  N1  UNL     1      15.889   2.667  51.936  1.00  0.00     0.095 N 
BRANCH  21  22
HETATM   22  C2  UNL     1      14.732   2.183  51.153  1.00  0.00     0.268 C 
HETATM   23  C1  UNL     1      14.912   0.753  50.751  1.00  0.00     0.037 C 
ENDBRANCH  21  22
BRANCH  21  24
HETATM   24  C3  UNL     1      15.475   3.826  52.693  1.00  0.00     0.268 C 
HETATM   25  C4  UNL     1      14.020   3.969  52.932  1.00  0.00     0.037 C 
ENDBRANCH  21  24
ENDBRANCH  19  21
ENDBRANCH  18  19
ENDBRANCH  14  17
ENDBRANCH   1  13
BRANCH  12  26
HETATM   26  O2  UNL     1      21.161  -0.667  53.112  1.00  0.00    -0.354 OA
HETATM   27  C20 UNL     1      20.841  -1.550  54.164  1.00  0.00     0.210 C 
ENDBRANCH  12  26
TORSDOF 7
ENDMDL
