MODEL 1
REMARK VINA RESULT:      -7.6      0.000      0.000
REMARK  4 active torsions:
REMARK  status: ('A' for Active; 'I' for Inactive)
REMARK    1  A    between atoms: N1_2  and  C1_3 
REMARK    2  A    between atoms: C4_6  and  O1_7 
REMARK    3  A    between atoms: O1_7  and  N2_8 
REMARK    4  A    between atoms: N2_8  and  C5_9 
ROOT
HETATM    1  C1  UNL     1      24.624  -0.167  53.459  1.00  0.00     0.134 A 
HETATM    2  C2  UNL     1      25.341   0.691  52.654  1.00  0.00     0.069 A 
HETATM    3  C3  UNL     1      26.592   1.133  53.090  1.00  0.00     0.053 A 
HETATM    4  C4  UNL     1      27.418   2.000  52.378  1.00  0.00     0.205 A 
HETATM    5  N3  UNL     1      28.602   2.355  52.900  1.00  0.00    -0.215 NA
HETATM    6  C11 UNL     1      28.963   1.866  54.102  1.00  0.00     0.236 A 
HETATM    7  N4  UNL     1      28.181   1.032  54.802  1.00  0.00    -0.240 NA
HETATM    8  C12 UNL     1      26.986   0.643  54.325  1.00  0.00     0.090 A 
HETATM    9  C13 UNL     1      26.269  -0.214  55.129  1.00  0.00     0.151 A 
HETATM   10  N5  UNL     1      25.066  -0.611  54.659  1.00  0.00    -0.240 NA
ENDROOT
BRANCH   4  11
HETATM   11  O1  UNL     1      26.856   2.374  51.180  1.00  0.00    -0.216 OA
BRANCH  11  12
HETATM   12  N2  UNL     1      26.714   3.663  50.732  1.00  0.00    -0.259 N 
HETATM   13  H3  UNL     1      27.367   4.469  50.868  1.00  0.00     0.195 HD
BRANCH  12  14
HETATM   14  C5  UNL     1      25.529   3.981  49.975  1.00  0.00     0.054 A 
HETATM   15  C6  UNL     1      24.456   3.105  49.814  1.00  0.00     0.031 A 
HETATM   16  C7  UNL     1      23.356   3.488  49.072  1.00  0.00     0.002 A 
HETATM   17  C8  UNL     1      23.274   4.713  48.479  1.00  0.00     0.000 A 
HETATM   18  C9  UNL     1      24.311   5.615  48.610  1.00  0.00     0.002 A 
HETATM   19  C10 UNL     1      25.386   5.212  49.348  1.00  0.00     0.031 A 
ENDBRANCH  12  14
ENDBRANCH  11  12
ENDBRANCH   4  11
BRANCH   1  20
HETATM   20  N1  UNL     1      23.352  -0.604  52.992  1.00  0.00    -0.307 N 
HETATM   21 BR1  UNL     1      22.466  -1.052  54.622  1.00  0.00     0.048 Br
HETATM   22  H1  UNL     1      22.667  -0.807  52.256  1.00  0.00     0.175 HD
ENDBRANCH   1  20
TORSDOF 4
ENDMDL
MODEL 2
REMARK VINA RESULT:      -7.6      2.574      4.436
REMARK  4 active torsions:
REMARK  status: ('A' for Active; 'I' for Inactive)
REMARK    1  A    between atoms: N1_2  and  C1_3 
REMARK    2  A    between atoms: C4_6  and  O1_7 
REMARK    3  A    between atoms: O1_7  and  N2_8 
REMARK    4  A    between atoms: N2_8  and  C5_9 
ROOT
HETATM    1  C1  UNL     1      25.369  -0.641  54.600  1.00  0.00     0.134 A 
HETATM    2  C2  UNL     1      24.597  -0.133  53.578  1.00  0.00     0.069 A 
HETATM    3  C3  UNL     1      23.213  -0.318  53.626  1.00  0.00     0.053 A 
HETATM    4  C4  UNL     1      22.319   0.141  52.662  1.00  0.00     0.205 A 
HETATM    5  N3  UNL     1      21.008  -0.098  52.817  1.00  0.00    -0.215 NA
HETATM    6  C11 UNL     1      20.587  -0.778  53.900  1.00  0.00     0.236 A 
HETATM    7  N4  UNL     1      21.433  -1.230  54.838  1.00  0.00    -0.240 NA
HETATM    8  C12 UNL     1      22.757  -1.017  54.733  1.00  0.00     0.090 A 
HETATM    9  C13 UNL     1      23.529  -1.524  55.753  1.00  0.00     0.151 A 
HETATM   10  N5  UNL     1      24.861  -1.316  55.658  1.00  0.00    -0.240 NA
ENDROOT
BRANCH   4  11
HETATM   11  O1  UNL     1      22.961   0.809  51.646  1.00  0.00    -0.216 OA
BRANCH  11  12
HETATM   12  N2  UNL     1      22.940   2.166  51.441  1.00  0.00    -0.259 N 
HETATM   13  H3  UNL     1      22.183   2.843  51.692  1.00  0.00     0.195 HD
BRANCH  12  14
HETATM   14  C5  UNL     1      24.087   2.764  50.806  1.00  0.00     0.054 A 
HETATM   15  C6  UNL     1      23.999   3.728  49.802  1.00  0.00     0.031 A 
HETATM   16  C7  UNL     1      25.148   4.252  49.245  1.00  0.00     0.002 A 
HETATM   17  C8  UNL     1      26.391   3.859  49.645  1.00  0.00     0.000 A 
HETATM   18  C9  UNL     1      26.529   2.908  50.636  1.00  0.00     0.002 A 
HETATM   19  C10 UNL     1      25.377   2.406  51.170  1.00  0.00     0.031 A 
ENDBRANCH  12  14
ENDBRANCH  11  12
ENDBRANCH   4  11
BRANCH   1  20
HETATM   20  N1  UNL     1      26.776  -0.438  54.529  1.00  0.00    -0.307 N 
HETATM   21 BR1  UNL     1      27.123  -0.716  52.673  1.00  0.00     0.048 Br
HETATM   22  H1  UNL     1      27.693  -0.227  54.939  1.00  0.00     0.175 HD
ENDBRANCH   1  20
TORSDOF 4
ENDMDL
MODEL 3
REMARK VINA RESULT:      -7.6      2.286      3.615
REMARK  4 active torsions:
REMARK  status: ('A' for Active; 'I' for Inactive)
REMARK    1  A    between atoms: N1_2  and  C1_3 
REMARK    2  A    between atoms: C4_6  and  O1_7 
REMARK    3  A    between atoms: O1_7  and  N2_8 
REMARK    4  A    between atoms: N2_8  and  C5_9 
ROOT
HETATM    1  C1  UNL     1      27.672   0.462  54.189  1.00  0.00     0.134 A 
HETATM    2  C2  UNL     1      27.347   1.234  53.095  1.00  0.00     0.069 A 
HETATM    3  C3  UNL     1      26.019   1.261  52.663  1.00  0.00     0.053 A 
HETATM    4  C4  UNL     1      25.555   1.996  51.575  1.00  0.00     0.205 A 
HETATM    5  N3  UNL     1      24.253   1.942  51.255  1.00  0.00    -0.215 NA
HETATM    6  C11 UNL     1      23.425   1.178  51.992  1.00  0.00     0.236 A 
HETATM    7  N4  UNL     1      23.853   0.463  53.042  1.00  0.00    -0.240 NA
HETATM    8  C12 UNL     1      25.147   0.481  53.408  1.00  0.00     0.090 A 
HETATM    9  C13 UNL     1      25.474  -0.290  54.500  1.00  0.00     0.151 A 
HETATM   10  N5  UNL     1      26.772  -0.279  54.876  1.00  0.00    -0.240 NA
ENDROOT
BRANCH   4  11
HETATM   11  O1  UNL     1      26.565   2.702  50.966  1.00  0.00    -0.216 OA
BRANCH  11  12
HETATM   12  N2  UNL     1      26.689   2.920  49.617  1.00  0.00    -0.259 N 
HETATM   13  H3  UNL     1      26.801   2.210  48.857  1.00  0.00     0.195 HD
BRANCH  12  14
HETATM   14  C5  UNL     1      26.662   4.286  49.155  1.00  0.00     0.054 A 
HETATM   15  C6  UNL     1      27.777   4.952  48.649  1.00  0.00     0.031 A 
HETATM   16  C7  UNL     1      27.667   6.262  48.226  1.00  0.00     0.002 A 
HETATM   17  C8  UNL     1      26.488   6.945  48.285  1.00  0.00     0.000 A 
HETATM   18  C9  UNL     1      25.356   6.327  48.779  1.00  0.00     0.002 A 
HETATM   19  C10 UNL     1      25.493   5.032  49.189  1.00  0.00     0.031 A 
ENDBRANCH  12  14
ENDBRANCH  11  12
ENDBRANCH   4  11
BRANCH   1  20
HETATM   20  N1  UNL     1      29.032   0.452  54.610  1.00  0.00    -0.307 N 
HETATM   21 BR1  UNL     1      29.754  -0.984  53.581  1.00  0.00     0.048 Br
HETATM   22  H1  UNL     1      29.821   0.799  55.167  1.00  0.00     0.175 HD
ENDBRANCH   1  20
TORSDOF 4
ENDMDL
MODEL 4
REMARK VINA RESULT:      -7.5      2.137      3.819
REMARK  4 active torsions:
REMARK  status: ('A' for Active; 'I' for Inactive)
REMARK    1  A    between atoms: N1_2  and  C1_3 
REMARK    2  A    between atoms: C4_6  and  O1_7 
REMARK    3  A    between atoms: O1_7  and  N2_8 
REMARK    4  A    between atoms: N2_8  and  C5_9 
ROOT
HETATM    1  C1  UNL     1      26.761   0.821  54.228  1.00  0.00     0.134 A 
HETATM    2  C2  UNL     1      26.008   1.482  53.282  1.00  0.00     0.069 A 
HETATM    3  C3  UNL     1      24.741   0.987  52.967  1.00  0.00     0.053 A 
HETATM    4  C4  UNL     1      23.878   1.557  52.032  1.00  0.00     0.205 A 
HETATM    5  N3  UNL     1      22.682   0.990  51.814  1.00  0.00    -0.215 NA
HETATM    6  C11 UNL     1      22.343  -0.117  52.501  1.00  0.00     0.236 A 
HETATM    7  N4  UNL     1      23.160  -0.680  53.403  1.00  0.00    -0.240 NA
HETATM    8  C12 UNL     1      24.370  -0.153  53.663  1.00  0.00     0.090 A 
HETATM    9  C13 UNL     1      25.123  -0.813  54.606  1.00  0.00     0.151 A 
HETATM   10  N5  UNL     1      26.341  -0.292  54.875  1.00  0.00    -0.240 NA
ENDROOT
BRANCH   4  11
HETATM   11  O1  UNL     1      24.423   2.677  51.450  1.00  0.00    -0.216 OA
BRANCH  11  12
HETATM   12  N2  UNL     1      24.256   3.059  50.143  1.00  0.00    -0.259 N 
HETATM   13  H3  UNL     1      23.524   2.741  49.466  1.00  0.00     0.195 HD
BRANCH  12  14
HETATM   14  C5  UNL     1      25.187   4.018  49.603  1.00  0.00     0.054 A 
HETATM   15  C6  UNL     1      24.833   5.314  49.228  1.00  0.00     0.031 A 
HETATM   16  C7  UNL     1      25.787   6.172  48.719  1.00  0.00     0.002 A 
HETATM   17  C8  UNL     1      27.089   5.797  48.564  1.00  0.00     0.000 A 
HETATM   18  C9  UNL     1      27.488   4.525  48.921  1.00  0.00     0.002 A 
HETATM   19  C10 UNL     1      26.525   3.697  49.422  1.00  0.00     0.031 A 
ENDBRANCH  12  14
ENDBRANCH  11  12
ENDBRANCH   4  11
BRANCH   1  20
HETATM   20  N1  UNL     1      28.049   1.345  54.533  1.00  0.00    -0.307 N 
HETATM   21 BR1  UNL     1      29.200  -0.029  53.878  1.00  0.00     0.048 Br
HETATM   22  H1  UNL     1      28.681   2.058  54.914  1.00  0.00     0.175 HD
ENDBRANCH   1  20
TORSDOF 4
ENDMDL
MODEL 5
REMARK VINA RESULT:      -7.4      2.933      6.388
REMARK  4 active torsions:
REMARK  status: ('A' for Active; 'I' for Inactive)
REMARK    1  A    between atoms: N1_2  and  C1_3 
REMARK    2  A    between atoms: C4_6  and  O1_7 
REMARK    3  A    between atoms: O1_7  and  N2_8 
REMARK    4  A    between atoms: N2_8  and  C5_9 
ROOT
HETATM    1  C1  UNL     1      24.172   2.864  51.799  1.00  0.00     0.134 A 
HETATM    2  C2  UNL     1      24.451   1.607  52.290  1.00  0.00     0.069 A 
HETATM    3  C3  UNL     1      23.400   0.831  52.784  1.00  0.00     0.053 A 
HETATM    4  C4  UNL     1      23.542  -0.452  53.308  1.00  0.00     0.205 A 
HETATM    5  N3  UNL     1      22.456  -1.101  53.754  1.00  0.00    -0.215 NA
HETATM    6  C11 UNL     1      21.254  -0.498  53.686  1.00  0.00     0.236 A 
HETATM    7  N4  UNL     1      21.099   0.737  53.186  1.00  0.00    -0.240 NA
HETATM    8  C12 UNL     1      22.153   1.432  52.724  1.00  0.00     0.090 A 
HETATM    9  C13 UNL     1      21.876   2.688  52.235  1.00  0.00     0.151 A 
HETATM   10  N5  UNL     1      22.928   3.396  51.768  1.00  0.00    -0.240 NA
ENDROOT
BRANCH   4  11
HETATM   11  O1  UNL     1      24.850  -0.874  53.282  1.00  0.00    -0.216 OA
BRANCH  11  12
HETATM   12  N2  UNL     1      25.698  -0.918  54.360  1.00  0.00    -0.259 N 
HETATM   13  H3  UNL     1      25.477  -1.202  55.342  1.00  0.00     0.195 HD
BRANCH  12  14
HETATM   14  C5  UNL     1      27.071  -0.533  54.147  1.00  0.00     0.054 A 
HETATM   15  C6  UNL     1      27.644   0.617  54.690  1.00  0.00     0.031 A 
HETATM   16  C7  UNL     1      28.969   0.914  54.438  1.00  0.00     0.002 A 
HETATM   17  C8  UNL     1      29.756   0.113  53.664  1.00  0.00     0.000 A 
HETATM   18  C9  UNL     1      29.233  -1.036  53.105  1.00  0.00     0.002 A 
HETATM   19  C10 UNL     1      27.922  -1.306  53.370  1.00  0.00     0.031 A 
ENDBRANCH  12  14
ENDBRANCH  11  12
ENDBRANCH   4  11
BRANCH   1  20
HETATM   20  N1  UNL     1      25.260   3.636  51.300  1.00  0.00    -0.307 N 
HETATM   21 BR1  UNL     1      26.701   2.388  51.384  1.00  0.00     0.048 Br
HETATM   22  H1  UNL     1      25.677   4.495  50.926  1.00  0.00     0.175 HD
ENDBRANCH   1  20
TORSDOF 4
ENDMDL
MODEL 6
REMARK VINA RESULT:      -7.3      2.181      5.409
REMARK  4 active torsions:
REMARK  status: ('A' for Active; 'I' for Inactive)
REMARK    1  A    between atoms: N1_2  and  C1_3 
REMARK    2  A    between atoms: C4_6  and  O1_7 
REMARK    3  A    between atoms: O1_7  and  N2_8 
REMARK    4  A    between atoms: N2_8  and  C5_9 
ROOT
HETATM    1  C1  UNL     1      22.440  -0.173  53.417  1.00  0.00     0.134 A 
HETATM    2  C2  UNL     1      23.540   0.648  53.540  1.00  0.00     0.069 A 
HETATM    3  C3  UNL     1      23.848   1.518  52.492  1.00  0.00     0.053 A 
HETATM    4  C4  UNL     1      24.927   2.399  52.485  1.00  0.00     0.205 A 
HETATM    5  N3  UNL     1      25.122   3.188  51.418  1.00  0.00    -0.215 NA
HETATM    6  C11 UNL     1      24.270   3.111  50.378  1.00  0.00     0.236 A 
HETATM    7  N4  UNL     1      23.226   2.270  50.366  1.00  0.00    -0.240 NA
HETATM    8  C12 UNL     1      22.984   1.457  51.409  1.00  0.00     0.090 A 
HETATM    9  C13 UNL     1      21.886   0.636  51.288  1.00  0.00     0.151 A 
HETATM   10  N5  UNL     1      21.633  -0.186  52.331  1.00  0.00    -0.240 NA
ENDROOT
BRANCH   4  11
HETATM   11  O1  UNL     1      25.664   2.313  53.643  1.00  0.00    -0.216 OA
BRANCH  11  12
HETATM   12  N2  UNL     1      27.032   2.394  53.728  1.00  0.00    -0.259 N 
HETATM   13  H3  UNL     1      27.619   3.246  53.878  1.00  0.00     0.195 HD
BRANCH  12  14
HETATM   14  C5  UNL     1      27.783   1.170  53.599  1.00  0.00     0.054 A 
HETATM   15  C6  UNL     1      29.147   1.069  53.869  1.00  0.00     0.031 A 
HETATM   16  C7  UNL     1      29.793  -0.143  53.721  1.00  0.00     0.002 A 
HETATM   17  C8  UNL     1      29.138  -1.267  53.313  1.00  0.00     0.000 A 
HETATM   18  C9  UNL     1      27.787  -1.217  53.034  1.00  0.00     0.002 A 
HETATM   19  C10 UNL     1      27.173  -0.007  53.189  1.00  0.00     0.031 A 
ENDBRANCH  12  14
ENDBRANCH  11  12
ENDBRANCH   4  11
BRANCH   1  20
HETATM   20  N1  UNL     1      22.147  -1.051  54.499  1.00  0.00    -0.307 N 
HETATM   21 BR1  UNL     1      23.856  -1.248  55.324  1.00  0.00     0.048 Br
HETATM   22  H1  UNL     1      21.514  -1.629  55.064  1.00  0.00     0.175 HD
ENDBRANCH   1  20
TORSDOF 4
ENDMDL
MODEL 7
REMARK VINA RESULT:      -7.0      2.501      5.392
REMARK  4 active torsions:
REMARK  status: ('A' for Active; 'I' for Inactive)
REMARK    1  A    between atoms: N1_2  and  C1_3 
REMARK    2  A    between atoms: C4_6  and  O1_7 
REMARK    3  A    between atoms: O1_7  and  N2_8 
REMARK    4  A    between atoms: N2_8  and  C5_9 
ROOT
HETATM    1  C1  UNL     1      21.985   0.892  52.442  1.00  0.00     0.134 A 
HETATM    2  C2  UNL     1      23.133   1.496  51.976  1.00  0.00     0.069 A 
HETATM    3  C3  UNL     1      23.131   2.879  51.779  1.00  0.00     0.053 A 
HETATM    4  C4  UNL     1      24.218   3.614  51.312  1.00  0.00     0.205 A 
HETATM    5  N3  UNL     1      24.097   4.941  51.163  1.00  0.00    -0.215 NA
HETATM    6  C11 UNL     1      22.926   5.533  51.465  1.00  0.00     0.236 A 
HETATM    7  N4  UNL     1      21.868   4.843  51.914  1.00  0.00    -0.240 NA
HETATM    8  C12 UNL     1      21.935   3.510  52.084  1.00  0.00     0.090 A 
HETATM    9  C13 UNL     1      20.789   2.905  52.549  1.00  0.00     0.151 A 
HETATM   10  N5  UNL     1      20.846   1.567  52.723  1.00  0.00    -0.240 NA
ENDROOT
BRANCH   4  11
HETATM   11  O1  UNL     1      25.309   2.813  51.067  1.00  0.00    -0.216 OA
BRANCH  11  12
HETATM   12  N2  UNL     1      26.583   3.034  51.528  1.00  0.00    -0.259 N 
HETATM   13  H3  UNL     1      27.181   3.880  51.388  1.00  0.00     0.195 HD
BRANCH  12  14
HETATM   14  C5  UNL     1      27.202   1.990  52.306  1.00  0.00     0.054 A 
HETATM   15  C6  UNL     1      28.174   2.223  53.277  1.00  0.00     0.031 A 
HETATM   16  C7  UNL     1      28.718   1.166  53.980  1.00  0.00     0.002 A 
HETATM   17  C8  UNL     1      28.335  -0.124  53.758  1.00  0.00     0.000 A 
HETATM   18  C9  UNL     1      27.375  -0.405  52.807  1.00  0.00     0.002 A 
HETATM   19  C10 UNL     1      26.854   0.658  52.127  1.00  0.00     0.031 A 
ENDBRANCH  12  14
ENDBRANCH  11  12
ENDBRANCH   4  11
BRANCH   1  20
HETATM   20  N1  UNL     1      22.012  -0.518  52.636  1.00  0.00    -0.307 N 
HETATM   21 BR1  UNL     1      21.388  -0.682  54.432  1.00  0.00     0.048 Br
HETATM   22  H1  UNL     1      22.188  -1.481  52.330  1.00  0.00     0.175 HD
ENDBRANCH   1  20
TORSDOF 4
ENDMDL
MODEL 8
REMARK VINA RESULT:      -6.9      3.313      6.836
REMARK  4 active torsions:
REMARK  status: ('A' for Active; 'I' for Inactive)
REMARK    1  A    between atoms: N1_2  and  C1_3 
REMARK    2  A    between atoms: C4_6  and  O1_7 
REMARK    3  A    between atoms: O1_7  and  N2_8 
REMARK    4  A    between atoms: N2_8  and  C5_9 
ROOT
HETATM    1  C1  UNL     1      26.182   4.327  49.527  1.00  0.00     0.134 A 
HETATM    2  C2  UNL     1      26.101   3.376  50.521  1.00  0.00     0.069 A 
HETATM    3  C3  UNL     1      24.850   3.080  51.066  1.00  0.00     0.053 A 
HETATM    4  C4  UNL     1      24.626   2.144  52.073  1.00  0.00     0.205 A 
HETATM    5  N3  UNL     1      23.376   1.946  52.518  1.00  0.00    -0.215 NA
HETATM    6  C11 UNL     1      22.367   2.658  51.982  1.00  0.00     0.236 A 
HETATM    7  N4  UNL     1      22.562   3.564  51.014  1.00  0.00    -0.240 NA
HETATM    8  C12 UNL     1      23.794   3.801  50.530  1.00  0.00     0.090 A 
HETATM    9  C13 UNL     1      23.877   4.751  49.537  1.00  0.00     0.151 A 
HETATM   10  N5  UNL     1      25.111   4.998  49.044  1.00  0.00    -0.240 NA
ENDROOT
BRANCH   4  11
HETATM   11  O1  UNL     1      25.792   1.534  52.473  1.00  0.00    -0.216 OA
BRANCH  11  12
HETATM   12  N2  UNL     1      26.063   0.192  52.386  1.00  0.00    -0.259 N 
HETATM   13  H3  UNL     1      25.437  -0.570  52.037  1.00  0.00     0.195 HD
BRANCH  12  14
HETATM   14  C5  UNL     1      27.362  -0.257  52.819  1.00  0.00     0.054 A 
HETATM   15  C6  UNL     1      27.761  -1.593  52.809  1.00  0.00     0.031 A 
HETATM   16  C7  UNL     1      29.026  -1.941  53.241  1.00  0.00     0.002 A 
HETATM   17  C8  UNL     1      29.919  -1.012  53.686  1.00  0.00     0.000 A 
HETATM   18  C9  UNL     1      29.570   0.323  53.715  1.00  0.00     0.002 A 
HETATM   19  C10 UNL     1      28.315   0.640  53.282  1.00  0.00     0.031 A 
ENDBRANCH  12  14
ENDBRANCH  11  12
ENDBRANCH   4  11
BRANCH   1  20
HETATM   20  N1  UNL     1      27.468   4.610  48.986  1.00  0.00    -0.307 N 
HETATM   21 BR1  UNL     1      27.264   6.416  48.405  1.00  0.00     0.048 Br
HETATM   22  H1  UNL     1      28.434   4.363  48.743  1.00  0.00     0.175 HD
ENDBRANCH   1  20
TORSDOF 4
ENDMDL
MODEL 9
REMARK VINA RESULT:      -6.8      2.912      6.239
REMARK  4 active torsions:
REMARK  status: ('A' for Active; 'I' for Inactive)
REMARK    1  A    between atoms: N1_2  and  C1_3 
REMARK    2  A    between atoms: C4_6  and  O1_7 
REMARK    3  A    between atoms: O1_7  and  N2_8 
REMARK    4  A    between atoms: N2_8  and  C5_9 
ROOT
HETATM    1  C1  UNL     1      23.806   6.423  50.888  1.00  0.00     0.134 A 
HETATM    2  C2  UNL     1      24.505   5.257  50.666  1.00  0.00     0.069 A 
HETATM    3  C3  UNL     1      25.671   5.308  49.899  1.00  0.00     0.053 A 
HETATM    4  C4  UNL     1      26.470   4.207  49.598  1.00  0.00     0.205 A 
HETATM    5  N3  UNL     1      27.570   4.381  48.850  1.00  0.00    -0.215 NA
HETATM    6  C11 UNL     1      27.875   5.615  48.405  1.00  0.00     0.236 A 
HETATM    7  N4  UNL     1      27.118   6.686  48.684  1.00  0.00    -0.240 NA
HETATM    8  C12 UNL     1      26.006   6.569  49.431  1.00  0.00     0.090 A 
HETATM    9  C13 UNL     1      25.307   7.734  49.653  1.00  0.00     0.151 A 
HETATM   10  N5  UNL     1      24.187   7.628  50.402  1.00  0.00    -0.240 NA
ENDROOT
BRANCH   4  11
HETATM   11  O1  UNL     1      25.975   3.050  50.150  1.00  0.00    -0.216 OA
BRANCH  11  12
HETATM   12  N2  UNL     1      26.681   2.172  50.934  1.00  0.00    -0.259 N 
HETATM   13  H3  UNL     1      27.720   2.067  51.009  1.00  0.00     0.195 HD
BRANCH  12  14
HETATM   14  C5  UNL     1      25.931   1.269  51.770  1.00  0.00     0.054 A 
HETATM   15  C6  UNL     1      26.466   0.109  52.330  1.00  0.00     0.031 A 
HETATM   16  C7  UNL     1      25.678  -0.703  53.121  1.00  0.00     0.002 A 
HETATM   17  C8  UNL     1      24.372  -0.412  53.383  1.00  0.00     0.000 A 
HETATM   18  C9  UNL     1      23.798   0.725  52.851  1.00  0.00     0.002 A 
HETATM   19  C10 UNL     1      24.598   1.511  52.073  1.00  0.00     0.031 A 
ENDBRANCH  12  14
ENDBRANCH  11  12
ENDBRANCH   4  11
BRANCH   1  20
HETATM   20  N1  UNL     1      22.622   6.345  51.674  1.00  0.00    -0.307 N 
HETATM   21 BR1  UNL     1      22.229   4.479  51.614  1.00  0.00     0.048 Br
HETATM   22  H1  UNL     1      21.874   6.753  52.246  1.00  0.00     0.175 HD
ENDBRANCH   1  20
TORSDOF 4
ENDMDL
