MODEL 1
REMARK VINA RESULT:     -10.1      0.000      0.000
REMARK  0 active torsions:
REMARK  status: ('A' for Active; 'I' for Inactive)
ROOT
HETATM    1  C1  UNL     1      19.610   1.800  50.269  1.00  0.00     0.043 C 
HETATM    2  C2  UNL     1      21.081   1.576  50.018  1.00  0.00     0.046 C 
HETATM    3  C3  UNL     1      21.207   0.948  48.625  1.00  0.00     0.043 C 
HETATM    4  C4  UNL     1      21.535   0.556  50.990  1.00  0.00    -0.001 C 
HETATM    5  C5  UNL     1      22.077  -0.124  52.037  1.00  0.00    -0.024 C 
HETATM    6  C6  UNL     1      22.829   0.506  53.180  1.00  0.00     0.074 C 
HETATM    7  C7  UNL     1      24.275   0.112  53.103  1.00  0.00     0.194 C 
HETATM    8  N1  UNL     1      24.838  -0.415  54.307  1.00  0.00    -0.351 N 
HETATM    9  C8  UNL     1      26.227  -0.007  54.424  1.00  0.00     0.151 A 
HETATM   10  N2  UNL     1      27.382  -0.307  55.042  1.00  0.00    -0.241 NA
HETATM   11  C9  UNL     1      28.512   0.429  54.828  1.00  0.00     0.119 A 
HETATM   12  C10 UNL     1      28.582   1.537  53.972  1.00  0.00     0.022 A 
HETATM   13  C11 UNL     1      27.409   1.907  53.293  1.00  0.00     0.035 A 
HETATM   14  C12 UNL     1      26.333   1.104  53.577  1.00  0.00     0.083 A 
HETATM   15  N3  UNL     1      25.097   1.361  52.979  1.00  0.00    -0.321 N 
HETATM   16  C13 UNL     1      24.377   2.422  52.338  1.00  0.00     0.039 A 
HETATM   17  C14 UNL     1      24.468   3.547  53.124  1.00  0.00     0.031 A 
HETATM   18  C15 UNL     1      23.620   4.593  52.739  1.00  0.00     0.022 A 
HETATM   19  C16 UNL     1      22.789   4.424  51.649  1.00  0.00     0.058 A 
HETATM   20  C17 UNL     1      22.866   3.215  51.015  1.00  0.00     0.051 A 
HETATM   21  C18 UNL     1      23.625   2.112  51.238  1.00  0.00     0.060 A 
HETATM   22  N4  UNL     1      21.853   2.820  50.058  1.00  0.00    -0.342 N 
HETATM   23  C19 UNL     1      21.699   3.911  49.163  1.00  0.00     0.102 C 
HETATM   24  C20 UNL     1      23.033   4.391  48.635  1.00  0.00     0.063 C 
HETATM   25  C21 UNL     1      20.792   3.724  47.998  1.00  0.00     0.063 C 
HETATM   26  N5  UNL     1      21.122   5.080  49.889  1.00  0.00    -0.331 N 
HETATM   27  C22 UNL     1      21.872   5.426  51.073  1.00  0.00     0.255 C 
HETATM   28  O1  UNL     1      21.830   6.524  51.690  1.00  0.00    -0.268 OA
HETATM   29  H12 UNL     1      24.464  -1.013  55.091  1.00  0.00     0.163 HD
HETATM   30  H25 UNL     1      20.294   5.712  49.738  1.00  0.00     0.165 HD
ENDROOT
TORSDOF 0
ENDMDL
MODEL 2
REMARK VINA RESULT:      -9.1      2.721      7.100
REMARK  0 active torsions:
REMARK  status: ('A' for Active; 'I' for Inactive)
ROOT
HETATM    1  C1  UNL     1      26.836   2.583  53.554  1.00  0.00     0.043 C 
HETATM    2  C2  UNL     1      25.941   1.979  52.499  1.00  0.00     0.046 C 
HETATM    3  C3  UNL     1      26.768   1.884  51.211  1.00  0.00     0.043 C 
HETATM    4  C4  UNL     1      24.857   2.954  52.241  1.00  0.00    -0.001 C 
HETATM    5  C5  UNL     1      23.688   3.646  52.186  1.00  0.00    -0.024 C 
HETATM    6  C6  UNL     1      22.407   3.234  52.865  1.00  0.00     0.074 C 
HETATM    7  C7  UNL     1      21.396   2.844  51.827  1.00  0.00     0.194 C 
HETATM    8  N1  UNL     1      20.114   3.465  51.948  1.00  0.00    -0.351 N 
HETATM    9  C8  UNL     1      19.074   2.538  51.539  1.00  0.00     0.151 A 
HETATM   10  N2  UNL     1      17.795   2.476  51.130  1.00  0.00    -0.241 NA
HETATM   11  C9  UNL     1      17.197   1.281  50.852  1.00  0.00     0.119 A 
HETATM   12  C10 UNL     1      17.832   0.036  50.960  1.00  0.00     0.022 A 
HETATM   13  C11 UNL     1      19.172   0.027  51.382  1.00  0.00     0.035 A 
HETATM   14  C12 UNL     1      19.678   1.277  51.635  1.00  0.00     0.083 A 
HETATM   15  N3  UNL     1      20.997   1.419  52.071  1.00  0.00    -0.321 N 
HETATM   16  C13 UNL     1      22.044   0.662  52.693  1.00  0.00     0.039 A 
HETATM   17  C14 UNL     1      21.525   0.027  53.797  1.00  0.00     0.031 A 
HETATM   18  C15 UNL     1      22.484  -0.560  54.633  1.00  0.00     0.022 A 
HETATM   19  C16 UNL     1      23.821  -0.458  54.304  1.00  0.00     0.058 A 
HETATM   20  C17 UNL     1      24.108   0.225  53.154  1.00  0.00     0.051 A 
HETATM   21  C18 UNL     1      23.320   0.836  52.233  1.00  0.00     0.060 A 
HETATM   22  N4  UNL     1      25.464   0.644  52.865  1.00  0.00    -0.342 N 
HETATM   23  C19 UNL     1      26.286  -0.498  53.057  1.00  0.00     0.102 C 
HETATM   24  C20 UNL     1      25.739  -1.705  52.327  1.00  0.00     0.063 C 
HETATM   25  C21 UNL     1      27.728  -0.375  52.711  1.00  0.00     0.063 C 
HETATM   26  N5  UNL     1      26.289  -0.881  54.499  1.00  0.00    -0.331 N 
HETATM   27  C22 UNL     1      24.958  -1.049  55.033  1.00  0.00     0.255 C 
HETATM   28  O1  UNL     1      24.650  -1.667  56.088  1.00  0.00    -0.268 OA
HETATM   29  H12 UNL     1      19.787   4.418  52.261  1.00  0.00     0.163 HD
HETATM   30  H25 UNL     1      27.037  -1.056  55.218  1.00  0.00     0.165 HD
ENDROOT
TORSDOF 0
ENDMDL
MODEL 3
REMARK VINA RESULT:      -8.9      2.501      4.474
REMARK  0 active torsions:
REMARK  status: ('A' for Active; 'I' for Inactive)
ROOT
HETATM    1  C1  UNL     1      25.151   7.212  47.756  1.00  0.00     0.043 C 
HETATM    2  C2  UNL     1      24.997   6.754  49.185  1.00  0.00     0.046 C 
HETATM    3  C3  UNL     1      25.311   7.960  50.078  1.00  0.00     0.043 C 
HETATM    4  C4  UNL     1      26.054   5.749  49.434  1.00  0.00    -0.001 C 
HETATM    5  C5  UNL     1      26.782   4.616  49.630  1.00  0.00    -0.024 C 
HETATM    6  C6  UNL     1      26.226   3.216  49.597  1.00  0.00     0.074 C 
HETATM    7  C7  UNL     1      26.271   2.628  50.976  1.00  0.00     0.194 C 
HETATM    8  N1  UNL     1      26.876   1.336  51.078  1.00  0.00    -0.351 N 
HETATM    9  C8  UNL     1      26.203   0.554  52.099  1.00  0.00     0.151 A 
HETATM   10  N2  UNL     1      26.352  -0.515  52.901  1.00  0.00    -0.241 NA
HETATM   11  C9  UNL     1      25.359  -0.906  53.753  1.00  0.00     0.119 A 
HETATM   12  C10 UNL     1      24.123  -0.255  53.876  1.00  0.00     0.022 A 
HETATM   13  C11 UNL     1      23.900   0.871  53.067  1.00  0.00     0.035 A 
HETATM   14  C12 UNL     1      24.958   1.179  52.249  1.00  0.00     0.083 A 
HETATM   15  N3  UNL     1      24.873   2.271  51.382  1.00  0.00    -0.321 N 
HETATM   16  C13 UNL     1      23.895   3.107  50.749  1.00  0.00     0.039 A 
HETATM   17  C14 UNL     1      22.944   2.302  50.168  1.00  0.00     0.031 A 
HETATM   18  C15 UNL     1      22.056   2.974  49.318  1.00  0.00     0.022 A 
HETATM   19  C16 UNL     1      22.197   4.335  49.132  1.00  0.00     0.058 A 
HETATM   20  C17 UNL     1      23.220   4.933  49.814  1.00  0.00     0.051 A 
HETATM   21  C18 UNL     1      24.152   4.448  50.675  1.00  0.00     0.060 A 
HETATM   22  N4  UNL     1      23.643   6.277  49.478  1.00  0.00    -0.342 N 
HETATM   23  C19 UNL     1      22.465   7.068  49.431  1.00  0.00     0.102 C 
HETATM   24  C20 UNL     1      21.615   6.874  50.667  1.00  0.00     0.063 C 
HETATM   25  C21 UNL     1      22.627   8.533  49.218  1.00  0.00     0.063 C 
HETATM   26  N5  UNL     1      21.607   6.627  48.293  1.00  0.00    -0.331 N 
HETATM   27  C22 UNL     1      21.332   5.210  48.319  1.00  0.00     0.255 C 
HETATM   28  O1  UNL     1      20.404   4.619  47.705  1.00  0.00    -0.268 OA
HETATM   29  H12 UNL     1      27.677   0.860  50.584  1.00  0.00     0.163 HD
HETATM   30  H25 UNL     1      21.156   7.111  47.475  1.00  0.00     0.165 HD
ENDROOT
TORSDOF 0
ENDMDL
MODEL 4
REMARK VINA RESULT:      -8.9      2.561      4.791
REMARK  0 active torsions:
REMARK  status: ('A' for Active; 'I' for Inactive)
ROOT
HETATM    1  C1  UNL     1      25.725   5.317  49.024  1.00  0.00     0.043 C 
HETATM    2  C2  UNL     1      24.629   5.112  50.041  1.00  0.00     0.046 C 
HETATM    3  C3  UNL     1      24.510   6.416  50.839  1.00  0.00     0.043 C 
HETATM    4  C4  UNL     1      25.102   4.074  50.983  1.00  0.00    -0.001 C 
HETATM    5  C5  UNL     1      25.337   2.929  51.680  1.00  0.00    -0.024 C 
HETATM    6  C6  UNL     1      24.699   1.595  51.391  1.00  0.00     0.074 C 
HETATM    7  C7  UNL     1      23.764   1.237  52.508  1.00  0.00     0.194 C 
HETATM    8  N1  UNL     1      23.938  -0.068  53.066  1.00  0.00    -0.351 N 
HETATM    9  C8  UNL     1      22.651  -0.614  53.460  1.00  0.00     0.151 A 
HETATM   10  N2  UNL     1      22.077  -1.548  54.238  1.00  0.00    -0.241 NA
HETATM   11  C9  UNL     1      20.722  -1.708  54.269  1.00  0.00     0.119 A 
HETATM   12  C10 UNL     1      19.819  -0.943  53.519  1.00  0.00     0.022 A 
HETATM   13  C11 UNL     1      20.351   0.053  52.682  1.00  0.00     0.035 A 
HETATM   14  C12 UNL     1      21.720   0.132  52.725  1.00  0.00     0.083 A 
HETATM   15  N3  UNL     1      22.388   1.072  51.936  1.00  0.00    -0.321 N 
HETATM   16  C13 UNL     1      22.188   1.876  50.766  1.00  0.00     0.039 A 
HETATM   17  C14 UNL     1      21.697   1.072  49.764  1.00  0.00     0.031 A 
HETATM   18  C15 UNL     1      21.674   1.671  48.498  1.00  0.00     0.022 A 
HETATM   19  C16 UNL     1      22.130   2.967  48.355  1.00  0.00     0.058 A 
HETATM   20  C17 UNL     1      22.577   3.577  49.494  1.00  0.00     0.051 A 
HETATM   21  C18 UNL     1      22.658   3.160  50.783  1.00  0.00     0.060 A 
HETATM   22  N4  UNL     1      23.338   4.808  49.420  1.00  0.00    -0.342 N 
HETATM   23  C19 UNL     1      22.610   5.679  48.568  1.00  0.00     0.102 C 
HETATM   24  C20 UNL     1      21.153   5.761  48.970  1.00  0.00     0.063 C 
HETATM   25  C21 UNL     1      23.115   7.070  48.411  1.00  0.00     0.063 C 
HETATM   26  N5  UNL     1      22.602   5.135  47.178  1.00  0.00    -0.331 N 
HETATM   27  C22 UNL     1      22.136   3.769  47.118  1.00  0.00     0.255 C 
HETATM   28  O1  UNL     1      21.719   3.168  46.091  1.00  0.00    -0.268 OA
HETATM   29  H12 UNL     1      24.776  -0.685  53.241  1.00  0.00     0.163 HD
HETATM   30  H25 UNL     1      22.858   5.516  46.232  1.00  0.00     0.165 HD
ENDROOT
TORSDOF 0
ENDMDL
MODEL 5
REMARK VINA RESULT:      -8.6      2.608      6.307
REMARK  0 active torsions:
REMARK  status: ('A' for Active; 'I' for Inactive)
ROOT
HETATM    1  C1  UNL     1      22.567  -1.808  52.945  1.00  0.00     0.043 C 
HETATM    2  C2  UNL     1      22.706  -0.340  53.265  1.00  0.00     0.046 C 
HETATM    3  C3  UNL     1      21.918  -0.087  54.556  1.00  0.00     0.043 C 
HETATM    4  C4  UNL     1      22.016   0.405  52.188  1.00  0.00    -0.001 C 
HETATM    5  C5  UNL     1      21.683   1.143  51.095  1.00  0.00    -0.024 C 
HETATM    6  C6  UNL     1      22.667   1.725  50.113  1.00  0.00     0.074 C 
HETATM    7  C7  UNL     1      22.667   3.221  50.236  1.00  0.00     0.194 C 
HETATM    8  N1  UNL     1      22.512   3.941  49.011  1.00  0.00    -0.351 N 
HETATM    9  C8  UNL     1      23.289   5.167  49.055  1.00  0.00     0.151 A 
HETATM   10  N2  UNL     1      23.412   6.378  48.484  1.00  0.00    -0.241 NA
HETATM   11  C9  UNL     1      24.378   7.255  48.885  1.00  0.00     0.119 A 
HETATM   12  C10 UNL     1      25.312   6.993  49.898  1.00  0.00     0.022 A 
HETATM   13  C11 UNL     1      25.240   5.744  50.538  1.00  0.00     0.035 A 
HETATM   14  C12 UNL     1      24.236   4.939  50.062  1.00  0.00     0.083 A 
HETATM   15  N3  UNL     1      24.053   3.663  50.601  1.00  0.00    -0.321 N 
HETATM   16  C13 UNL     1      24.765   2.662  51.338  1.00  0.00     0.039 A 
HETATM   17  C14 UNL     1      25.985   2.462  50.736  1.00  0.00     0.031 A 
HETATM   18  C15 UNL     1      26.691   1.348  51.208  1.00  0.00     0.022 A 
HETATM   19  C16 UNL     1      26.132   0.565  52.199  1.00  0.00     0.058 A 
HETATM   20  C17 UNL     1      24.902   0.953  52.652  1.00  0.00     0.051 A 
HETATM   21  C18 UNL     1      24.093   1.993  52.323  1.00  0.00     0.060 A 
HETATM   22  N4  UNL     1      24.101   0.060  53.465  1.00  0.00    -0.342 N 
HETATM   23  C19 UNL     1      24.952  -0.414  54.497  1.00  0.00     0.102 C 
HETATM   24  C20 UNL     1      25.679   0.722  55.184  1.00  0.00     0.063 C 
HETATM   25  C21 UNL     1      24.343  -1.267  55.554  1.00  0.00     0.063 C 
HETATM   26  N5  UNL     1      26.026  -1.269  53.912  1.00  0.00    -0.331 N 
HETATM   27  C22 UNL     1      26.746  -0.608  52.849  1.00  0.00     0.255 C 
HETATM   28  O1  UNL     1      27.878  -0.934  52.400  1.00  0.00    -0.268 OA
HETATM   29  H12 UNL     1      21.970   3.769  48.122  1.00  0.00     0.163 HD
HETATM   30  H25 UNL     1      26.380  -2.242  54.095  1.00  0.00     0.165 HD
ENDROOT
TORSDOF 0
ENDMDL
MODEL 6
REMARK VINA RESULT:      -8.4      2.285      4.232
REMARK  0 active torsions:
REMARK  status: ('A' for Active; 'I' for Inactive)
ROOT
HETATM    1  C1  UNL     1      24.302   5.827  48.471  1.00  0.00     0.043 C 
HETATM    2  C2  UNL     1      23.667   5.514  49.803  1.00  0.00     0.046 C 
HETATM    3  C3  UNL     1      23.565   6.836  50.572  1.00  0.00     0.043 C 
HETATM    4  C4  UNL     1      24.619   4.658  50.546  1.00  0.00    -0.001 C 
HETATM    5  C5  UNL     1      25.291   3.636  51.141  1.00  0.00    -0.024 C 
HETATM    6  C6  UNL     1      24.868   2.189  51.109  1.00  0.00     0.074 C 
HETATM    7  C7  UNL     1      24.444   1.763  52.484  1.00  0.00     0.194 C 
HETATM    8  N1  UNL     1      25.046   0.561  52.971  1.00  0.00    -0.351 N 
HETATM    9  C8  UNL     1      24.095  -0.172  53.788  1.00  0.00     0.151 A 
HETATM   10  N2  UNL     1      24.005  -1.126  54.731  1.00  0.00    -0.241 NA
HETATM   11  C9  UNL     1      22.796  -1.523  55.224  1.00  0.00     0.119 A 
HETATM   12  C10 UNL     1      21.564  -0.996  54.813  1.00  0.00     0.022 A 
HETATM   13  C11 UNL     1      21.584   0.006  53.828  1.00  0.00     0.035 A 
HETATM   14  C12 UNL     1      22.846   0.332  53.401  1.00  0.00     0.083 A 
HETATM   15  N3  UNL     1      23.017   1.308  52.416  1.00  0.00    -0.321 N 
HETATM   16  C13 UNL     1      22.288   1.963  51.370  1.00  0.00     0.039 A 
HETATM   17  C14 UNL     1      21.662   1.005  50.609  1.00  0.00     0.031 A 
HETATM   18  C15 UNL     1      21.105   1.483  49.416  1.00  0.00     0.022 A 
HETATM   19  C16 UNL     1      21.224   2.824  49.105  1.00  0.00     0.058 A 
HETATM   20  C17 UNL     1      21.893   3.596  50.013  1.00  0.00     0.051 A 
HETATM   21  C18 UNL     1      22.475   3.308  51.205  1.00  0.00     0.060 A 
HETATM   22  N4  UNL     1      22.330   4.933  49.664  1.00  0.00    -0.342 N 
HETATM   23  C19 UNL     1      21.205   5.586  49.095  1.00  0.00     0.102 C 
HETATM   24  C20 UNL     1      19.977   5.439  49.968  1.00  0.00     0.063 C 
HETATM   25  C21 UNL     1      21.346   7.027  48.752  1.00  0.00     0.063 C 
HETATM   26  N5  UNL     1      20.845   4.937  47.801  1.00  0.00    -0.331 N 
HETATM   27  C22 UNL     1      20.663   3.510  47.926  1.00  0.00     0.255 C 
HETATM   28  O1  UNL     1      20.057   2.761  47.113  1.00  0.00    -0.268 OA
HETATM   29  H12 UNL     1      25.998   0.120  52.862  1.00  0.00     0.163 HD
HETATM   30  H25 UNL     1      20.694   5.278  46.818  1.00  0.00     0.165 HD
ENDROOT
TORSDOF 0
ENDMDL
MODEL 7
REMARK VINA RESULT:      -8.4      3.000      6.091
REMARK  0 active torsions:
REMARK  status: ('A' for Active; 'I' for Inactive)
ROOT
HETATM    1  C1  UNL     1      25.454   2.458  51.842  1.00  0.00     0.043 C 
HETATM    2  C2  UNL     1      24.043   2.789  52.263  1.00  0.00     0.046 C 
HETATM    3  C3  UNL     1      24.131   3.981  53.223  1.00  0.00     0.043 C 
HETATM    4  C4  UNL     1      23.547   1.639  53.053  1.00  0.00    -0.001 C 
HETATM    5  C5  UNL     1      22.932   0.514  53.505  1.00  0.00    -0.024 C 
HETATM    6  C6  UNL     1      22.004  -0.351  52.690  1.00  0.00     0.074 C 
HETATM    7  C7  UNL     1      20.609  -0.233  53.230  1.00  0.00     0.194 C 
HETATM    8  N1  UNL     1      19.943  -1.469  53.498  1.00  0.00    -0.351 N 
HETATM    9  C8  UNL     1      18.525  -1.340  53.211  1.00  0.00     0.151 A 
HETATM   10  N2  UNL     1      17.327  -1.895  53.463  1.00  0.00    -0.241 NA
HETATM   11  C9  UNL     1      16.183  -1.390  52.915  1.00  0.00     0.119 A 
HETATM   12  C10 UNL     1      16.140  -0.277  52.063  1.00  0.00     0.022 A 
HETATM   13  C11 UNL     1      17.358   0.353  51.758  1.00  0.00     0.035 A 
HETATM   14  C12 UNL     1      18.445  -0.231  52.358  1.00  0.00     0.083 A 
HETATM   15  N3  UNL     1      19.724   0.286  52.137  1.00  0.00    -0.321 N 
HETATM   16  C13 UNL     1      20.440   1.102  51.200  1.00  0.00     0.039 A 
HETATM   17  C14 UNL     1      20.177   0.641  49.931  1.00  0.00     0.031 A 
HETATM   18  C15 UNL     1      20.990   1.193  48.933  1.00  0.00     0.022 A 
HETATM   19  C16 UNL     1      21.956   2.116  49.283  1.00  0.00     0.058 A 
HETATM   20  C17 UNL     1      22.041   2.426  50.612  1.00  0.00     0.051 A 
HETATM   21  C18 UNL     1      21.339   2.005  51.695  1.00  0.00     0.060 A 
HETATM   22  N4  UNL     1      23.188   3.145  51.129  1.00  0.00    -0.342 N 
HETATM   23  C19 UNL     1      23.373   4.268  50.280  1.00  0.00     0.102 C 
HETATM   24  C20 UNL     1      22.082   5.031  50.078  1.00  0.00     0.063 C 
HETATM   25  C21 UNL     1      24.425   5.251  50.659  1.00  0.00     0.063 C 
HETATM   26  N5  UNL     1      23.775   3.810  48.919  1.00  0.00    -0.331 N 
HETATM   27  C22 UNL     1      22.864   2.834  48.368  1.00  0.00     0.255 C 
HETATM   28  O1  UNL     1      22.756   2.517  47.153  1.00  0.00    -0.268 OA
HETATM   29  H12 UNL     1      20.260  -2.413  53.846  1.00  0.00     0.163 HD
HETATM   30  H25 UNL     1      24.568   4.034  48.266  1.00  0.00     0.165 HD
ENDROOT
TORSDOF 0
ENDMDL
MODEL 8
REMARK VINA RESULT:      -8.3      3.719      6.195
REMARK  0 active torsions:
REMARK  status: ('A' for Active; 'I' for Inactive)
ROOT
HETATM    1  C1  UNL     1      20.841   3.365  51.468  1.00  0.00     0.043 C 
HETATM    2  C2  UNL     1      22.239   3.314  50.902  1.00  0.00     0.046 C 
HETATM    3  C3  UNL     1      22.853   1.980  51.344  1.00  0.00     0.043 C 
HETATM    4  C4  UNL     1      23.015   4.384  51.568  1.00  0.00    -0.001 C 
HETATM    5  C5  UNL     1      23.682   5.522  51.901  1.00  0.00    -0.024 C 
HETATM    6  C6  UNL     1      23.847   6.720  51.002  1.00  0.00     0.074 C 
HETATM    7  C7  UNL     1      25.286   6.846  50.599  1.00  0.00     0.194 C 
HETATM    8  N1  UNL     1      25.872   8.136  50.792  1.00  0.00    -0.351 N 
HETATM    9  C8  UNL     1      26.829   8.409  49.734  1.00  0.00     0.151 A 
HETATM   10  N2  UNL     1      27.881   9.183  49.416  1.00  0.00    -0.241 NA
HETATM   11  C9  UNL     1      28.495   9.079  48.201  1.00  0.00     0.119 A 
HETATM   12  C10 UNL     1      28.104   8.186  47.192  1.00  0.00     0.022 A 
HETATM   13  C11 UNL     1      27.009   7.347  47.459  1.00  0.00     0.035 A 
HETATM   14  C12 UNL     1      26.467   7.530  48.705  1.00  0.00     0.083 A 
HETATM   15  N3  UNL     1      25.365   6.768  49.103  1.00  0.00    -0.321 N 
HETATM   16  C13 UNL     1      24.298   5.990  48.544  1.00  0.00     0.039 A 
HETATM   17  C14 UNL     1      23.697   6.726  47.550  1.00  0.00     0.031 A 
HETATM   18  C15 UNL     1      22.494   6.187  47.076  1.00  0.00     0.022 A 
HETATM   19  C16 UNL     1      22.021   5.009  47.620  1.00  0.00     0.058 A 
HETATM   20  C17 UNL     1      22.787   4.449  48.604  1.00  0.00     0.051 A 
HETATM   21  C18 UNL     1      23.965   4.820  49.169  1.00  0.00     0.060 A 
HETATM   22  N4  UNL     1      22.256   3.391  49.439  1.00  0.00    -0.342 N 
HETATM   23  C19 UNL     1      21.688   2.433  48.559  1.00  0.00     0.102 C 
HETATM   24  C20 UNL     1      22.648   2.056  47.452  1.00  0.00     0.063 C 
HETATM   25  C21 UNL     1      21.169   1.172  49.156  1.00  0.00     0.063 C 
HETATM   26  N5  UNL     1      20.505   3.022  47.867  1.00  0.00    -0.331 N 
HETATM   27  C22 UNL     1      20.808   4.274  47.215  1.00  0.00     0.255 C 
HETATM   28  O1  UNL     1      20.129   4.826  46.308  1.00  0.00    -0.268 OA
HETATM   29  H12 UNL     1      25.754   8.895  51.516  1.00  0.00     0.163 HD
HETATM   30  H25 UNL     1      19.500   2.736  47.745  1.00  0.00     0.165 HD
ENDROOT
TORSDOF 0
ENDMDL
MODEL 9
REMARK VINA RESULT:      -8.3      3.625      5.777
REMARK  0 active torsions:
REMARK  status: ('A' for Active; 'I' for Inactive)
ROOT
HETATM    1  C1  UNL     1      27.089   7.824  46.711  1.00  0.00     0.043 C 
HETATM    2  C2  UNL     1      26.630   7.574  48.127  1.00  0.00     0.046 C 
HETATM    3  C3  UNL     1      27.138   8.745  48.976  1.00  0.00     0.043 C 
HETATM    4  C4  UNL     1      27.335   6.362  48.603  1.00  0.00    -0.001 C 
HETATM    5  C5  UNL     1      27.697   5.108  48.984  1.00  0.00    -0.024 C 
HETATM    6  C6  UNL     1      26.793   3.902  48.957  1.00  0.00     0.074 C 
HETATM    7  C7  UNL     1      26.496   3.470  50.363  1.00  0.00     0.194 C 
HETATM    8  N1  UNL     1      26.711   2.085  50.643  1.00  0.00    -0.351 N 
HETATM    9  C8  UNL     1      25.724   1.613  51.597  1.00  0.00     0.151 A 
HETATM   10  N2  UNL     1      25.472   0.633  52.481  1.00  0.00    -0.241 NA
HETATM   11  C9  UNL     1      24.308   0.602  53.194  1.00  0.00     0.119 A 
HETATM   12  C10 UNL     1      23.288   1.558  53.081  1.00  0.00     0.022 A 
HETATM   13  C11 UNL     1      23.486   2.613  52.174  1.00  0.00     0.035 A 
HETATM   14  C12 UNL     1      24.685   2.550  51.511  1.00  0.00     0.083 A 
HETATM   15  N3  UNL     1      25.013   3.530  50.571  1.00  0.00    -0.321 N 
HETATM   16  C13 UNL     1      24.388   4.519  49.741  1.00  0.00     0.039 A 
HETATM   17  C14 UNL     1      23.340   3.929  49.074  1.00  0.00     0.031 A 
HETATM   18  C15 UNL     1      22.786   4.714  48.054  1.00  0.00     0.022 A 
HETATM   19  C16 UNL     1      23.313   5.965  47.803  1.00  0.00     0.058 A 
HETATM   20  C17 UNL     1      24.361   6.348  48.594  1.00  0.00     0.051 A 
HETATM   21  C18 UNL     1      25.006   5.733  49.618  1.00  0.00     0.060 A 
HETATM   22  N4  UNL     1      25.172   7.495  48.238  1.00  0.00    -0.342 N 
HETATM   23  C19 UNL     1      24.267   8.553  47.957  1.00  0.00     0.102 C 
HETATM   24  C20 UNL     1      23.242   8.715  49.058  1.00  0.00     0.063 C 
HETATM   25  C21 UNL     1      24.845   9.896  47.676  1.00  0.00     0.063 C 
HETATM   26  N5  UNL     1      23.480   8.231  46.732  1.00  0.00    -0.331 N 
HETATM   27  C22 UNL     1      22.831   6.943  46.810  1.00  0.00     0.255 C 
HETATM   28  O1  UNL     1      21.867   6.550  46.100  1.00  0.00    -0.268 OA
HETATM   29  H12 UNL     1      27.412   1.369  50.311  1.00  0.00     0.163 HD
HETATM   30  H25 UNL     1      23.287   8.726  45.824  1.00  0.00     0.165 HD
ENDROOT
TORSDOF 0
ENDMDL
