MODEL 1
REMARK VINA RESULT:      -8.2      0.000      0.000
REMARK  3 active torsions:
REMARK  status: ('A' for Active; 'I' for Inactive)
REMARK    1  A    between atoms: C6_6  and  N1_7 
REMARK    2  A    between atoms: N1_7  and  C7_8 
REMARK    3  A    between atoms: C13_17  and  N4_18 
ROOT
HETATM    1  C7  UNL     1      24.737   3.336  51.175  1.00  0.00     0.141 C 
HETATM    2  N2  UNL     1      24.058   4.388  51.564  1.00  0.00    -0.226 NA
HETATM    3  C8  UNL     1      23.368   4.509  52.798  1.00  0.00     0.234 C 
HETATM    4  N3  UNL     1      22.455   4.137  52.064  1.00  0.00    -0.254 NA
HETATM    5  C9  UNL     1      21.116   3.864  52.205  1.00  0.00     0.116 C 
HETATM    6  C10 UNL     1      20.348   2.749  52.262  1.00  0.00     0.018 C 
HETATM    7  C11 UNL     1      21.325   1.566  52.134  1.00  0.00     0.196 C 
HETATM    8  O1  UNL     1      22.565   2.093  52.038  1.00  0.00    -0.385 OA
HETATM    9  C12 UNL     1      23.602   1.224  51.894  1.00  0.00     0.211 C 
HETATM   10  C13 UNL     1      24.848   2.118  51.987  1.00  0.00     0.315 C 
ENDROOT
BRANCH   1  11
HETATM   11  N1  UNL     1      25.329   3.470  49.895  1.00  0.00    -0.343 N 
HETATM   12  H7  UNL     1      25.307   2.564  49.363  1.00  0.00     0.167 HD
BRANCH  11  13
HETATM   13  C6  UNL     1      25.908   4.594  49.268  1.00  0.00     0.034 A 
HETATM   14  C5  UNL     1      25.305   5.759  48.869  1.00  0.00     0.029 A 
HETATM   15  C4  UNL     1      25.951   6.813  48.265  1.00  0.00     0.003 A 
HETATM   16  C3  UNL     1      27.303   6.736  48.026  1.00  0.00     0.007 A 
HETATM   17  C2  UNL     1      27.951   5.588  48.409  1.00  0.00    -0.060 A 
HETATM   18  C1  UNL     1      29.399   5.509  48.149  1.00  0.00     0.048 C 
HETATM   19  C18 UNL     1      27.261   4.573  49.004  1.00  0.00     0.036 A 
ENDBRANCH  11  13
ENDBRANCH   1  11
BRANCH  10  20
HETATM   20  N4  UNL     1      26.075   1.457  51.825  1.00  0.00     0.106 N 
HETATM   21  C14 UNL     1      26.189   0.160  52.434  1.00  0.00     0.299 C 
HETATM   22  C15 UNL     1      26.517   0.182  53.903  1.00  0.00     0.198 C 
HETATM   23  O2  UNL     1      26.869   1.434  54.354  1.00  0.00    -0.388 OA
HETATM   24  C16 UNL     1      27.847   1.908  53.461  1.00  0.00     0.198 C 
HETATM   25  C17 UNL     1      27.231   2.272  52.130  1.00  0.00     0.299 C 
ENDBRANCH  10  20
TORSDOF 3
ENDMDL
MODEL 2
REMARK VINA RESULT:      -8.1      3.208      5.170
REMARK  3 active torsions:
REMARK  status: ('A' for Active; 'I' for Inactive)
REMARK    1  A    between atoms: C6_6  and  N1_7 
REMARK    2  A    between atoms: N1_7  and  C7_8 
REMARK    3  A    between atoms: C13_17  and  N4_18 
ROOT
HETATM    1  C7  UNL     1      24.680   1.488  52.536  1.00  0.00     0.141 C 
HETATM    2  N2  UNL     1      24.885   2.756  52.800  1.00  0.00    -0.226 NA
HETATM    3  C8  UNL     1      23.925   3.647  53.346  1.00  0.00     0.234 C 
HETATM    4  N3  UNL     1      23.787   3.873  52.146  1.00  0.00    -0.254 NA
HETATM    5  C9  UNL     1      23.002   4.694  51.374  1.00  0.00     0.116 C 
HETATM    6  C10 UNL     1      21.918   4.539  50.575  1.00  0.00     0.018 C 
HETATM    7  C11 UNL     1      21.575   3.040  50.629  1.00  0.00     0.196 C 
HETATM    8  O1  UNL     1      22.465   2.466  51.466  1.00  0.00    -0.385 OA
HETATM    9  C12 UNL     1      22.367   1.121  51.654  1.00  0.00     0.211 C 
HETATM   10  C13 UNL     1      23.389   0.829  52.764  1.00  0.00     0.315 C 
ENDROOT
BRANCH   1  11
HETATM   11  N1  UNL     1      25.804   0.821  51.990  1.00  0.00    -0.343 N 
HETATM   12  H7  UNL     1      25.642   0.547  50.989  1.00  0.00     0.167 HD
BRANCH  11  13
HETATM   13  C6  UNL     1      27.049   0.498  52.574  1.00  0.00     0.034 A 
HETATM   14  C5  UNL     1      27.990   1.340  53.108  1.00  0.00     0.029 A 
HETATM   15  C4  UNL     1      29.182   0.936  53.665  1.00  0.00     0.003 A 
HETATM   16  C3  UNL     1      29.493  -0.403  53.709  1.00  0.00     0.007 A 
HETATM   17  C2  UNL     1      28.581  -1.285  53.186  1.00  0.00    -0.060 A 
HETATM   18  C1  UNL     1      28.919  -2.718  53.235  1.00  0.00     0.048 C 
HETATM   19  C18 UNL     1      27.413  -0.829  52.646  1.00  0.00     0.036 A 
ENDBRANCH  11  13
ENDBRANCH   1  11
BRANCH  10  20
HETATM   20  N4  UNL     1      23.515  -0.522  53.124  1.00  0.00     0.106 N 
HETATM   21  C14 UNL     1      22.353  -1.346  52.929  1.00  0.00     0.299 C 
HETATM   22  C15 UNL     1      21.330  -1.260  54.028  1.00  0.00     0.198 C 
HETATM   23  O2  UNL     1      21.786  -0.577  55.133  1.00  0.00    -0.388 OA
HETATM   24  C16 UNL     1      23.036  -1.139  55.449  1.00  0.00     0.198 C 
HETATM   25  C17 UNL     1      24.082  -0.734  54.437  1.00  0.00     0.299 C 
ENDBRANCH  10  20
TORSDOF 3
ENDMDL
MODEL 3
REMARK VINA RESULT:      -7.6      3.220      5.046
REMARK  3 active torsions:
REMARK  status: ('A' for Active; 'I' for Inactive)
REMARK    1  A    between atoms: C6_6  and  N1_7 
REMARK    2  A    between atoms: N1_7  and  C7_8 
REMARK    3  A    between atoms: C13_17  and  N4_18 
ROOT
HETATM    1  C7  UNL     1      23.923   2.364  52.127  1.00  0.00     0.141 C 
HETATM    2  N2  UNL     1      24.282   3.558  52.533  1.00  0.00    -0.226 NA
HETATM    3  C8  UNL     1      23.417   4.524  53.110  1.00  0.00     0.234 C 
HETATM    4  N3  UNL     1      23.402   4.880  51.933  1.00  0.00    -0.254 NA
HETATM    5  C9  UNL     1      22.798   5.876  51.206  1.00  0.00     0.116 C 
HETATM    6  C10 UNL     1      21.767   5.958  50.330  1.00  0.00     0.018 C 
HETATM    7  C11 UNL     1      21.214   4.526  50.207  1.00  0.00     0.196 C 
HETATM    8  O1  UNL     1      21.952   3.752  51.032  1.00  0.00    -0.385 OA
HETATM    9  C12 UNL     1      21.653   2.424  51.074  1.00  0.00     0.211 C 
HETATM   10  C13 UNL     1      22.538   1.882  52.206  1.00  0.00     0.315 C 
ENDROOT
BRANCH   1  11
HETATM   11  N1  UNL     1      24.981   1.595  51.583  1.00  0.00    -0.343 N 
HETATM   12  H7  UNL     1      24.911   1.528  50.537  1.00  0.00     0.167 HD
BRANCH  11  13
HETATM   13  C6  UNL     1      26.061   0.945  52.220  1.00  0.00     0.034 A 
HETATM   14  C5  UNL     1      26.298  -0.400  52.345  1.00  0.00     0.029 A 
HETATM   15  C4  UNL     1      27.387  -0.950  52.982  1.00  0.00     0.003 A 
HETATM   16  C3  UNL     1      28.332  -0.127  53.548  1.00  0.00     0.007 A 
HETATM   17  C2  UNL     1      28.137   1.227  53.447  1.00  0.00    -0.060 A 
HETATM   18  C1  UNL     1      29.151   2.106  54.057  1.00  0.00     0.048 C 
HETATM   19  C18 UNL     1      27.038   1.720  52.805  1.00  0.00     0.036 A 
ENDBRANCH  11  13
ENDBRANCH   1  11
BRANCH  10  20
HETATM   20  N4  UNL     1      22.448   0.500  52.431  1.00  0.00     0.106 N 
HETATM   21  C14 UNL     1      21.243  -0.143  51.983  1.00  0.00     0.299 C 
HETATM   22  C15 UNL     1      20.078  -0.022  52.928  1.00  0.00     0.198 C 
HETATM   23  O2  UNL     1      20.433   0.493  54.154  1.00  0.00    -0.388 OA
HETATM   24  C16 UNL     1      21.544  -0.257  54.582  1.00  0.00     0.198 C 
HETATM   25  C17 UNL     1      22.775   0.097  53.781  1.00  0.00     0.299 C 
ENDBRANCH  10  20
TORSDOF 3
ENDMDL
MODEL 4
REMARK VINA RESULT:      -7.4      5.261      9.444
REMARK  3 active torsions:
REMARK  status: ('A' for Active; 'I' for Inactive)
REMARK    1  A    between atoms: C6_6  and  N1_7 
REMARK    2  A    between atoms: N1_7  and  C7_8 
REMARK    3  A    between atoms: C13_17  and  N4_18 
ROOT
HETATM    1  C7  UNL     1      30.299   6.763  48.145  1.00  0.00     0.141 C 
HETATM    2  N2  UNL     1      30.853   5.921  48.983  1.00  0.00    -0.226 NA
HETATM    3  C8  UNL     1      32.088   6.122  49.653  1.00  0.00     0.234 C 
HETATM    4  N3  UNL     1      32.461   5.469  48.681  1.00  0.00    -0.254 NA
HETATM    5  C9  UNL     1      33.657   4.985  48.210  1.00  0.00     0.116 C 
HETATM    6  C10 UNL     1      34.520   5.312  47.217  1.00  0.00     0.018 C 
HETATM    7  C11 UNL     1      33.906   6.542  46.523  1.00  0.00     0.196 C 
HETATM    8  O1  UNL     1      32.764   6.831  47.183  1.00  0.00    -0.385 OA
HETATM    9  C12 UNL     1      32.030   7.884  46.728  1.00  0.00     0.211 C 
HETATM   10  C13 UNL     1      30.919   8.041  47.778  1.00  0.00     0.315 C 
ENDROOT
BRANCH   1  11
HETATM   11  N1  UNL     1      29.064   6.320  47.610  1.00  0.00    -0.343 N 
HETATM   12  H7  UNL     1      29.116   6.203  46.567  1.00  0.00     0.167 HD
BRANCH  11  13
HETATM   13  C6  UNL     1      27.842   6.022  48.251  1.00  0.00     0.034 A 
HETATM   14  C5  UNL     1      26.774   6.849  48.486  1.00  0.00     0.029 A 
HETATM   15  C4  UNL     1      25.612   6.472  49.119  1.00  0.00     0.003 A 
HETATM   16  C3  UNL     1      25.468   5.179  49.564  1.00  0.00     0.007 A 
HETATM   17  C2  UNL     1      26.511   4.314  49.351  1.00  0.00    -0.060 A 
HETATM   18  C1  UNL     1      26.354   2.930  49.830  1.00  0.00     0.048 C 
HETATM   19  C18 UNL     1      27.642   4.741  48.718  1.00  0.00     0.036 A 
ENDBRANCH  11  13
ENDBRANCH   1  11
BRANCH  10  20
HETATM   20  N4  UNL     1      29.984   9.054  47.515  1.00  0.00     0.106 N 
HETATM   21  C14 UNL     1      30.377  10.055  46.562  1.00  0.00     0.299 C 
HETATM   22  C15 UNL     1      31.244  11.150  47.121  1.00  0.00     0.198 C 
HETATM   23  O2  UNL     1      31.326  11.120  48.495  1.00  0.00    -0.388 OA
HETATM   24  C16 UNL     1      30.002  11.036  48.962  1.00  0.00     0.198 C 
HETATM   25  C17 UNL     1      29.424   9.664  48.701  1.00  0.00     0.299 C 
ENDBRANCH  10  20
TORSDOF 3
ENDMDL
MODEL 5
REMARK VINA RESULT:      -7.4      2.882      6.042
REMARK  3 active torsions:
REMARK  status: ('A' for Active; 'I' for Inactive)
REMARK    1  A    between atoms: C6_6  and  N1_7 
REMARK    2  A    between atoms: N1_7  and  C7_8 
REMARK    3  A    between atoms: C13_17  and  N4_18 
ROOT
HETATM    1  C7  UNL     1      23.873   3.311  50.927  1.00  0.00     0.141 C 
HETATM    2  N2  UNL     1      23.837   4.151  51.932  1.00  0.00    -0.226 NA
HETATM    3  C8  UNL     1      22.917   5.222  52.074  1.00  0.00     0.234 C 
HETATM    4  N3  UNL     1      23.869   5.807  51.563  1.00  0.00    -0.254 NA
HETATM    5  C9  UNL     1      24.150   7.093  51.171  1.00  0.00     0.116 C 
HETATM    6  C10 UNL     1      24.236   7.759  49.993  1.00  0.00     0.018 C 
HETATM    7  C11 UNL     1      23.916   6.717  48.906  1.00  0.00     0.196 C 
HETATM    8  O1  UNL     1      23.652   5.557  49.543  1.00  0.00    -0.385 OA
HETATM    9  C12 UNL     1      23.359   4.474  48.771  1.00  0.00     0.211 C 
HETATM   10  C13 UNL     1      22.951   3.396  49.787  1.00  0.00     0.315 C 
ENDROOT
BRANCH   1  11
HETATM   11  N1  UNL     1      24.893   2.333  51.025  1.00  0.00    -0.343 N 
HETATM   12  H7  UNL     1      25.612   2.447  50.267  1.00  0.00     0.167 HD
BRANCH  11  13
HETATM   13  C6  UNL     1      25.071   1.286  51.956  1.00  0.00     0.034 A 
HETATM   14  C5  UNL     1      24.139   0.696  52.771  1.00  0.00     0.029 A 
HETATM   15  C4  UNL     1      24.401  -0.329  53.651  1.00  0.00     0.003 A 
HETATM   16  C3  UNL     1      25.677  -0.830  53.753  1.00  0.00     0.007 A 
HETATM   17  C2  UNL     1      26.645  -0.270  52.956  1.00  0.00    -0.060 A 
HETATM   18  C1  UNL     1      28.011  -0.808  53.070  1.00  0.00     0.048 C 
HETATM   19  C18 UNL     1      26.330   0.745  52.101  1.00  0.00     0.036 A 
ENDBRANCH  11  13
ENDBRANCH   1  11
BRANCH  10  20
HETATM   20  N4  UNL     1      22.634   2.144  49.240  1.00  0.00     0.106 N 
HETATM   21  C14 UNL     1      22.199   2.137  47.869  1.00  0.00     0.299 C 
HETATM   22  C15 UNL     1      20.746   2.473  47.669  1.00  0.00     0.198 C 
HETATM   23  O2  UNL     1      20.037   2.511  48.849  1.00  0.00    -0.388 OA
HETATM   24  C16 UNL     1      20.342   1.315  49.524  1.00  0.00     0.198 C 
HETATM   25  C17 UNL     1      21.753   1.344  50.063  1.00  0.00     0.299 C 
ENDBRANCH  10  20
TORSDOF 3
ENDMDL
MODEL 6
REMARK VINA RESULT:      -7.3      2.385      5.227
REMARK  3 active torsions:
REMARK  status: ('A' for Active; 'I' for Inactive)
REMARK    1  A    between atoms: C6_6  and  N1_7 
REMARK    2  A    between atoms: N1_7  and  C7_8 
REMARK    3  A    between atoms: C13_17  and  N4_18 
ROOT
HETATM    1  C7  UNL     1      23.095   1.934  51.890  1.00  0.00     0.141 C 
HETATM    2  N2  UNL     1      22.518   0.861  51.404  1.00  0.00    -0.226 NA
HETATM    3  C8  UNL     1      21.638   0.835  50.291  1.00  0.00     0.234 C 
HETATM    4  N3  UNL     1      20.832   0.903  51.216  1.00  0.00    -0.254 NA
HETATM    5  C9  UNL     1      19.465   0.951  51.340  1.00  0.00     0.116 C 
HETATM    6  C10 UNL     1      18.543   1.903  51.627  1.00  0.00     0.018 C 
HETATM    7  C11 UNL     1      19.342   3.201  51.841  1.00  0.00     0.196 C 
HETATM    8  O1  UNL     1      20.642   2.897  51.638  1.00  0.00    -0.385 OA
HETATM    9  C12 UNL     1      21.549   3.900  51.795  1.00  0.00     0.211 C 
HETATM   10  C13 UNL     1      22.874   3.274  51.334  1.00  0.00     0.315 C 
ENDROOT
BRANCH   1  11
HETATM   11  N1  UNL     1      23.926   1.687  53.010  1.00  0.00    -0.343 N 
HETATM   12  H7  UNL     1      23.466   1.989  53.906  1.00  0.00     0.167 HD
BRANCH  11  13
HETATM   13  C6  UNL     1      25.215   1.117  53.086  1.00  0.00     0.034 A 
HETATM   14  C5  UNL     1      25.581  -0.197  52.941  1.00  0.00     0.029 A 
HETATM   15  C4  UNL     1      26.872  -0.667  53.025  1.00  0.00     0.003 A 
HETATM   16  C3  UNL     1      27.902   0.210  53.272  1.00  0.00     0.007 A 
HETATM   17  C2  UNL     1      27.584   1.536  53.423  1.00  0.00    -0.060 A 
HETATM   18  C1  UNL     1      28.690   2.472  53.689  1.00  0.00     0.048 C 
HETATM   19  C18 UNL     1      26.286   1.949  53.330  1.00  0.00     0.036 A 
ENDBRANCH  11  13
ENDBRANCH   1  11
BRANCH  10  20
HETATM   20  N4  UNL     1      24.000   4.106  51.437  1.00  0.00     0.106 N 
HETATM   21  C14 UNL     1      23.745   5.518  51.523  1.00  0.00     0.299 C 
HETATM   22  C15 UNL     1      23.499   6.194  50.202  1.00  0.00     0.198 C 
HETATM   23  O2  UNL     1      23.781   5.385  49.125  1.00  0.00    -0.388 OA
HETATM   24  C16 UNL     1      25.065   4.859  49.359  1.00  0.00     0.198 C 
HETATM   25  C17 UNL     1      25.032   3.828  50.463  1.00  0.00     0.299 C 
ENDBRANCH  10  20
TORSDOF 3
ENDMDL
MODEL 7
REMARK VINA RESULT:      -7.2      2.829      6.501
REMARK  3 active torsions:
REMARK  status: ('A' for Active; 'I' for Inactive)
REMARK    1  A    between atoms: C6_6  and  N1_7 
REMARK    2  A    between atoms: N1_7  and  C7_8 
REMARK    3  A    between atoms: C13_17  and  N4_18 
ROOT
HETATM    1  C7  UNL     1      23.571   2.954  51.171  1.00  0.00     0.141 C 
HETATM    2  N2  UNL     1      23.607   3.812  52.161  1.00  0.00    -0.226 NA
HETATM    3  C8  UNL     1      22.796   4.971  52.274  1.00  0.00     0.234 C 
HETATM    4  N3  UNL     1      23.807   5.450  51.765  1.00  0.00    -0.254 NA
HETATM    5  C9  UNL     1      24.217   6.695  51.355  1.00  0.00     0.116 C 
HETATM    6  C10 UNL     1      24.381   7.327  50.167  1.00  0.00     0.018 C 
HETATM    7  C11 UNL     1      23.972   6.303  49.093  1.00  0.00     0.196 C 
HETATM    8  O1  UNL     1      23.588   5.186  49.747  1.00  0.00    -0.385 OA
HETATM    9  C12 UNL     1      23.198   4.123  48.990  1.00  0.00     0.211 C 
HETATM   10  C13 UNL     1      22.674   3.109  50.018  1.00  0.00     0.315 C 
ENDROOT
BRANCH   1  11
HETATM   11  N1  UNL     1      24.489   1.883  51.299  1.00  0.00    -0.343 N 
HETATM   12  H7  UNL     1      25.087   1.783  50.441  1.00  0.00     0.167 HD
BRANCH  11  13
HETATM   13  C6  UNL     1      24.703   0.983  52.366  1.00  0.00     0.034 A 
HETATM   14  C5  UNL     1      25.887   0.603  52.942  1.00  0.00     0.029 A 
HETATM   15  C4  UNL     1      26.004  -0.282  53.989  1.00  0.00     0.003 A 
HETATM   16  C3  UNL     1      24.874  -0.851  54.529  1.00  0.00     0.007 A 
HETATM   17  C2  UNL     1      23.665  -0.499  53.985  1.00  0.00    -0.060 A 
HETATM   18  C1  UNL     1      22.457  -1.111  54.566  1.00  0.00     0.048 C 
HETATM   19  C18 UNL     1      23.606   0.384  52.946  1.00  0.00     0.036 A 
ENDBRANCH  11  13
ENDBRANCH   1  11
BRANCH  10  20
HETATM   20  N4  UNL     1      22.241   1.885  49.488  1.00  0.00     0.106 N 
HETATM   21  C14 UNL     1      21.849   1.890  48.105  1.00  0.00     0.299 C 
HETATM   22  C15 UNL     1      20.447   2.374  47.851  1.00  0.00     0.198 C 
HETATM   23  O2  UNL     1      19.712   2.516  49.006  1.00  0.00    -0.388 OA
HETATM   24  C16 UNL     1      19.866   1.312  49.717  1.00  0.00     0.198 C 
HETATM   25  C17 UNL     1      21.256   1.204  50.300  1.00  0.00     0.299 C 
ENDBRANCH  10  20
TORSDOF 3
ENDMDL
MODEL 8
REMARK VINA RESULT:      -7.1      3.158      6.247
REMARK  3 active torsions:
REMARK  status: ('A' for Active; 'I' for Inactive)
REMARK    1  A    between atoms: C6_6  and  N1_7 
REMARK    2  A    between atoms: N1_7  and  C7_8 
REMARK    3  A    between atoms: C13_17  and  N4_18 
ROOT
HETATM    1  C7  UNL     1      22.888   2.736  50.091  1.00  0.00     0.141 C 
HETATM    2  N2  UNL     1      22.287   1.868  49.313  1.00  0.00    -0.226 NA
HETATM    3  C8  UNL     1      22.296   1.895  47.894  1.00  0.00     0.234 C 
HETATM    4  N3  UNL     1      21.241   2.483  48.126  1.00  0.00    -0.254 NA
HETATM    5  C9  UNL     1      20.244   3.062  47.381  1.00  0.00     0.116 C 
HETATM    6  C10 UNL     1      19.863   4.326  47.074  1.00  0.00     0.018 C 
HETATM    7  C11 UNL     1      20.871   5.247  47.785  1.00  0.00     0.196 C 
HETATM    8  O1  UNL     1      21.754   4.443  48.416  1.00  0.00    -0.385 OA
HETATM    9  C12 UNL     1      22.739   5.045  49.137  1.00  0.00     0.211 C 
HETATM   10  C13 UNL     1      23.644   3.880  49.569  1.00  0.00     0.315 C 
ENDROOT
BRANCH   1  11
HETATM   11  N1  UNL     1      22.721   2.485  51.475  1.00  0.00    -0.343 N 
HETATM   12  H7  UNL     1      22.122   3.218  51.931  1.00  0.00     0.167 HD
BRANCH  11  13
HETATM   13  C6  UNL     1      23.216   1.437  52.282  1.00  0.00     0.034 A 
HETATM   14  C5  UNL     1      24.505   0.985  52.404  1.00  0.00     0.029 A 
HETATM   15  C4  UNL     1      24.902  -0.046  53.224  1.00  0.00     0.003 A 
HETATM   16  C3  UNL     1      23.971  -0.699  53.996  1.00  0.00     0.007 A 
HETATM   17  C2  UNL     1      22.667  -0.281  53.908  1.00  0.00    -0.060 A 
HETATM   18  C1  UNL     1      21.672  -0.984  54.736  1.00  0.00     0.048 C 
HETATM   19  C18 UNL     1      22.327   0.747  53.078  1.00  0.00     0.036 A 
ENDBRANCH  11  13
ENDBRANCH   1  11
BRANCH  10  20
HETATM   20  N4  UNL     1      24.735   4.235  50.377  1.00  0.00     0.106 N 
HETATM   21  C14 UNL     1      25.006   5.641  50.504  1.00  0.00     0.299 C 
HETATM   22  C15 UNL     1      25.792   6.235  49.367  1.00  0.00     0.198 C 
HETATM   23  O2  UNL     1      26.304   5.283  48.514  1.00  0.00    -0.388 OA
HETATM   24  C16 UNL     1      26.952   4.338  49.330  1.00  0.00     0.198 C 
HETATM   25  C17 UNL     1      25.948   3.501  50.088  1.00  0.00     0.299 C 
ENDBRANCH  10  20
TORSDOF 3
ENDMDL
MODEL 9
REMARK VINA RESULT:      -7.1      2.603      6.541
REMARK  3 active torsions:
REMARK  status: ('A' for Active; 'I' for Inactive)
REMARK    1  A    between atoms: C6_6  and  N1_7 
REMARK    2  A    between atoms: N1_7  and  C7_8 
REMARK    3  A    between atoms: C13_17  and  N4_18 
ROOT
HETATM    1  C7  UNL     1      22.772   1.989  51.621  1.00  0.00     0.141 C 
HETATM    2  N2  UNL     1      22.168   1.953  50.458  1.00  0.00    -0.226 NA
HETATM    3  C8  UNL     1      22.796   2.141  49.200  1.00  0.00     0.234 C 
HETATM    4  N3  UNL     1      22.391   3.280  49.424  1.00  0.00    -0.254 NA
HETATM    5  C9  UNL     1      22.435   4.493  48.782  1.00  0.00     0.116 C 
HETATM    6  C10 UNL     1      23.123   5.651  48.928  1.00  0.00     0.018 C 
HETATM    7  C11 UNL     1      24.053   5.431  50.135  1.00  0.00     0.196 C 
HETATM    8  O1  UNL     1      23.842   4.167  50.564  1.00  0.00    -0.385 OA
HETATM    9  C12 UNL     1      24.549   3.751  51.649  1.00  0.00     0.211 C 
HETATM   10  C13 UNL     1      24.209   2.257  51.761  1.00  0.00     0.315 C 
ENDROOT
BRANCH   1  11
HETATM   11  N1  UNL     1      21.913   1.773  52.727  1.00  0.00    -0.343 N 
HETATM   12  H7  UNL     1      21.738   2.662  53.258  1.00  0.00     0.167 HD
BRANCH  11  13
HETATM   13  C6  UNL     1      21.290   0.592  53.185  1.00  0.00     0.034 A 
HETATM   14  C5  UNL     1      21.810  -0.402  53.974  1.00  0.00     0.029 A 
HETATM   15  C4  UNL     1      21.125  -1.524  54.379  1.00  0.00     0.003 A 
HETATM   16  C3  UNL     1      19.819  -1.703  53.988  1.00  0.00     0.007 A 
HETATM   17  C2  UNL     1      19.255  -0.734  53.197  1.00  0.00    -0.060 A 
HETATM   18  C1  UNL     1      17.856  -0.930  52.778  1.00  0.00     0.048 C 
HETATM   19  C18 UNL     1      19.981   0.360  52.823  1.00  0.00     0.036 A 
ENDBRANCH  11  13
ENDBRANCH   1  11
BRANCH  10  20
HETATM   20  N4  UNL     1      24.791   1.587  52.847  1.00  0.00     0.106 N 
HETATM   21  C14 UNL     1      25.904   2.241  53.479  1.00  0.00     0.299 C 
HETATM   22  C15 UNL     1      27.225   2.044  52.787  1.00  0.00     0.198 C 
HETATM   23  O2  UNL     1      27.174   1.090  51.796  1.00  0.00    -0.388 OA
HETATM   24  C16 UNL     1      26.566  -0.039  52.375  1.00  0.00     0.198 C 
HETATM   25  C17 UNL     1      25.090   0.195  52.593  1.00  0.00     0.299 C 
ENDBRANCH  10  20
TORSDOF 3
ENDMDL
