MODEL 1
REMARK VINA RESULT:      -9.2      0.000      0.000
REMARK  4 active torsions:
REMARK  status: ('A' for Active; 'I' for Inactive)
REMARK    1  A    between atoms: O1_2  and  C2_3 
REMARK    2  A    between atoms: C7_9  and  N2_10 
REMARK    3  A    between atoms: N2_10  and  C8_11 
REMARK    4  A    between atoms: C19_23  and  O2_24 
ROOT
HETATM    1  C2  UNL     1      21.175   0.611  51.734  1.00  0.00     0.102 A 
HETATM    2  C3  UNL     1      21.781   1.284  50.699  1.00  0.00     0.052 A 
HETATM    3  C4  UNL     1      22.966   1.980  50.809  1.00  0.00    -0.018 A 
HETATM    4  C5  UNL     1      23.529   2.637  49.714  1.00  0.00     0.032 A 
HETATM    5  C6  UNL     1      24.714   3.282  49.975  1.00  0.00     0.120 A 
HETATM    6  N1  UNL     1      25.342   3.317  51.178  1.00  0.00    -0.242 NA
HETATM    7  C7  UNL     1      24.811   2.683  52.258  1.00  0.00     0.140 A 
HETATM    8  C17 UNL     1      23.623   2.030  52.020  1.00  0.00     0.023 A 
HETATM    9  C18 UNL     1      23.028   1.353  53.086  1.00  0.00     0.055 A 
HETATM   10  C19 UNL     1      21.832   0.662  52.941  1.00  0.00     0.102 A 
ENDROOT
BRANCH   7  11
HETATM   11  N2  UNL     1      25.482   2.754  53.492  1.00  0.00    -0.325 N 
HETATM   12  H7  UNL     1      25.274   3.296  54.331  1.00  0.00     0.169 HD
BRANCH  11  13
HETATM   13  C8  UNL     1      26.651   1.915  53.558  1.00  0.00     0.129 A 
HETATM   14  C9  UNL     1      26.471   0.596  53.203  1.00  0.00     0.062 A 
HETATM   15  C10 UNL     1      27.526  -0.275  53.242  1.00  0.00    -0.021 A 
HETATM   16  C11 UNL     1      27.285  -1.585  52.884  1.00  0.00     0.012 A 
HETATM   17  C15 UNL     1      28.784   0.188  53.643  1.00  0.00    -0.008 A 
HETATM   18  C12 UNL     1      28.368  -2.434  52.942  1.00  0.00     0.001 A 
HETATM   19  C13 UNL     1      29.634  -2.001  53.338  1.00  0.00     0.001 A 
HETATM   20  C14 UNL     1      29.837  -0.672  53.692  1.00  0.00     0.014 A 
HETATM   21  C16 UNL     1      28.935   1.516  53.993  1.00  0.00     0.131 A 
HETATM   22  N3  UNL     1      27.887   2.322  53.942  1.00  0.00    -0.242 NA
ENDBRANCH  11  13
ENDBRANCH   7  11
BRANCH  10  23
HETATM   23  O2  UNL     1      21.282  -0.002  54.047  1.00  0.00    -0.353 OA
HETATM   24  C20 UNL     1      22.052  -1.067  54.618  1.00  0.00     0.210 C 
ENDBRANCH  10  23
BRANCH   1  25
HETATM   25  O1  UNL     1      19.984  -0.088  51.626  1.00  0.00    -0.353 OA
HETATM   26  C1  UNL     1      18.703   0.438  51.806  1.00  0.00     0.210 C 
ENDBRANCH   1  25
TORSDOF 4
ENDMDL
MODEL 2
REMARK VINA RESULT:      -8.4      2.266      3.653
REMARK  4 active torsions:
REMARK  status: ('A' for Active; 'I' for Inactive)
REMARK    1  A    between atoms: O1_2  and  C2_3 
REMARK    2  A    between atoms: C7_9  and  N2_10 
REMARK    3  A    between atoms: N2_10  and  C8_11 
REMARK    4  A    between atoms: C19_23  and  O2_24 
ROOT
HETATM    1  C2  UNL     1      23.109   3.407  48.920  1.00  0.00     0.102 A 
HETATM    2  C3  UNL     1      22.472   2.395  49.600  1.00  0.00     0.052 A 
HETATM    3  C4  UNL     1      22.832   1.952  50.855  1.00  0.00    -0.018 A 
HETATM    4  C5  UNL     1      22.137   0.923  51.491  1.00  0.00     0.032 A 
HETATM    5  C6  UNL     1      22.608   0.595  52.740  1.00  0.00     0.120 A 
HETATM    6  N1  UNL     1      23.661   1.183  53.363  1.00  0.00    -0.242 NA
HETATM    7  C7  UNL     1      24.351   2.188  52.761  1.00  0.00     0.140 A 
HETATM    8  C17 UNL     1      23.897   2.534  51.509  1.00  0.00     0.023 A 
HETATM    9  C18 UNL     1      24.559   3.564  50.838  1.00  0.00     0.055 A 
HETATM   10  C19 UNL     1      24.170   3.986  49.574  1.00  0.00     0.102 A 
ENDROOT
BRANCH   7  11
HETATM   11  N2  UNL     1      25.446   2.764  53.431  1.00  0.00    -0.325 N 
HETATM   12  H7  UNL     1      25.554   3.683  53.859  1.00  0.00     0.169 HD
BRANCH  11  13
HETATM   13  C8  UNL     1      26.591   1.894  53.513  1.00  0.00     0.129 A 
HETATM   14  C9  UNL     1      26.385   0.585  53.133  1.00  0.00     0.062 A 
HETATM   15  C10 UNL     1      27.416  -0.314  53.185  1.00  0.00    -0.021 A 
HETATM   16  C11 UNL     1      27.150  -1.612  52.801  1.00  0.00     0.012 A 
HETATM   17  C15 UNL     1      28.675   0.109  53.623  1.00  0.00    -0.008 A 
HETATM   18  C12 UNL     1      28.208  -2.490  52.874  1.00  0.00     0.001 A 
HETATM   19  C13 UNL     1      29.475  -2.096  53.307  1.00  0.00     0.001 A 
HETATM   20  C14 UNL     1      29.703  -0.779  53.685  1.00  0.00     0.014 A 
HETATM   21  C16 UNL     1      28.853   1.428  53.997  1.00  0.00     0.131 A 
HETATM   22  N3  UNL     1      27.827   2.262  53.933  1.00  0.00    -0.242 NA
ENDBRANCH  11  13
ENDBRANCH   7  11
BRANCH  10  23
HETATM   23  O2  UNL     1      24.872   5.027  48.949  1.00  0.00    -0.353 OA
HETATM   24  C20 UNL     1      26.290   5.074  49.155  1.00  0.00     0.210 C 
ENDBRANCH  10  23
BRANCH   1  25
HETATM   25  O1  UNL     1      22.748   3.853  47.659  1.00  0.00    -0.353 OA
HETATM   26  C1  UNL     1      21.446   3.954  47.163  1.00  0.00     0.210 C 
ENDBRANCH   1  25
TORSDOF 4
ENDMDL
MODEL 3
REMARK VINA RESULT:      -8.3      1.841      3.361
REMARK  4 active torsions:
REMARK  status: ('A' for Active; 'I' for Inactive)
REMARK    1  A    between atoms: O1_2  and  C2_3 
REMARK    2  A    between atoms: C7_9  and  N2_10 
REMARK    3  A    between atoms: N2_10  and  C8_11 
REMARK    4  A    between atoms: C19_23  and  O2_24 
ROOT
HETATM    1  C2  UNL     1      18.993   0.018  51.822  1.00  0.00     0.102 A 
HETATM    2  C3  UNL     1      19.481  -0.542  52.980  1.00  0.00     0.052 A 
HETATM    3  C4  UNL     1      20.802  -0.496  53.372  1.00  0.00    -0.018 A 
HETATM    4  C5  UNL     1      21.229  -1.081  54.565  1.00  0.00     0.032 A 
HETATM    5  C6  UNL     1      22.571  -0.949  54.825  1.00  0.00     0.120 A 
HETATM    6  N1  UNL     1      23.468  -0.313  54.027  1.00  0.00    -0.242 NA
HETATM    7  C7  UNL     1      23.073   0.264  52.861  1.00  0.00     0.140 A 
HETATM    8  C17 UNL     1      21.732   0.144  52.580  1.00  0.00     0.023 A 
HETATM    9  C18 UNL     1      21.259   0.720  51.399  1.00  0.00     0.055 A 
HETATM   10  C19 UNL     1      19.922   0.655  51.034  1.00  0.00     0.102 A 
ENDROOT
BRANCH   7  11
HETATM   11  N2  UNL     1      24.033   0.900  52.052  1.00  0.00    -0.325 N 
HETATM   12  H7  UNL     1      23.929   1.412  51.177  1.00  0.00     0.169 HD
BRANCH  11  13
HETATM   13  C8  UNL     1      25.375   0.797  52.566  1.00  0.00     0.129 A 
HETATM   14  C9  UNL     1      25.986  -0.429  52.423  1.00  0.00     0.062 A 
HETATM   15  C10 UNL     1      27.259  -0.620  52.888  1.00  0.00    -0.021 A 
HETATM   16  C11 UNL     1      27.817  -1.870  52.725  1.00  0.00     0.012 A 
HETATM   17  C15 UNL     1      27.930   0.441  53.506  1.00  0.00    -0.008 A 
HETATM   18  C12 UNL     1      29.096  -2.027  53.212  1.00  0.00     0.001 A 
HETATM   19  C13 UNL     1      29.790  -0.987  53.832  1.00  0.00     0.001 A 
HETATM   20  C14 UNL     1      29.193   0.259  53.978  1.00  0.00     0.014 A 
HETATM   21  C16 UNL     1      27.293   1.660  53.636  1.00  0.00     0.131 A 
HETATM   22  N3  UNL     1      26.060   1.799  53.173  1.00  0.00    -0.242 NA
ENDBRANCH  11  13
ENDBRANCH   7  11
BRANCH  10  23
HETATM   23  O2  UNL     1      19.505   1.255  49.836  1.00  0.00    -0.353 OA
HETATM   24  C20 UNL     1      19.398   2.684  49.825  1.00  0.00     0.210 C 
ENDBRANCH  10  23
BRANCH   1  25
HETATM   25  O1  UNL     1      17.666  -0.028  51.427  1.00  0.00    -0.353 OA
HETATM   26  C1  UNL     1      16.554   0.099  52.262  1.00  0.00     0.210 C 
ENDBRANCH   1  25
TORSDOF 4
ENDMDL
MODEL 4
REMARK VINA RESULT:      -8.0      4.636      6.787
REMARK  4 active torsions:
REMARK  status: ('A' for Active; 'I' for Inactive)
REMARK    1  A    between atoms: O1_2  and  C2_3 
REMARK    2  A    between atoms: C7_9  and  N2_10 
REMARK    3  A    between atoms: N2_10  and  C8_11 
REMARK    4  A    between atoms: C19_23  and  O2_24 
ROOT
HETATM    1  C2  UNL     1      27.294   7.789  48.858  1.00  0.00     0.102 A 
HETATM    2  C3  UNL     1      26.218   7.972  49.696  1.00  0.00     0.052 A 
HETATM    3  C4  UNL     1      25.434   6.952  50.191  1.00  0.00    -0.018 A 
HETATM    4  C5  UNL     1      24.359   7.209  51.044  1.00  0.00     0.032 A 
HETATM    5  C6  UNL     1      23.674   6.093  51.462  1.00  0.00     0.120 A 
HETATM    6  N1  UNL     1      23.966   4.814  51.110  1.00  0.00    -0.242 NA
HETATM    7  C7  UNL     1      25.009   4.542  50.281  1.00  0.00     0.140 A 
HETATM    8  C17 UNL     1      25.710   5.645  49.851  1.00  0.00     0.023 A 
HETATM    9  C18 UNL     1      26.797   5.435  49.001  1.00  0.00     0.055 A 
HETATM   10  C19 UNL     1      27.567   6.485  48.519  1.00  0.00     0.102 A 
ENDROOT
BRANCH   7  11
HETATM   11  N2  UNL     1      25.271   3.206  49.927  1.00  0.00    -0.325 N 
HETATM   12  H7  UNL     1      25.277   2.750  49.015  1.00  0.00     0.169 HD
BRANCH  11  13
HETATM   13  C8  UNL     1      25.581   2.365  51.055  1.00  0.00     0.129 A 
HETATM   14  C9  UNL     1      26.833   2.527  51.606  1.00  0.00     0.062 A 
HETATM   15  C10 UNL     1      27.215   1.765  52.677  1.00  0.00    -0.021 A 
HETATM   16  C11 UNL     1      28.482   1.964  53.182  1.00  0.00     0.012 A 
HETATM   17  C15 UNL     1      26.322   0.824  53.204  1.00  0.00    -0.008 A 
HETATM   18  C12 UNL     1      28.834   1.174  54.254  1.00  0.00     0.001 A 
HETATM   19  C13 UNL     1      27.965   0.229  54.800  1.00  0.00     0.001 A 
HETATM   20  C14 UNL     1      26.695   0.058  54.263  1.00  0.00     0.014 A 
HETATM   21  C16 UNL     1      25.072   0.684  52.631  1.00  0.00     0.131 A 
HETATM   22  N3  UNL     1      24.747   1.441  51.595  1.00  0.00    -0.242 NA
ENDBRANCH  11  13
ENDBRANCH   7  11
BRANCH  10  23
HETATM   23  O2  UNL     1      28.649   6.212  47.670  1.00  0.00    -0.353 OA
HETATM   24  C20 UNL     1      29.857   5.741  48.282  1.00  0.00     0.210 C 
ENDBRANCH  10  23
BRANCH   1  25
HETATM   25  O1  UNL     1      28.082   8.812  48.358  1.00  0.00    -0.353 OA
HETATM   26  C1  UNL     1      29.119   9.457  49.036  1.00  0.00     0.210 C 
ENDBRANCH   1  25
TORSDOF 4
ENDMDL
MODEL 5
REMARK VINA RESULT:      -7.9      2.346      6.691
REMARK  4 active torsions:
REMARK  status: ('A' for Active; 'I' for Inactive)
REMARK    1  A    between atoms: O1_2  and  C2_3 
REMARK    2  A    between atoms: C7_9  and  N2_10 
REMARK    3  A    between atoms: N2_10  and  C8_11 
REMARK    4  A    between atoms: C19_23  and  O2_24 
ROOT
HETATM    1  C2  UNL     1      26.959  -0.378  53.218  1.00  0.00     0.102 A 
HETATM    2  C3  UNL     1      27.152   0.461  52.145  1.00  0.00     0.052 A 
HETATM    3  C4  UNL     1      26.279   1.460  51.770  1.00  0.00    -0.018 A 
HETATM    4  C5  UNL     1      26.540   2.281  50.671  1.00  0.00     0.032 A 
HETATM    5  C6  UNL     1      25.583   3.235  50.424  1.00  0.00     0.120 A 
HETATM    6  N1  UNL     1      24.450   3.420  51.149  1.00  0.00    -0.242 NA
HETATM    7  C7  UNL     1      24.177   2.631  52.223  1.00  0.00     0.140 A 
HETATM    8  C17 UNL     1      25.122   1.668  52.490  1.00  0.00     0.023 A 
HETATM    9  C18 UNL     1      24.905   0.828  53.584  1.00  0.00     0.055 A 
HETATM   10  C19 UNL     1      25.804  -0.169  53.935  1.00  0.00     0.102 A 
ENDROOT
BRANCH   7  11
HETATM   11  N2  UNL     1      22.986   2.842  52.941  1.00  0.00    -0.325 N 
HETATM   12  H7  UNL     1      22.818   3.331  53.820  1.00  0.00     0.169 HD
BRANCH  11  13
HETATM   13  C8  UNL     1      21.827   2.261  52.312  1.00  0.00     0.129 A 
HETATM   14  C9  UNL     1      21.179   1.277  53.027  1.00  0.00     0.062 A 
HETATM   15  C10 UNL     1      20.072   0.666  52.503  1.00  0.00    -0.021 A 
HETATM   16  C11 UNL     1      19.470  -0.318  53.259  1.00  0.00     0.012 A 
HETATM   17  C15 UNL     1      19.606   1.051  51.241  1.00  0.00    -0.008 A 
HETATM   18  C12 UNL     1      18.363  -0.916  52.698  1.00  0.00     0.001 A 
HETATM   19  C13 UNL     1      17.876  -0.553  51.441  1.00  0.00     0.001 A 
HETATM   20  C14 UNL     1      18.511   0.444  50.710  1.00  0.00     0.014 A 
HETATM   21  C16 UNL     1      20.276   2.042  50.548  1.00  0.00     0.131 A 
HETATM   22  N3  UNL     1      21.343   2.604  51.092  1.00  0.00    -0.242 NA
ENDBRANCH  11  13
ENDBRANCH   7  11
BRANCH  10  23
HETATM   23  O2  UNL     1      25.534  -0.981  55.046  1.00  0.00    -0.353 OA
HETATM   24  C20 UNL     1      24.156  -1.223  55.357  1.00  0.00     0.210 C 
ENDBRANCH  10  23
BRANCH   1  25
HETATM   25  O1  UNL     1      27.834  -1.383  53.596  1.00  0.00    -0.353 OA
HETATM   26  C1  UNL     1      29.227  -1.336  53.507  1.00  0.00     0.210 C 
ENDBRANCH   1  25
TORSDOF 4
ENDMDL
MODEL 6
REMARK VINA RESULT:      -7.9      3.244      7.172
REMARK  4 active torsions:
REMARK  status: ('A' for Active; 'I' for Inactive)
REMARK    1  A    between atoms: O1_2  and  C2_3 
REMARK    2  A    between atoms: C7_9  and  N2_10 
REMARK    3  A    between atoms: N2_10  and  C8_11 
REMARK    4  A    between atoms: C19_23  and  O2_24 
ROOT
HETATM    1  C2  UNL     1      26.838  -0.050  53.959  1.00  0.00     0.102 A 
HETATM    2  C3  UNL     1      25.607  -0.483  53.524  1.00  0.00     0.052 A 
HETATM    3  C4  UNL     1      24.574   0.352  53.153  1.00  0.00    -0.018 A 
HETATM    4  C5  UNL     1      23.350  -0.155  52.714  1.00  0.00     0.032 A 
HETATM    5  C6  UNL     1      22.420   0.797  52.373  1.00  0.00     0.120 A 
HETATM    6  N1  UNL     1      22.610   2.140  52.435  1.00  0.00    -0.242 NA
HETATM    7  C7  UNL     1      23.795   2.655  52.860  1.00  0.00     0.140 A 
HETATM    8  C17 UNL     1      24.742   1.719  53.207  1.00  0.00     0.023 A 
HETATM    9  C18 UNL     1      25.985   2.181  53.645  1.00  0.00     0.055 A 
HETATM   10  C19 UNL     1      27.004   1.313  54.012  1.00  0.00     0.102 A 
ENDROOT
BRANCH   7  11
HETATM   11  N2  UNL     1      23.951   4.052  52.926  1.00  0.00    -0.325 N 
HETATM   12  H7  UNL     1      23.978   4.679  53.729  1.00  0.00     0.169 HD
BRANCH  11  13
HETATM   13  C8  UNL     1      24.091   4.674  51.635  1.00  0.00     0.129 A 
HETATM   14  C9  UNL     1      23.695   5.992  51.551  1.00  0.00     0.062 A 
HETATM   15  C10 UNL     1      23.788   6.661  50.361  1.00  0.00    -0.021 A 
HETATM   16  C11 UNL     1      23.369   7.975  50.334  1.00  0.00     0.012 A 
HETATM   17  C15 UNL     1      24.288   5.996  49.236  1.00  0.00    -0.008 A 
HETATM   18  C12 UNL     1      23.469   8.614  49.119  1.00  0.00     0.001 A 
HETATM   19  C13 UNL     1      23.964   7.977  47.980  1.00  0.00     0.001 A 
HETATM   20  C14 UNL     1      24.376   6.652  48.047  1.00  0.00     0.014 A 
HETATM   21  C16 UNL     1      24.678   4.675  49.349  1.00  0.00     0.131 A 
HETATM   22  N3  UNL     1      24.569   4.067  50.520  1.00  0.00    -0.242 NA
ENDBRANCH  11  13
ENDBRANCH   7  11
BRANCH  10  23
HETATM   23  O2  UNL     1      28.232   1.836  54.443  1.00  0.00    -0.353 OA
HETATM   24  C20 UNL     1      28.992   2.588  53.489  1.00  0.00     0.210 C 
ENDBRANCH  10  23
BRANCH   1  25
HETATM   25  O1  UNL     1      27.877  -0.887  54.333  1.00  0.00    -0.353 OA
HETATM   26  C1  UNL     1      28.897  -1.354  53.501  1.00  0.00     0.210 C 
ENDBRANCH   1  25
TORSDOF 4
ENDMDL
MODEL 7
REMARK VINA RESULT:      -7.9      2.955      6.527
REMARK  4 active torsions:
REMARK  status: ('A' for Active; 'I' for Inactive)
REMARK    1  A    between atoms: O1_2  and  C2_3 
REMARK    2  A    between atoms: C7_9  and  N2_10 
REMARK    3  A    between atoms: N2_10  and  C8_11 
REMARK    4  A    between atoms: C19_23  and  O2_24 
ROOT
HETATM    1  C2  UNL     1      25.956  -0.439  53.883  1.00  0.00     0.102 A 
HETATM    2  C3  UNL     1      24.818  -0.824  54.554  1.00  0.00     0.052 A 
HETATM    3  C4  UNL     1      23.535  -0.541  54.137  1.00  0.00    -0.018 A 
HETATM    4  C5  UNL     1      22.423  -0.968  54.865  1.00  0.00     0.032 A 
HETATM    5  C6  UNL     1      21.210  -0.618  54.323  1.00  0.00     0.120 A 
HETATM    6  N1  UNL     1      21.035   0.088  53.176  1.00  0.00    -0.242 NA
HETATM    7  C7  UNL     1      22.105   0.513  52.453  1.00  0.00     0.140 A 
HETATM    8  C17 UNL     1      23.331   0.173  52.976  1.00  0.00     0.023 A 
HETATM    9  C18 UNL     1      24.471   0.574  52.278  1.00  0.00     0.055 A 
HETATM   10  C19 UNL     1      25.751   0.273  52.725  1.00  0.00     0.102 A 
ENDROOT
BRANCH   7  11
HETATM   11  N2  UNL     1      21.885   1.255  51.278  1.00  0.00    -0.325 N 
HETATM   12  H7  UNL     1      21.427   0.995  50.405  1.00  0.00     0.169 HD
BRANCH  11  13
HETATM   13  C8  UNL     1      22.403   2.598  51.342  1.00  0.00     0.129 A 
HETATM   14  C9  UNL     1      23.319   2.941  50.372  1.00  0.00     0.062 A 
HETATM   15  C10 UNL     1      23.868   4.195  50.360  1.00  0.00    -0.021 A 
HETATM   16  C11 UNL     1      24.787   4.479  49.372  1.00  0.00     0.012 A 
HETATM   17  C15 UNL     1      23.488   5.120  51.338  1.00  0.00    -0.008 A 
HETATM   18  C12 UNL     1      25.324   5.747  49.396  1.00  0.00     0.001 A 
HETATM   19  C13 UNL     1      24.963   6.691  50.359  1.00  0.00     0.001 A 
HETATM   20  C14 UNL     1      24.033   6.366  51.339  1.00  0.00     0.014 A 
HETATM   21  C16 UNL     1      22.565   4.749  52.298  1.00  0.00     0.131 A 
HETATM   22  N3  UNL     1      22.062   3.525  52.272  1.00  0.00    -0.242 NA
ENDBRANCH  11  13
ENDBRANCH   7  11
BRANCH  10  23
HETATM   23  O2  UNL     1      26.859   0.702  51.980  1.00  0.00    -0.353 OA
HETATM   24  C20 UNL     1      26.868   2.069  51.551  1.00  0.00     0.210 C 
ENDBRANCH  10  23
BRANCH   1  25
HETATM   25  O1  UNL     1      27.247  -0.721  54.300  1.00  0.00    -0.353 OA
HETATM   26  C1  UNL     1      28.129   0.175  54.908  1.00  0.00     0.210 C 
ENDBRANCH   1  25
TORSDOF 4
ENDMDL
MODEL 8
REMARK VINA RESULT:      -7.8      2.998      6.101
REMARK  4 active torsions:
REMARK  status: ('A' for Active; 'I' for Inactive)
REMARK    1  A    between atoms: O1_2  and  C2_3 
REMARK    2  A    between atoms: C7_9  and  N2_10 
REMARK    3  A    between atoms: N2_10  and  C8_11 
REMARK    4  A    between atoms: C19_23  and  O2_24 
ROOT
HETATM    1  C2  UNL     1      23.248   0.412  53.280  1.00  0.00     0.102 A 
HETATM    2  C3  UNL     1      24.467   0.657  53.868  1.00  0.00     0.052 A 
HETATM    3  C4  UNL     1      25.529   1.268  53.236  1.00  0.00    -0.018 A 
HETATM    4  C5  UNL     1      26.739   1.491  53.895  1.00  0.00     0.032 A 
HETATM    5  C6  UNL     1      27.701   2.115  53.139  1.00  0.00     0.120 A 
HETATM    6  N1  UNL     1      27.554   2.510  51.848  1.00  0.00    -0.242 NA
HETATM    7  C7  UNL     1      26.384   2.302  51.187  1.00  0.00     0.140 A 
HETATM    8  C17 UNL     1      25.405   1.678  51.925  1.00  0.00     0.023 A 
HETATM    9  C18 UNL     1      24.175   1.441  51.308  1.00  0.00     0.055 A 
HETATM   10  C19 UNL     1      23.126   0.822  51.974  1.00  0.00     0.102 A 
ENDROOT
BRANCH   7  11
HETATM   11  N2  UNL     1      26.273   2.711  49.846  1.00  0.00    -0.325 N 
HETATM   12  H7  UNL     1      26.181   2.163  48.990  1.00  0.00     0.169 HD
BRANCH  11  13
HETATM   13  C8  UNL     1      26.297   4.141  49.678  1.00  0.00     0.129 A 
HETATM   14  C9  UNL     1      27.298   4.640  48.873  1.00  0.00     0.062 A 
HETATM   15  C10 UNL     1      27.402   5.988  48.663  1.00  0.00    -0.021 A 
HETATM   16  C11 UNL     1      28.428   6.431  47.856  1.00  0.00     0.012 A 
HETATM   17  C15 UNL     1      26.482   6.850  49.270  1.00  0.00    -0.008 A 
HETATM   18  C12 UNL     1      28.506   7.794  47.673  1.00  0.00     0.001 A 
HETATM   19  C13 UNL     1      27.602   8.678  48.265  1.00  0.00     0.001 A 
HETATM   20  C14 UNL     1      26.581   8.192  49.072  1.00  0.00     0.014 A 
HETATM   21  C16 UNL     1      25.487   6.322  50.071  1.00  0.00     0.131 A 
HETATM   22  N3  UNL     1      25.427   5.012  50.248  1.00  0.00    -0.242 NA
ENDBRANCH  11  13
ENDBRANCH   7  11
BRANCH  10  23
HETATM   23  O2  UNL     1      21.913   0.612  51.302  1.00  0.00    -0.353 OA
HETATM   24  C20 UNL     1      21.792   1.163  49.985  1.00  0.00     0.210 C 
ENDBRANCH  10  23
BRANCH   1  25
HETATM   25  O1  UNL     1      22.180  -0.203  53.914  1.00  0.00    -0.353 OA
HETATM   26  C1  UNL     1      22.265  -1.203  54.884  1.00  0.00     0.210 C 
ENDBRANCH   1  25
TORSDOF 4
ENDMDL
MODEL 9
REMARK VINA RESULT:      -7.8      3.357      6.757
REMARK  4 active torsions:
REMARK  status: ('A' for Active; 'I' for Inactive)
REMARK    1  A    between atoms: O1_2  and  C2_3 
REMARK    2  A    between atoms: C7_9  and  N2_10 
REMARK    3  A    between atoms: N2_10  and  C8_11 
REMARK    4  A    between atoms: C19_23  and  O2_24 
ROOT
HETATM    1  C2  UNL     1      25.239   0.550  53.357  1.00  0.00     0.102 A 
HETATM    2  C3  UNL     1      24.022   0.504  52.718  1.00  0.00     0.052 A 
HETATM    3  C4  UNL     1      23.292   1.615  52.352  1.00  0.00    -0.018 A 
HETATM    4  C5  UNL     1      22.063   1.496  51.699  1.00  0.00     0.032 A 
HETATM    5  C6  UNL     1      21.456   2.689  51.391  1.00  0.00     0.120 A 
HETATM    6  N1  UNL     1      21.954   3.921  51.672  1.00  0.00    -0.242 NA
HETATM    7  C7  UNL     1      23.148   4.059  52.307  1.00  0.00     0.140 A 
HETATM    8  C17 UNL     1      23.776   2.876  52.625  1.00  0.00     0.023 A 
HETATM    9  C18 UNL     1      25.010   2.947  53.273  1.00  0.00     0.055 A 
HETATM   10  C19 UNL     1      25.720   1.808  53.629  1.00  0.00     0.102 A 
ENDROOT
BRANCH   7  11
HETATM   11  N2  UNL     1      23.625   5.350  52.595  1.00  0.00    -0.325 N 
HETATM   12  H7  UNL     1      23.810   5.806  53.488  1.00  0.00     0.169 HD
BRANCH  11  13
HETATM   13  C8  UNL     1      23.888   6.140  51.419  1.00  0.00     0.129 A 
HETATM   14  C9  UNL     1      25.044   5.839  50.733  1.00  0.00     0.062 A 
HETATM   15  C10 UNL     1      25.377   6.542  49.607  1.00  0.00    -0.021 A 
HETATM   16  C11 UNL     1      26.549   6.203  48.966  1.00  0.00     0.012 A 
HETATM   17  C15 UNL     1      24.531   7.565  49.162  1.00  0.00    -0.008 A 
HETATM   18  C12 UNL     1      26.855   6.938  47.842  1.00  0.00     0.001 A 
HETATM   19  C13 UNL     1      26.032   7.963  47.375  1.00  0.00     0.001 A 
HETATM   20  C14 UNL     1      24.857   8.274  48.048  1.00  0.00     0.014 A 
HETATM   21  C16 UNL     1      23.378   7.845  49.870  1.00  0.00     0.131 A 
HETATM   22  N3  UNL     1      23.097   7.139  50.954  1.00  0.00    -0.242 NA
ENDBRANCH  11  13
ENDBRANCH   7  11
BRANCH  10  23
HETATM   23  O2  UNL     1      26.957   1.942  54.277  1.00  0.00    -0.353 OA
HETATM   24  C20 UNL     1      28.087   2.278  53.462  1.00  0.00     0.210 C 
ENDBRANCH  10  23
BRANCH   1  25
HETATM   25  O1  UNL     1      25.974  -0.565  53.726  1.00  0.00    -0.353 OA
HETATM   26  C1  UNL     1      26.753  -1.355  52.878  1.00  0.00     0.210 C 
ENDBRANCH   1  25
TORSDOF 4
ENDMDL
