MODEL 1
REMARK VINA RESULT:      -7.8      0.000      0.000
REMARK  4 active torsions:
REMARK  status: ('A' for Active; 'I' for Inactive)
REMARK    1  A    between atoms: O1_2  and  C2_3 
REMARK    2  A    between atoms: C2_3  and  C3_4 
REMARK    3  A    between atoms: C9_12  and  N3_13 
REMARK    4  A    between atoms: N3_13  and  C10_14 
ROOT
HETATM    1  C3  UNL     1      22.199  -1.118  54.260  1.00  0.00    -0.050 A 
HETATM    2  C4  UNL     1      23.106  -1.401  55.183  1.00  0.00     0.037 A 
HETATM    3  C5  UNL     1      24.357  -0.726  54.857  1.00  0.00     0.065 A 
HETATM    4  N1  UNL     1      25.578  -0.682  55.462  1.00  0.00    -0.259 NA
HETATM    5  C6  UNL     1      26.588   0.038  54.935  1.00  0.00     0.142 A 
HETATM    6  C7  UNL     1      26.392   0.755  53.752  1.00  0.00     0.089 A 
HETATM    7  C8  UNL     1      27.455   1.528  53.177  1.00  0.00     0.103 C 
HETATM    8  N2  UNL     1      28.309   2.168  52.703  1.00  0.00    -0.191 NA
HETATM    9  C9  UNL     1      25.170   0.752  53.086  1.00  0.00     0.064 A 
HETATM   10  C16 UNL     1      24.160  -0.009  53.672  1.00  0.00     0.003 A 
HETATM   11  C17 UNL     1      22.767  -0.222  53.227  1.00  0.00     0.079 A 
ENDROOT
BRANCH   9  12
HETATM   12  N3  UNL     1      24.916   1.449  51.900  1.00  0.00    -0.354 N 
HETATM   13  H8  UNL     1      24.996   0.747  51.159  1.00  0.00     0.166 HD
BRANCH  12  14
HETATM   14  C10 UNL     1      24.608   2.819  51.678  1.00  0.00     0.033 A 
HETATM   15  C11 UNL     1      23.736   3.411  52.567  1.00  0.00     0.029 A 
HETATM   16  C12 UNL     1      23.401   4.741  52.398  1.00  0.00     0.004 A 
HETATM   17  C13 UNL     1      23.984   5.400  51.314  1.00  0.00     0.019 A 
HETATM   18  C14 UNL     1      24.860   4.808  50.421  1.00  0.00     0.013 A 
HETATM   19 BR1  UNL     1      25.555   5.864  49.006  1.00  0.00    -0.051 Br
HETATM   20  C15 UNL     1      25.181   3.474  50.610  1.00  0.00     0.048 A 
ENDBRANCH  12  14
ENDBRANCH   9  12
BRANCH   1  21
HETATM   21  C2  UNL     1      20.778  -1.588  54.185  1.00  0.00     0.201 C 
BRANCH  21  22
HETATM   22  O1  UNL     1      19.979  -0.703  53.470  1.00  0.00    -0.392 OA
HETATM   23  C1  UNL     1      18.666  -1.123  53.348  1.00  0.00     0.201 C 
ENDBRANCH  21  22
ENDBRANCH   1  21
TORSDOF 4
ENDMDL
MODEL 2
REMARK VINA RESULT:      -7.6      2.587      4.713
REMARK  4 active torsions:
REMARK  status: ('A' for Active; 'I' for Inactive)
REMARK    1  A    between atoms: O1_2  and  C2_3 
REMARK    2  A    between atoms: C2_3  and  C3_4 
REMARK    3  A    between atoms: C9_12  and  N3_13 
REMARK    4  A    between atoms: N3_13  and  C10_14 
ROOT
HETATM    1  C3  UNL     1      25.990  -0.239  54.323  1.00  0.00    -0.050 A 
HETATM    2  C4  UNL     1      25.232  -0.944  55.150  1.00  0.00     0.037 A 
HETATM    3  C5  UNL     1      23.843  -0.877  54.712  1.00  0.00     0.065 A 
HETATM    4  N1  UNL     1      22.685  -1.412  55.195  1.00  0.00    -0.259 NA
HETATM    5  C6  UNL     1      21.508  -1.186  54.583  1.00  0.00     0.142 A 
HETATM    6  C7  UNL     1      21.458  -0.394  53.433  1.00  0.00     0.089 A 
HETATM    7  C8  UNL     1      20.213  -0.142  52.765  1.00  0.00     0.103 C 
HETATM    8  N2  UNL     1      19.208   0.062  52.208  1.00  0.00    -0.191 NA
HETATM    9  C9  UNL     1      22.603   0.181  52.889  1.00  0.00     0.064 A 
HETATM   10  C16 UNL     1      23.795  -0.083  53.561  1.00  0.00     0.003 A 
HETATM   11  C17 UNL     1      25.168   0.367  53.251  1.00  0.00     0.079 A 
ENDROOT
BRANCH   9  12
HETATM   12  N3  UNL     1      22.616   0.982  51.742  1.00  0.00    -0.354 N 
HETATM   13  H8  UNL     1      22.353   0.352  50.978  1.00  0.00     0.166 HD
BRANCH  12  14
HETATM   14  C10 UNL     1      22.912   2.362  51.577  1.00  0.00     0.033 A 
HETATM   15  C11 UNL     1      22.164   3.251  52.321  1.00  0.00     0.029 A 
HETATM   16  C12 UNL     1      22.409   4.605  52.200  1.00  0.00     0.004 A 
HETATM   17  C13 UNL     1      23.419   4.981  51.312  1.00  0.00     0.019 A 
HETATM   18  C14 UNL     1      24.171   4.091  50.566  1.00  0.00     0.013 A 
HETATM   19 BR1  UNL     1      25.505   4.788  49.410  1.00  0.00    -0.051 Br
HETATM   20  C15 UNL     1      23.907   2.738  50.703  1.00  0.00     0.048 A 
ENDBRANCH  12  14
ENDBRANCH   9  12
BRANCH   1  21
HETATM   21  C2  UNL     1      27.472  -0.026  54.381  1.00  0.00     0.201 C 
BRANCH  21  22
HETATM   22  O1  UNL     1      28.169  -1.098  53.834  1.00  0.00    -0.392 OA
HETATM   23  C1  UNL     1      29.530  -0.871  53.728  1.00  0.00     0.201 C 
ENDBRANCH  21  22
ENDBRANCH   1  21
TORSDOF 4
ENDMDL
MODEL 3
REMARK VINA RESULT:      -7.5      1.490      2.021
REMARK  4 active torsions:
REMARK  status: ('A' for Active; 'I' for Inactive)
REMARK    1  A    between atoms: O1_2  and  C2_3 
REMARK    2  A    between atoms: C2_3  and  C3_4 
REMARK    3  A    between atoms: C9_12  and  N3_13 
REMARK    4  A    between atoms: N3_13  and  C10_14 
ROOT
HETATM    1  C3  UNL     1      20.378  -0.629  53.367  1.00  0.00    -0.050 A 
HETATM    2  C4  UNL     1      20.764  -1.273  54.459  1.00  0.00     0.037 A 
HETATM    3  C5  UNL     1      22.202  -1.114  54.634  1.00  0.00     0.065 A 
HETATM    4  N1  UNL     1      23.082  -1.563  55.574  1.00  0.00    -0.259 NA
HETATM    5  C6  UNL     1      24.393  -1.263  55.496  1.00  0.00     0.142 A 
HETATM    6  C7  UNL     1      24.870  -0.479  54.442  1.00  0.00     0.089 A 
HETATM    7  C8  UNL     1      26.262  -0.148  54.343  1.00  0.00     0.103 C 
HETATM    8  N2  UNL     1      27.391   0.136  54.256  1.00  0.00    -0.191 NA
HETATM    9  C9  UNL     1      24.023   0.011  53.451  1.00  0.00     0.064 A 
HETATM   10  C16 UNL     1      22.678  -0.330  53.579  1.00  0.00     0.003 A 
HETATM   11  C17 UNL     1      21.534   0.023  52.711  1.00  0.00     0.079 A 
ENDROOT
BRANCH   9  12
HETATM   12  N3  UNL     1      24.442   0.799  52.375  1.00  0.00    -0.354 N 
HETATM   13  H8  UNL     1      25.083   0.201  51.844  1.00  0.00     0.166 HD
BRANCH  12  14
HETATM   14  C10 UNL     1      24.109   2.134  52.017  1.00  0.00     0.033 A 
HETATM   15  C11 UNL     1      24.090   3.063  53.037  1.00  0.00     0.029 A 
HETATM   16  C12 UNL     1      23.772   4.376  52.746  1.00  0.00     0.004 A 
HETATM   17  C13 UNL     1      23.487   4.669  51.412  1.00  0.00     0.019 A 
HETATM   18  C14 UNL     1      23.507   3.739  50.387  1.00  0.00     0.013 A 
HETATM   19 BR1  UNL     1      23.092   4.325  48.631  1.00  0.00    -0.051 Br
HETATM   20  C15 UNL     1      23.828   2.429  50.702  1.00  0.00     0.048 A 
ENDBRANCH  12  14
ENDBRANCH   9  12
BRANCH   1  21
HETATM   21  C2  UNL     1      18.997  -0.518  52.798  1.00  0.00     0.201 C 
BRANCH  21  22
HETATM   22  O1  UNL     1      19.019  -0.110  51.468  1.00  0.00    -0.392 OA
HETATM   23  C1  UNL     1      17.763  -0.063  50.887  1.00  0.00     0.201 C 
ENDBRANCH  21  22
ENDBRANCH   1  21
TORSDOF 4
ENDMDL
MODEL 4
REMARK VINA RESULT:      -7.3      3.593      6.061
REMARK  4 active torsions:
REMARK  status: ('A' for Active; 'I' for Inactive)
REMARK    1  A    between atoms: O1_2  and  C2_3 
REMARK    2  A    between atoms: C2_3  and  C3_4 
REMARK    3  A    between atoms: C9_12  and  N3_13 
REMARK    4  A    between atoms: N3_13  and  C10_14 
ROOT
HETATM    1  C3  UNL     1      25.857   2.725  50.913  1.00  0.00    -0.050 A 
HETATM    2  C4  UNL     1      26.666   1.778  51.366  1.00  0.00     0.037 A 
HETATM    3  C5  UNL     1      25.928   0.896  52.262  1.00  0.00     0.065 A 
HETATM    4  N1  UNL     1      26.278  -0.210  52.979  1.00  0.00    -0.259 NA
HETATM    5  C6  UNL     1      25.377  -0.852  53.748  1.00  0.00     0.142 A 
HETATM    6  C7  UNL     1      24.061  -0.388  53.818  1.00  0.00     0.089 A 
HETATM    7  C8  UNL     1      23.087  -1.059  54.630  1.00  0.00     0.103 C 
HETATM    8  N2  UNL     1      22.283  -1.601  55.280  1.00  0.00    -0.191 NA
HETATM    9  C9  UNL     1      23.640   0.735  53.110  1.00  0.00     0.064 A 
HETATM   10  C16 UNL     1      24.611   1.362  52.332  1.00  0.00     0.003 A 
HETATM   11  C17 UNL     1      24.496   2.558  51.471  1.00  0.00     0.079 A 
ENDROOT
BRANCH   9  12
HETATM   12  N3  UNL     1      22.338   1.245  53.141  1.00  0.00    -0.354 N 
HETATM   13  H8  UNL     1      22.363   1.987  53.846  1.00  0.00     0.166 HD
BRANCH  12  14
HETATM   14  C10 UNL     1      21.180   0.879  52.401  1.00  0.00     0.033 A 
HETATM   15  C11 UNL     1      21.143   1.265  51.078  1.00  0.00     0.029 A 
HETATM   16  C12 UNL     1      20.042   0.936  50.310  1.00  0.00     0.004 A 
HETATM   17  C13 UNL     1      19.026   0.223  50.949  1.00  0.00     0.019 A 
HETATM   18  C14 UNL     1      19.062  -0.166  52.277  1.00  0.00     0.013 A 
HETATM   19 BR1  UNL     1      17.585  -1.133  52.972  1.00  0.00    -0.051 Br
HETATM   20  C15 UNL     1      20.176   0.175  53.026  1.00  0.00     0.048 A 
ENDBRANCH  12  14
ENDBRANCH   9  12
BRANCH   1  21
HETATM   21  C2  UNL     1      26.179   3.845  49.972  1.00  0.00     0.201 C 
BRANCH  21  22
HETATM   22  O1  UNL     1      25.316   4.923  50.138  1.00  0.00    -0.392 OA
HETATM   23  C1  UNL     1      24.756   5.366  48.952  1.00  0.00     0.201 C 
ENDBRANCH  21  22
ENDBRANCH   1  21
TORSDOF 4
ENDMDL
MODEL 5
REMARK VINA RESULT:      -7.3      2.776      4.832
REMARK  4 active torsions:
REMARK  status: ('A' for Active; 'I' for Inactive)
REMARK    1  A    between atoms: O1_2  and  C2_3 
REMARK    2  A    between atoms: C2_3  and  C3_4 
REMARK    3  A    between atoms: C9_12  and  N3_13 
REMARK    4  A    between atoms: N3_13  and  C10_14 
ROOT
HETATM    1  C3  UNL     1      26.206   0.161  53.452  1.00  0.00    -0.050 A 
HETATM    2  C4  UNL     1      25.297  -0.800  53.524  1.00  0.00     0.037 A 
HETATM    3  C5  UNL     1      23.973  -0.234  53.298  1.00  0.00     0.065 A 
HETATM    4  N1  UNL     1      22.721  -0.773  53.265  1.00  0.00    -0.259 NA
HETATM    5  C6  UNL     1      21.640  -0.005  53.029  1.00  0.00     0.142 A 
HETATM    6  C7  UNL     1      21.792   1.367  52.812  1.00  0.00     0.089 A 
HETATM    7  C8  UNL     1      20.653   2.202  52.559  1.00  0.00     0.103 C 
HETATM    8  N2  UNL     1      19.735   2.891  52.342  1.00  0.00    -0.191 NA
HETATM    9  C9  UNL     1      23.042   1.979  52.833  1.00  0.00     0.064 A 
HETATM   10  C16 UNL     1      24.126   1.139  53.082  1.00  0.00     0.003 A 
HETATM   11  C17 UNL     1      25.565   1.465  53.169  1.00  0.00     0.079 A 
ENDROOT
BRANCH   9  12
HETATM   12  N3  UNL     1      23.255   3.346  52.623  1.00  0.00    -0.354 N 
HETATM   13  H8  UNL     1      23.106   3.779  53.539  1.00  0.00     0.166 HD
BRANCH  12  14
HETATM   14  C10 UNL     1      23.603   4.060  51.444  1.00  0.00     0.033 A 
HETATM   15  C11 UNL     1      23.792   3.315  50.300  1.00  0.00     0.029 A 
HETATM   16  C12 UNL     1      24.131   3.958  49.125  1.00  0.00     0.004 A 
HETATM   17  C13 UNL     1      24.261   5.346  49.187  1.00  0.00     0.019 A 
HETATM   18  C14 UNL     1      24.071   6.096  50.334  1.00  0.00     0.013 A 
HETATM   19 BR1  UNL     1      24.290   7.978  50.226  1.00  0.00    -0.051 Br
HETATM   20  C15 UNL     1      23.731   5.430  51.500  1.00  0.00     0.048 A 
ENDBRANCH  12  14
ENDBRANCH   9  12
BRANCH   1  21
HETATM   21  C2  UNL     1      27.691   0.044  53.619  1.00  0.00     0.201 C 
BRANCH  21  22
HETATM   22  O1  UNL     1      28.103  -1.283  53.656  1.00  0.00    -0.392 OA
HETATM   23  C1  UNL     1      29.457  -1.445  53.415  1.00  0.00     0.201 C 
ENDBRANCH  21  22
ENDBRANCH   1  21
TORSDOF 4
ENDMDL
MODEL 6
REMARK VINA RESULT:      -6.9      3.193      5.248
REMARK  4 active torsions:
REMARK  status: ('A' for Active; 'I' for Inactive)
REMARK    1  A    between atoms: O1_2  and  C2_3 
REMARK    2  A    between atoms: C2_3  and  C3_4 
REMARK    3  A    between atoms: C9_12  and  N3_13 
REMARK    4  A    between atoms: N3_13  and  C10_14 
ROOT
HETATM    1  C3  UNL     1      26.059   1.393  53.453  1.00  0.00    -0.050 A 
HETATM    2  C4  UNL     1      25.763   0.251  54.055  1.00  0.00     0.037 A 
HETATM    3  C5  UNL     1      24.353  -0.056  53.851  1.00  0.00     0.065 A 
HETATM    4  N1  UNL     1      23.556  -1.088  54.249  1.00  0.00    -0.259 NA
HETATM    5  C6  UNL     1      22.252  -1.127  53.914  1.00  0.00     0.142 A 
HETATM    6  C7  UNL     1      21.697  -0.100  53.146  1.00  0.00     0.089 A 
HETATM    7  C8  UNL     1      20.310  -0.124  52.778  1.00  0.00     0.103 C 
HETATM    8  N2  UNL     1      19.185  -0.136  52.465  1.00  0.00    -0.191 NA
HETATM    9  C9  UNL     1      22.456   0.982  52.708  1.00  0.00     0.064 A 
HETATM   10  C16 UNL     1      23.799   0.973  53.083  1.00  0.00     0.003 A 
HETATM   11  C17 UNL     1      24.862   1.956  52.787  1.00  0.00     0.079 A 
ENDROOT
BRANCH   9  12
HETATM   12  N3  UNL     1      21.956   2.037  51.939  1.00  0.00    -0.354 N 
HETATM   13  H8  UNL     1      21.449   2.630  52.603  1.00  0.00     0.166 HD
BRANCH  12  14
HETATM   14  C10 UNL     1      22.073   2.308  50.548  1.00  0.00     0.033 A 
HETATM   15  C11 UNL     1      21.812   1.263  49.688  1.00  0.00     0.029 A 
HETATM   16  C12 UNL     1      21.911   1.470  48.325  1.00  0.00     0.004 A 
HETATM   17  C13 UNL     1      22.278   2.752  47.913  1.00  0.00     0.019 A 
HETATM   18  C14 UNL     1      22.540   3.803  48.775  1.00  0.00     0.013 A 
HETATM   19 BR1  UNL     1      23.026   5.479  48.030  1.00  0.00    -0.051 Br
HETATM   20  C15 UNL     1      22.435   3.571  50.136  1.00  0.00     0.048 A 
ENDBRANCH  12  14
ENDBRANCH   9  12
BRANCH   1  21
HETATM   21  C2  UNL     1      27.381   2.095  53.397  1.00  0.00     0.201 C 
BRANCH  21  22
HETATM   22  O1  UNL     1      28.424   1.212  53.140  1.00  0.00    -0.392 OA
HETATM   23  C1  UNL     1      29.299   1.071  54.203  1.00  0.00     0.201 C 
ENDBRANCH  21  22
ENDBRANCH   1  21
TORSDOF 4
ENDMDL
MODEL 7
REMARK VINA RESULT:      -6.6      3.052      4.929
REMARK  4 active torsions:
REMARK  status: ('A' for Active; 'I' for Inactive)
REMARK    1  A    between atoms: O1_2  and  C2_3 
REMARK    2  A    between atoms: C2_3  and  C3_4 
REMARK    3  A    between atoms: C9_12  and  N3_13 
REMARK    4  A    between atoms: N3_13  and  C10_14 
ROOT
HETATM    1  C3  UNL     1      23.926  -0.195  53.516  1.00  0.00    -0.050 A 
HETATM    2  C4  UNL     1      22.796  -0.887  53.501  1.00  0.00     0.037 A 
HETATM    3  C5  UNL     1      21.708  -0.032  53.041  1.00  0.00     0.065 A 
HETATM    4  N1  UNL     1      20.375  -0.242  52.845  1.00  0.00    -0.259 NA
HETATM    5  C6  UNL     1      19.575   0.746  52.401  1.00  0.00     0.142 A 
HETATM    6  C7  UNL     1      20.108   2.009  52.132  1.00  0.00     0.089 A 
HETATM    7  C8  UNL     1      19.271   3.074  51.658  1.00  0.00     0.103 C 
HETATM    8  N2  UNL     1      18.603   3.947  51.263  1.00  0.00    -0.191 NA
HETATM    9  C9  UNL     1      21.460   2.289  52.311  1.00  0.00     0.064 A 
HETATM   10  C16 UNL     1      22.243   1.232  52.772  1.00  0.00     0.003 A 
HETATM   11  C17 UNL     1      23.692   1.195  53.062  1.00  0.00     0.079 A 
ENDROOT
BRANCH   9  12
HETATM   12  N3  UNL     1      22.049   3.532  52.058  1.00  0.00    -0.354 N 
HETATM   13  H8  UNL     1      21.892   4.076  52.912  1.00  0.00     0.166 HD
BRANCH  12  14
HETATM   14  C10 UNL     1      22.731   4.020  50.910  1.00  0.00     0.033 A 
HETATM   15  C11 UNL     1      21.961   4.639  49.948  1.00  0.00     0.029 A 
HETATM   16  C12 UNL     1      22.572   5.132  48.811  1.00  0.00     0.004 A 
HETATM   17  C13 UNL     1      23.954   4.961  48.720  1.00  0.00     0.019 A 
HETATM   18  C14 UNL     1      24.728   4.341  49.685  1.00  0.00     0.013 A 
HETATM   19 BR1  UNL     1      26.597   4.201  49.387  1.00  0.00    -0.051 Br
HETATM   20  C15 UNL     1      24.094   3.854  50.816  1.00  0.00     0.048 A 
ENDBRANCH  12  14
ENDBRANCH   9  12
BRANCH   1  21
HETATM   21  C2  UNL     1      25.292  -0.662  53.916  1.00  0.00     0.201 C 
BRANCH  21  22
HETATM   22  O1  UNL     1      25.979  -1.226  52.846  1.00  0.00    -0.392 OA
HETATM   23  C1  UNL     1      27.006  -0.429  52.372  1.00  0.00     0.201 C 
ENDBRANCH  21  22
ENDBRANCH   1  21
TORSDOF 4
ENDMDL
MODEL 8
REMARK VINA RESULT:      -6.4      3.363      5.379
REMARK  4 active torsions:
REMARK  status: ('A' for Active; 'I' for Inactive)
REMARK    1  A    between atoms: O1_2  and  C2_3 
REMARK    2  A    between atoms: C2_3  and  C3_4 
REMARK    3  A    between atoms: C9_12  and  N3_13 
REMARK    4  A    between atoms: N3_13  and  C10_14 
ROOT
HETATM    1  C3  UNL     1      25.087   0.802  52.415  1.00  0.00    -0.050 A 
HETATM    2  C4  UNL     1      24.274   0.248  53.302  1.00  0.00     0.037 A 
HETATM    3  C5  UNL     1      22.937   0.812  53.155  1.00  0.00     0.065 A 
HETATM    4  N1  UNL     1      21.757   0.594  53.802  1.00  0.00    -0.259 NA
HETATM    5  C6  UNL     1      20.643   1.269  53.459  1.00  0.00     0.142 A 
HETATM    6  C7  UNL     1      20.685   2.207  52.424  1.00  0.00     0.089 A 
HETATM    7  C8  UNL     1      19.509   2.934  52.043  1.00  0.00     0.103 C 
HETATM    8  N2  UNL     1      18.556   3.527  51.717  1.00  0.00    -0.191 NA
HETATM    9  C9  UNL     1      21.858   2.475  51.724  1.00  0.00     0.064 A 
HETATM   10  C16 UNL     1      22.981   1.750  52.120  1.00  0.00     0.003 A 
HETATM   11  C17 UNL     1      24.360   1.794  51.591  1.00  0.00     0.079 A 
ENDROOT
BRANCH   9  12
HETATM   12  N3  UNL     1      21.960   3.401  50.680  1.00  0.00    -0.354 N 
HETATM   13  H8  UNL     1      21.788   2.858  49.829  1.00  0.00     0.166 HD
BRANCH  12  14
HETATM   14  C10 UNL     1      22.235   4.796  50.701  1.00  0.00     0.033 A 
HETATM   15  C11 UNL     1      23.508   5.171  51.076  1.00  0.00     0.029 A 
HETATM   16  C12 UNL     1      23.831   6.514  51.114  1.00  0.00     0.004 A 
HETATM   17  C13 UNL     1      22.820   7.410  50.763  1.00  0.00     0.019 A 
HETATM   18  C14 UNL     1      21.542   7.035  50.386  1.00  0.00     0.013 A 
HETATM   19 BR1  UNL     1      20.298   8.397  49.941  1.00  0.00    -0.051 Br
HETATM   20  C15 UNL     1      21.242   5.684  50.355  1.00  0.00     0.048 A 
ENDBRANCH  12  14
ENDBRANCH   9  12
BRANCH   1  21
HETATM   21  C2  UNL     1      26.545   0.532  52.201  1.00  0.00     0.201 C 
BRANCH  21  22
HETATM   22  O1  UNL     1      27.299   1.700  52.251  1.00  0.00    -0.392 OA
HETATM   23  C1  UNL     1      28.328   1.650  53.175  1.00  0.00     0.201 C 
ENDBRANCH  21  22
ENDBRANCH   1  21
TORSDOF 4
ENDMDL
MODEL 9
REMARK VINA RESULT:      -6.3      3.434      5.864
REMARK  4 active torsions:
REMARK  status: ('A' for Active; 'I' for Inactive)
REMARK    1  A    between atoms: O1_2  and  C2_3 
REMARK    2  A    between atoms: C2_3  and  C3_4 
REMARK    3  A    between atoms: C9_12  and  N3_13 
REMARK    4  A    between atoms: N3_13  and  C10_14 
ROOT
HETATM    1  C3  UNL     1      20.010   4.433  50.729  1.00  0.00    -0.050 A 
HETATM    2  C4  UNL     1      20.706   5.556  50.633  1.00  0.00     0.037 A 
HETATM    3  C5  UNL     1      22.130   5.246  50.619  1.00  0.00     0.065 A 
HETATM    4  N1  UNL     1      23.252   6.017  50.536  1.00  0.00    -0.259 NA
HETATM    5  C6  UNL     1      24.478   5.461  50.545  1.00  0.00     0.142 A 
HETATM    6  C7  UNL     1      24.616   4.074  50.640  1.00  0.00     0.089 A 
HETATM    7  C8  UNL     1      25.914   3.463  50.650  1.00  0.00     0.103 C 
HETATM    8  N2  UNL     1      26.965   2.953  50.650  1.00  0.00    -0.191 NA
HETATM    9  C9  UNL     1      23.512   3.231  50.727  1.00  0.00     0.064 A 
HETATM   10  C16 UNL     1      22.267   3.858  50.714  1.00  0.00     0.003 A 
HETATM   11  C17 UNL     1      20.916   3.263  50.789  1.00  0.00     0.079 A 
ENDROOT
BRANCH   9  12
HETATM   12  N3  UNL     1      23.588   1.838  50.823  1.00  0.00    -0.354 N 
HETATM   13  H8  UNL     1      23.626   1.509  49.853  1.00  0.00     0.166 HD
BRANCH  12  14
HETATM   14  C10 UNL     1      23.613   0.986  51.961  1.00  0.00     0.033 A 
HETATM   15  C11 UNL     1      24.832   0.818  52.583  1.00  0.00     0.029 A 
HETATM   16  C12 UNL     1      24.914  -0.000  53.694  1.00  0.00     0.004 A 
HETATM   17  C13 UNL     1      23.729  -0.608  54.112  1.00  0.00     0.019 A 
HETATM   18  C14 UNL     1      22.505  -0.440  53.489  1.00  0.00     0.013 A 
HETATM   19 BR1  UNL     1      21.000  -1.350  54.201  1.00  0.00    -0.051 Br
HETATM   20  C15 UNL     1      22.447   0.384  52.377  1.00  0.00     0.048 A 
ENDBRANCH  12  14
ENDBRANCH   9  12
BRANCH   1  21
HETATM   21  C2  UNL     1      18.522   4.267  50.779  1.00  0.00     0.201 C 
BRANCH  21  22
HETATM   22  O1  UNL     1      18.123   3.514  51.878  1.00  0.00    -0.392 OA
HETATM   23  C1  UNL     1      17.282   2.465  51.550  1.00  0.00     0.201 C 
ENDBRANCH  21  22
ENDBRANCH   1  21
TORSDOF 4
ENDMDL
