MODEL 1
REMARK VINA RESULT:      -7.7      0.000      0.000
REMARK  3 active torsions:
REMARK  status: ('A' for Active; 'I' for Inactive)
REMARK    1  A    between atoms: C3_3  and  C4_4 
REMARK    2  A    between atoms: C12_14  and  O1_15 
REMARK    3  A    between atoms: C13_16  and  C14_17 
ROOT
HETATM    1  C4  UNL     1      25.080   0.973  52.859  1.00  0.00     0.024 C 
HETATM    2  C5  UNL     1      23.926   0.360  53.065  1.00  0.00     0.008 C 
HETATM    3  C6  UNL     1      22.519   0.264  52.603  1.00  0.00     0.084 C 
HETATM    4  C7  UNL     1      22.176   1.307  51.627  1.00  0.00     0.022 C 
HETATM    5  N1  UNL     1      21.301   2.228  51.294  1.00  0.00    -0.239 NA
HETATM    6  C8  UNL     1      22.054   3.423  50.922  1.00  0.00     0.129 C 
HETATM    7  C9  UNL     1      23.350   3.057  51.086  1.00  0.00    -0.004 C 
HETATM    8  C10 UNL     1      23.022   1.720  50.437  1.00  0.00     0.095 C 
HETATM    9  C11 UNL     1      24.720   3.393  51.604  1.00  0.00     0.146 C 
HETATM   10  N2  UNL     1      25.309   2.247  52.275  1.00  0.00    -0.379 N 
HETATM   11  C12 UNL     1      25.633   3.859  50.500  1.00  0.00     0.175 C 
HETATM   12  C13 UNL     1      25.351   5.354  50.227  1.00  0.00     0.184 C 
HETATM   13  N3  UNL     1      23.903   5.397  50.142  1.00  0.00    -0.185 NA
HETATM   14  N4  UNL     1      23.333   5.614  51.235  1.00  0.00    -0.178 NA
HETATM   15  C17 UNL     1      21.900   5.680  51.332  1.00  0.00     0.296 C 
HETATM   16  N5  UNL     1      21.338   4.597  50.493  1.00  0.00    -0.355 N 
HETATM   17  H12 UNL     1      26.321   2.490  52.341  1.00  0.00     0.160 HD
HETATM   18  H23 UNL     1      20.630   4.456  49.741  1.00  0.00     0.163 HD
ENDROOT
BRANCH   1  19
HETATM   19  C3  UNL     1      26.255   0.237  53.291  1.00  0.00     0.024 C 
HETATM   20  C2  UNL     1      27.045  -0.544  52.592  1.00  0.00    -0.029 C 
HETATM   21  C1  UNL     1      28.248  -1.270  53.132  1.00  0.00     0.036 C 
ENDBRANCH   1  19
BRANCH  11  22
HETATM   22  O1  UNL     1      26.956   3.575  50.647  1.00  0.00    -0.391 OA
HETATM   23  H14 UNL     1      27.118   2.784  51.209  1.00  0.00     0.210 HD
ENDBRANCH  11  22
BRANCH  12  24
HETATM   24  C14 UNL     1      26.030   5.848  49.029  1.00  0.00     0.000 C 
HETATM   25  C15 UNL     1      26.922   6.819  48.857  1.00  0.00    -0.033 C 
HETATM   26  C16 UNL     1      27.500   7.169  47.530  1.00  0.00     0.036 C 
ENDBRANCH  12  24
TORSDOF 3
ENDMDL
MODEL 2
REMARK VINA RESULT:      -7.6      2.024      5.736
REMARK  3 active torsions:
REMARK  status: ('A' for Active; 'I' for Inactive)
REMARK    1  A    between atoms: C3_3  and  C4_4 
REMARK    2  A    between atoms: C12_14  and  O1_15 
REMARK    3  A    between atoms: C13_16  and  C14_17 
ROOT
HETATM    1  C4  UNL     1      25.391   4.607  49.616  1.00  0.00     0.024 C 
HETATM    2  C5  UNL     1      24.794   5.768  49.409  1.00  0.00     0.008 C 
HETATM    3  C6  UNL     1      23.693   6.651  49.871  1.00  0.00     0.084 C 
HETATM    4  C7  UNL     1      22.815   5.989  50.846  1.00  0.00     0.022 C 
HETATM    5  N1  UNL     1      21.571   5.733  51.177  1.00  0.00    -0.239 NA
HETATM    6  C8  UNL     1      21.506   4.322  51.549  1.00  0.00     0.129 C 
HETATM    7  C9  UNL     1      22.780   3.882  51.386  1.00  0.00    -0.004 C 
HETATM    8  C10 UNL     1      23.273   5.167  52.036  1.00  0.00     0.095 C 
HETATM    9  C11 UNL     1      23.713   2.824  50.869  1.00  0.00     0.146 C 
HETATM   10  N2  UNL     1      24.851   3.429  50.199  1.00  0.00    -0.379 N 
HETATM   11  C12 UNL     1      24.196   1.920  51.973  1.00  0.00     0.175 C 
HETATM   12  C13 UNL     1      23.111   0.854  52.245  1.00  0.00     0.184 C 
HETATM   13  N3  UNL     1      21.897   1.646  52.329  1.00  0.00    -0.185 NA
HETATM   14  N4  UNL     1      21.306   1.793  51.235  1.00  0.00    -0.178 NA
HETATM   15  C17 UNL     1      20.092   2.556  51.138  1.00  0.00     0.296 C 
HETATM   16  N5  UNL     1      20.248   3.766  51.977  1.00  0.00    -0.355 N 
HETATM   17  H12 UNL     1      25.544   2.652  50.134  1.00  0.00     0.160 HD
HETATM   18  H23 UNL     1      19.746   4.286  52.729  1.00  0.00     0.163 HD
ENDROOT
BRANCH   1  19
HETATM   19  C3  UNL     1      26.776   4.540  49.185  1.00  0.00     0.024 C 
HETATM   20  C2  UNL     1      27.506   5.462  48.601  1.00  0.00    -0.029 C 
HETATM   21  C1  UNL     1      28.944   5.299  48.188  1.00  0.00     0.036 C 
ENDBRANCH   1  19
BRANCH  11  22
HETATM   22  O1  UNL     1      25.444   1.398  51.827  1.00  0.00    -0.391 OA
HETATM   23  H14 UNL     1      26.145   1.964  52.223  1.00  0.00     0.210 HD
ENDBRANCH  11  22
BRANCH  12  24
HETATM   24  C14 UNL     1      23.385   0.061  53.443  1.00  0.00     0.000 C 
HETATM   25  C15 UNL     1      22.594  -0.693  54.202  1.00  0.00    -0.033 C 
HETATM   26  C16 UNL     1      23.079  -1.432  55.401  1.00  0.00     0.036 C 
ENDBRANCH  12  24
TORSDOF 3
ENDMDL
MODEL 3
REMARK VINA RESULT:      -7.6      1.356      1.623
REMARK  3 active torsions:
REMARK  status: ('A' for Active; 'I' for Inactive)
REMARK    1  A    between atoms: C3_3  and  C4_4 
REMARK    2  A    between atoms: C12_14  and  O1_15 
REMARK    3  A    between atoms: C13_16  and  C14_17 
ROOT
HETATM    1  C4  UNL     1      25.400   1.834  51.638  1.00  0.00     0.024 C 
HETATM    2  C5  UNL     1      24.183   1.340  51.785  1.00  0.00     0.008 C 
HETATM    3  C6  UNL     1      22.787   1.417  51.284  1.00  0.00     0.084 C 
HETATM    4  C7  UNL     1      22.587   2.535  50.352  1.00  0.00     0.022 C 
HETATM    5  N1  UNL     1      21.824   3.558  50.043  1.00  0.00    -0.239 NA
HETATM    6  C8  UNL     1      22.711   4.682  49.748  1.00  0.00     0.129 C 
HETATM    7  C9  UNL     1      23.956   4.171  49.926  1.00  0.00    -0.004 C 
HETATM    8  C10 UNL     1      23.507   2.908  49.205  1.00  0.00     0.095 C 
HETATM    9  C11 UNL     1      25.337   4.334  50.494  1.00  0.00     0.146 C 
HETATM   10  N2  UNL     1      25.781   3.102  51.122  1.00  0.00    -0.379 N 
HETATM   11  C12 UNL     1      26.328   4.749  49.437  1.00  0.00     0.175 C 
HETATM   12  C13 UNL     1      26.214   6.276  49.230  1.00  0.00     0.184 C 
HETATM   13  N3  UNL     1      24.781   6.478  49.111  1.00  0.00    -0.185 NA
HETATM   14  N4  UNL     1      24.205   6.706  50.200  1.00  0.00    -0.178 NA
HETATM   15  C17 UNL     1      22.786   6.921  50.264  1.00  0.00     0.296 C 
HETATM   16  N5  UNL     1      22.137   5.944  49.360  1.00  0.00    -0.355 N 
HETATM   17  H12 UNL     1      26.811   3.231  51.225  1.00  0.00     0.160 HD
HETATM   18  H23 UNL     1      21.440   5.914  48.584  1.00  0.00     0.163 HD
ENDROOT
BRANCH   1  19
HETATM   19  C3  UNL     1      26.477   0.957  52.062  1.00  0.00     0.024 C 
HETATM   20  C2  UNL     1      26.415  -0.285  52.483  1.00  0.00    -0.029 C 
HETATM   21  C1  UNL     1      27.595  -1.119  52.905  1.00  0.00     0.036 C 
ENDBRANCH   1  19
BRANCH  11  22
HETATM   22  O1  UNL     1      27.607   4.319  49.603  1.00  0.00    -0.391 OA
HETATM   23  H14 UNL     1      28.109   4.852  50.260  1.00  0.00     0.210 HD
ENDBRANCH  11  22
BRANCH  12  24
HETATM   24  C14 UNL     1      26.976   6.749  48.074  1.00  0.00     0.000 C 
HETATM   25  C15 UNL     1      28.191   7.283  47.977  1.00  0.00    -0.033 C 
HETATM   26  C16 UNL     1      28.794   7.704  46.682  1.00  0.00     0.036 C 
ENDBRANCH  12  24
TORSDOF 3
ENDMDL
MODEL 4
REMARK VINA RESULT:      -7.6      1.452      5.459
REMARK  3 active torsions:
REMARK  status: ('A' for Active; 'I' for Inactive)
REMARK    1  A    between atoms: C3_3  and  C4_4 
REMARK    2  A    between atoms: C12_14  and  O1_15 
REMARK    3  A    between atoms: C13_16  and  C14_17 
ROOT
HETATM    1  C4  UNL     1      25.487   5.328  49.243  1.00  0.00     0.024 C 
HETATM    2  C5  UNL     1      24.348   5.978  49.080  1.00  0.00     0.008 C 
HETATM    3  C6  UNL     1      23.003   6.212  49.666  1.00  0.00     0.084 C 
HETATM    4  C7  UNL     1      22.720   5.313  50.794  1.00  0.00     0.022 C 
HETATM    5  N1  UNL     1      21.843   4.492  51.325  1.00  0.00    -0.239 NA
HETATM    6  C8  UNL     1      22.576   3.307  51.765  1.00  0.00     0.129 C 
HETATM    7  C9  UNL     1      23.863   3.574  51.427  1.00  0.00    -0.004 C 
HETATM    8  C10 UNL     1      23.669   4.996  51.934  1.00  0.00     0.095 C 
HETATM    9  C11 UNL     1      25.152   3.099  50.819  1.00  0.00     0.146 C 
HETATM   10  N2  UNL     1      25.718   4.120  49.955  1.00  0.00    -0.379 N 
HETATM   11  C12 UNL     1      26.156   2.714  51.875  1.00  0.00     0.175 C 
HETATM   12  C13 UNL     1      25.836   1.282  52.358  1.00  0.00     0.184 C 
HETATM   13  N3  UNL     1      24.405   1.335  52.594  1.00  0.00    -0.185 NA
HETATM   14  N4  UNL     1      23.711   1.023  51.599  1.00  0.00    -0.178 NA
HETATM   15  C17 UNL     1      22.275   1.030  51.656  1.00  0.00     0.296 C 
HETATM   16  N5  UNL     1      21.857   2.236  52.406  1.00  0.00    -0.355 N 
HETATM   17  H12 UNL     1      26.705   3.812  49.819  1.00  0.00     0.160 HD
HETATM   18  H23 UNL     1      21.241   2.507  53.203  1.00  0.00     0.163 HD
ENDROOT
BRANCH   1  19
HETATM   19  C3  UNL     1      26.641   5.936  48.607  1.00  0.00     0.024 C 
HETATM   20  C2  UNL     1      27.874   5.491  48.529  1.00  0.00    -0.029 C 
HETATM   21  C1  UNL     1      29.012   6.199  47.844  1.00  0.00     0.036 C 
ENDBRANCH   1  19
BRANCH  11  22
HETATM   22  O1  UNL     1      27.467   2.900  51.561  1.00  0.00    -0.391 OA
HETATM   23  H14 UNL     1      28.073   2.344  52.101  1.00  0.00     0.210 HD
ENDBRANCH  11  22
BRANCH  12  24
HETATM   24  C14 UNL     1      26.616   0.894  53.534  1.00  0.00     0.000 C 
HETATM   25  C15 UNL     1      27.791   0.283  53.651  1.00  0.00    -0.033 C 
HETATM   26  C16 UNL     1      28.422  -0.025  54.965  1.00  0.00     0.036 C 
ENDBRANCH  12  24
TORSDOF 3
ENDMDL
MODEL 5
REMARK VINA RESULT:      -7.5      4.917      8.411
REMARK  3 active torsions:
REMARK  status: ('A' for Active; 'I' for Inactive)
REMARK    1  A    between atoms: C3_3  and  C4_4 
REMARK    2  A    between atoms: C12_14  and  O1_15 
REMARK    3  A    between atoms: C13_16  and  C14_17 
ROOT
HETATM    1  C4  UNL     1      26.778   6.625  48.579  1.00  0.00     0.024 C 
HETATM    2  C5  UNL     1      25.959   7.334  47.821  1.00  0.00     0.008 C 
HETATM    3  C6  UNL     1      25.901   8.346  46.736  1.00  0.00     0.084 C 
HETATM    4  C7  UNL     1      27.221   8.909  46.423  1.00  0.00     0.022 C 
HETATM    5  N1  UNL     1      27.903  10.013  46.220  1.00  0.00    -0.239 NA
HETATM    6  C8  UNL     1      29.157   9.886  46.959  1.00  0.00     0.129 C 
HETATM    7  C9  UNL     1      29.070   8.664  47.544  1.00  0.00    -0.004 C 
HETATM    8  C10 UNL     1      28.502   8.116  46.242  1.00  0.00     0.095 C 
HETATM    9  C11 UNL     1      29.250   7.816  48.770  1.00  0.00     0.146 C 
HETATM   10  N2  UNL     1      28.118   6.922  48.945  1.00  0.00    -0.379 N 
HETATM   11  C12 UNL     1      30.524   7.014  48.711  1.00  0.00     0.175 C 
HETATM   12  C13 UNL     1      31.696   7.923  49.146  1.00  0.00     0.184 C 
HETATM   13  N3  UNL     1      31.471   9.130  48.372  1.00  0.00    -0.185 NA
HETATM   14  N4  UNL     1      30.757   9.981  48.950  1.00  0.00    -0.178 NA
HETATM   15  C17 UNL     1      30.427  11.231  48.323  1.00  0.00     0.296 C 
HETATM   16  N5  UNL     1      30.116  10.958  46.901  1.00  0.00    -0.355 N 
HETATM   17  H12 UNL     1      28.463   6.215  49.631  1.00  0.00     0.160 HD
HETATM   18  H23 UNL     1      30.375  11.294  45.948  1.00  0.00     0.163 HD
ENDROOT
BRANCH   1  19
HETATM   19  C3  UNL     1      26.223   5.388  49.097  1.00  0.00     0.024 C 
HETATM   20  C2  UNL     1      26.826   4.246  49.335  1.00  0.00    -0.029 C 
HETATM   21  C1  UNL     1      26.162   3.008  49.876  1.00  0.00     0.036 C 
ENDBRANCH   1  19
BRANCH  11  22
HETATM   22  O1  UNL     1      30.512   5.808  49.339  1.00  0.00    -0.391 OA
HETATM   23  H14 UNL     1      31.236   5.213  49.041  1.00  0.00     0.210 HD
ENDBRANCH  11  22
BRANCH  12  24
HETATM   24  C14 UNL     1      33.004   7.308  48.915  1.00  0.00     0.000 C 
HETATM   25  C15 UNL     1      34.185   7.836  48.606  1.00  0.00    -0.033 C 
HETATM   26  C16 UNL     1      35.416   7.021  48.411  1.00  0.00     0.036 C 
ENDBRANCH  12  24
TORSDOF 3
ENDMDL
MODEL 6
REMARK VINA RESULT:      -7.5      2.971      5.924
REMARK  3 active torsions:
REMARK  status: ('A' for Active; 'I' for Inactive)
REMARK    1  A    between atoms: C3_3  and  C4_4 
REMARK    2  A    between atoms: C12_14  and  O1_15 
REMARK    3  A    between atoms: C13_16  and  C14_17 
ROOT
HETATM    1  C4  UNL     1      19.131   0.119  51.895  1.00  0.00     0.024 C 
HETATM    2  C5  UNL     1      18.624   0.867  50.930  1.00  0.00     0.008 C 
HETATM    3  C6  UNL     1      18.970   1.717  49.762  1.00  0.00     0.084 C 
HETATM    4  C7  UNL     1      20.415   1.964  49.657  1.00  0.00     0.022 C 
HETATM    5  N1  UNL     1      21.343   2.876  49.485  1.00  0.00    -0.239 NA
HETATM    6  C8  UNL     1      22.398   2.606  50.460  1.00  0.00     0.129 C 
HETATM    7  C9  UNL     1      21.951   1.514  51.130  1.00  0.00    -0.004 C 
HETATM    8  C10 UNL     1      21.505   0.919  49.802  1.00  0.00     0.095 C 
HETATM    9  C11 UNL     1      21.734   0.818  52.444  1.00  0.00     0.146 C 
HETATM   10  N2  UNL     1      20.422   0.194  52.482  1.00  0.00    -0.379 N 
HETATM   11  C12 UNL     1      22.795  -0.218  52.707  1.00  0.00     0.175 C 
HETATM   12  C13 UNL     1      24.046   0.493  53.271  1.00  0.00     0.184 C 
HETATM   13  N3  UNL     1      24.221   1.607  52.357  1.00  0.00    -0.185 NA
HETATM   14  N4  UNL     1      23.622   2.651  52.703  1.00  0.00    -0.178 NA
HETATM   15  C17 UNL     1      23.682   3.846  51.908  1.00  0.00     0.296 C 
HETATM   16  N5  UNL     1      23.563   3.452  50.486  1.00  0.00    -0.355 N 
HETATM   17  H12 UNL     1      20.485  -0.469  53.285  1.00  0.00     0.160 HD
HETATM   18  H23 UNL     1      24.045   3.601  49.573  1.00  0.00     0.163 HD
ENDROOT
BRANCH   1  19
HETATM   19  C3  UNL     1      18.241  -0.905  52.413  1.00  0.00     0.024 C 
HETATM   20  C2  UNL     1      18.491  -1.854  53.284  1.00  0.00    -0.029 C 
HETATM   21  C1  UNL     1      17.497  -2.879  53.763  1.00  0.00     0.036 C 
ENDBRANCH   1  19
BRANCH  11  22
HETATM   22  O1  UNL     1      22.416  -1.304  53.434  1.00  0.00    -0.391 OA
HETATM   23  H14 UNL     1      22.274  -1.098  54.385  1.00  0.00     0.210 HD
ENDBRANCH  11  22
BRANCH  12  24
HETATM   24  C14 UNL     1      25.209  -0.391  53.356  1.00  0.00     0.000 C 
HETATM   25  C15 UNL     1      26.268  -0.534  52.564  1.00  0.00    -0.033 C 
HETATM   26  C16 UNL     1      27.361  -1.509  52.834  1.00  0.00     0.036 C 
ENDBRANCH  12  24
TORSDOF 3
ENDMDL
MODEL 7
REMARK VINA RESULT:      -7.4      2.357      4.515
REMARK  3 active torsions:
REMARK  status: ('A' for Active; 'I' for Inactive)
REMARK    1  A    between atoms: C3_3  and  C4_4 
REMARK    2  A    between atoms: C12_14  and  O1_15 
REMARK    3  A    between atoms: C13_16  and  C14_17 
ROOT
HETATM    1  C4  UNL     1      23.604  -0.171  53.267  1.00  0.00     0.024 C 
HETATM    2  C5  UNL     1      24.791  -0.675  53.558  1.00  0.00     0.008 C 
HETATM    3  C6  UNL     1      26.235  -0.351  53.681  1.00  0.00     0.084 C 
HETATM    4  C7  UNL     1      26.553   0.995  53.186  1.00  0.00     0.022 C 
HETATM    5  N1  UNL     1      27.357   1.704  52.428  1.00  0.00    -0.239 NA
HETATM    6  C8  UNL     1      26.523   2.621  51.655  1.00  0.00     0.129 C 
HETATM    7  C9  UNL     1      25.260   2.337  52.062  1.00  0.00    -0.004 C 
HETATM    8  C10 UNL     1      25.772   2.259  53.494  1.00  0.00     0.095 C 
HETATM    9  C11 UNL     1      23.825   2.078  51.699  1.00  0.00     0.146 C 
HETATM   10  N2  UNL     1      23.299   0.957  52.459  1.00  0.00    -0.379 N 
HETATM   11  C12 UNL     1      22.965   3.294  51.929  1.00  0.00     0.175 C 
HETATM   12  C13 UNL     1      23.120   4.240  50.717  1.00  0.00     0.184 C 
HETATM   13  N3  UNL     1      24.559   4.297  50.535  1.00  0.00    -0.185 NA
HETATM   14  N4  UNL     1      25.011   3.426  49.758  1.00  0.00    -0.178 NA
HETATM   15  C17 UNL     1      26.417   3.335  49.473  1.00  0.00     0.296 C 
HETATM   16  N5  UNL     1      27.152   3.540  50.741  1.00  0.00    -0.355 N 
HETATM   17  H12 UNL     1      22.265   1.042  52.344  1.00  0.00     0.160 HD
HETATM   18  H23 UNL     1      27.931   4.115  51.129  1.00  0.00     0.163 HD
ENDROOT
BRANCH   1  19
HETATM   19  C3  UNL     1      22.476  -0.871  53.856  1.00  0.00     0.024 C 
HETATM   20  C2  UNL     1      21.223  -0.896  53.465  1.00  0.00    -0.029 C 
HETATM   21  C1  UNL     1      20.116  -1.656  54.145  1.00  0.00     0.036 C 
ENDBRANCH   1  19
BRANCH  11  22
HETATM   22  O1  UNL     1      21.670   3.064  52.275  1.00  0.00    -0.391 OA
HETATM   23  H14 UNL     1      21.576   2.696  53.183  1.00  0.00     0.210 HD
ENDBRANCH  11  22
BRANCH  12  24
HETATM   24  C14 UNL     1      22.498   5.546  50.936  1.00  0.00     0.000 C 
HETATM   25  C15 UNL     1      21.685   6.275  50.176  1.00  0.00    -0.033 C 
HETATM   26  C16 UNL     1      21.155   7.603  50.592  1.00  0.00     0.036 C 
ENDBRANCH  12  24
TORSDOF 3
ENDMDL
MODEL 8
REMARK VINA RESULT:      -7.3      2.301      3.007
REMARK  3 active torsions:
REMARK  status: ('A' for Active; 'I' for Inactive)
REMARK    1  A    between atoms: C3_3  and  C4_4 
REMARK    2  A    between atoms: C12_14  and  O1_15 
REMARK    3  A    between atoms: C13_16  and  C14_17 
ROOT
HETATM    1  C4  UNL     1      22.510   1.719  51.358  1.00  0.00     0.024 C 
HETATM    2  C5  UNL     1      21.461   1.222  50.724  1.00  0.00     0.008 C 
HETATM    3  C6  UNL     1      20.778   1.149  49.408  1.00  0.00     0.084 C 
HETATM    4  C7  UNL     1      21.376   2.052  48.414  1.00  0.00     0.022 C 
HETATM    5  N1  UNL     1      21.133   2.966  47.504  1.00  0.00    -0.239 NA
HETATM    6  C8  UNL     1      22.106   4.039  47.701  1.00  0.00     0.129 C 
HETATM    7  C9  UNL     1      22.847   3.618  48.757  1.00  0.00    -0.004 C 
HETATM    8  C10 UNL     1      22.860   2.221  48.151  1.00  0.00     0.095 C 
HETATM    9  C11 UNL     1      23.502   3.938  50.071  1.00  0.00     0.146 C 
HETATM   10  N2  UNL     1      23.273   2.872  51.030  1.00  0.00    -0.379 N 
HETATM   11  C12 UNL     1      24.982   4.169  49.913  1.00  0.00     0.175 C 
HETATM   12  C13 UNL     1      25.204   5.619  49.429  1.00  0.00     0.184 C 
HETATM   13  N3  UNL     1      24.252   5.744  48.341  1.00  0.00    -0.185 NA
HETATM   14  N4  UNL     1      23.126   6.163  48.692  1.00  0.00    -0.178 NA
HETATM   15  C17 UNL     1      22.062   6.337  47.742  1.00  0.00     0.296 C 
HETATM   16  N5  UNL     1      22.082   5.178  46.821  1.00  0.00    -0.355 N 
HETATM   17  H12 UNL     1      23.977   3.055  51.779  1.00  0.00     0.160 HD
HETATM   18  H23 UNL     1      22.084   4.970  45.798  1.00  0.00     0.163 HD
ENDROOT
BRANCH   1  19
HETATM   19  C3  UNL     1      22.922   0.982  52.539  1.00  0.00     0.024 C 
HETATM   20  C2  UNL     1      22.460  -0.153  53.009  1.00  0.00    -0.029 C 
HETATM   21  C1  UNL     1      22.954  -0.845  54.251  1.00  0.00     0.036 C 
ENDBRANCH   1  19
BRANCH  11  22
HETATM   22  O1  UNL     1      25.766   3.825  50.970  1.00  0.00    -0.391 OA
HETATM   23  H14 UNL     1      25.555   4.334  51.785  1.00  0.00     0.210 HD
ENDBRANCH  11  22
BRANCH  12  24
HETATM   24  C14 UNL     1      26.589   5.879  49.036  1.00  0.00     0.000 C 
HETATM   25  C15 UNL     1      27.549   5.067  48.601  1.00  0.00    -0.033 C 
HETATM   26  C16 UNL     1      28.917   5.540  48.248  1.00  0.00     0.036 C 
ENDBRANCH  12  24
TORSDOF 3
ENDMDL
MODEL 9
REMARK VINA RESULT:      -7.2      6.741      9.318
REMARK  3 active torsions:
REMARK  status: ('A' for Active; 'I' for Inactive)
REMARK    1  A    between atoms: C3_3  and  C4_4 
REMARK    2  A    between atoms: C12_14  and  O1_15 
REMARK    3  A    between atoms: C13_16  and  C14_17 
ROOT
HETATM    1  C4  UNL     1      32.875   4.011  47.508  1.00  0.00     0.024 C 
HETATM    2  C5  UNL     1      34.100   4.491  47.637  1.00  0.00     0.008 C 
HETATM    3  C6  UNL     1      34.890   5.656  48.110  1.00  0.00     0.084 C 
HETATM    4  C7  UNL     1      34.040   6.799  48.474  1.00  0.00     0.022 C 
HETATM    5  N1  UNL     1      33.856   8.092  48.340  1.00  0.00    -0.239 NA
HETATM    6  C8  UNL     1      32.432   8.299  48.085  1.00  0.00     0.129 C 
HETATM    7  C9  UNL     1      31.912   7.046  48.096  1.00  0.00    -0.004 C 
HETATM    8  C10 UNL     1      32.776   6.732  49.310  1.00  0.00     0.095 C 
HETATM    9  C11 UNL     1      31.007   6.029  47.461  1.00  0.00     0.146 C 
HETATM   10  N2  UNL     1      31.653   4.729  47.410  1.00  0.00    -0.379 N 
HETATM   11  C12 UNL     1      29.696   5.915  48.195  1.00  0.00     0.175 C 
HETATM   12  C13 UNL     1      28.769   7.060  47.725  1.00  0.00     0.184 C 
HETATM   13  N3  UNL     1      29.633   8.224  47.801  1.00  0.00    -0.185 NA
HETATM   14  N4  UNL     1      30.262   8.463  46.745  1.00  0.00    -0.178 NA
HETATM   15  C17 UNL     1      31.168   9.575  46.650  1.00  0.00     0.296 C 
HETATM   16  N5  UNL     1      31.939   9.641  47.912  1.00  0.00    -0.355 N 
HETATM   17  H12 UNL     1      30.868   4.068  47.221  1.00  0.00     0.160 HD
HETATM   18  H23 UNL     1      32.203  10.328  48.651  1.00  0.00     0.163 HD
ENDROOT
BRANCH   1  19
HETATM   19  C3  UNL     1      32.782   2.563  47.463  1.00  0.00     0.024 C 
HETATM   20  C2  UNL     1      32.074   1.805  46.659  1.00  0.00    -0.029 C 
HETATM   21  C1  UNL     1      32.041   0.300  46.688  1.00  0.00     0.036 C 
ENDBRANCH   1  19
BRANCH  11  22
HETATM   22  O1  UNL     1      29.097   4.694  48.181  1.00  0.00    -0.391 OA
HETATM   23  H14 UNL     1      28.677   4.463  49.040  1.00  0.00     0.210 HD
ENDBRANCH  11  22
BRANCH  12  24
HETATM   24  C14 UNL     1      27.554   7.170  48.532  1.00  0.00     0.000 C 
HETATM   25  C15 UNL     1      27.137   8.112  49.374  1.00  0.00    -0.033 C 
HETATM   26  C16 UNL     1      25.844   8.033  50.109  1.00  0.00     0.036 C 
ENDBRANCH  12  24
TORSDOF 3
ENDMDL
