MODEL 1
REMARK VINA RESULT:      -6.8      0.000      0.000
REMARK  5 active torsions:
REMARK  status: ('A' for Active; 'I' for Inactive)
REMARK       I    between atoms: N1_2  and  C2_3 
REMARK    1  A    between atoms: C2_3  and  C3_5 
REMARK    2  A    between atoms: C5_7  and  O2_8 
REMARK    3  A    between atoms: O2_8  and  C6_9 
REMARK    4  A    between atoms: C9_12  and  N2_13 
REMARK    5  A    between atoms: N2_13  and  C10_14 
ROOT
HETATM    1  C3  UNL     1      26.302  -0.043  53.866  1.00  0.00     0.126 A 
HETATM    2  C4  UNL     1      25.750   0.764  52.871  1.00  0.00     0.074 A 
HETATM    3  C5  UNL     1      24.376   0.802  52.611  1.00  0.00     0.079 A 
HETATM    4  C13 UNL     1      23.658  -0.033  53.433  1.00  0.00     0.056 A 
HETATM    5  C14 UNL     1      24.157  -0.830  54.408  1.00  0.00     0.120 A 
HETATM    6  N3  UNL     1      25.483  -0.814  54.601  1.00  0.00    -0.255 NA
ENDROOT
BRANCH   3   7
HETATM    7  O2  UNL     1      24.144   1.663  51.607  1.00  0.00    -0.311 OA
BRANCH   7   8
HETATM    8  C6  UNL     1      24.182   2.985  51.438  1.00  0.00     0.076 A 
HETATM    9  C7  UNL     1      24.699   3.866  50.523  1.00  0.00     0.039 A 
HETATM   10  C8  UNL     1      24.587   5.227  50.596  1.00  0.00     0.032 A 
HETATM   11  C9  UNL     1      23.919   5.806  51.644  1.00  0.00     0.034 A 
HETATM   12  C11 UNL     1      23.374   4.992  52.600  1.00  0.00     0.032 A 
HETATM   13  C12 UNL     1      23.501   3.600  52.504  1.00  0.00     0.039 A 
BRANCH  11  14
HETATM   14  N2  UNL     1      23.884   7.216  51.587  1.00  0.00    -0.334 N 
HETATM   15  H8  UNL     1      23.676   7.830  52.402  1.00  0.00     0.168 HD
BRANCH  14  16
HETATM   16  C10 UNL     1      24.121   8.017  50.446  1.00  0.00     0.353 C 
HETATM   17  O3  UNL     1      23.234   8.530  49.762  1.00  0.00    -0.283 OA
ENDBRANCH  14  16
ENDBRANCH  11  14
ENDBRANCH   7   8
ENDBRANCH   3   7
BRANCH   1  18
HETATM   18  C2  UNL     1      27.737  -0.100  54.158  1.00  0.00     0.269 C 
HETATM   19  N1  UNL     1      28.572  -1.054  53.555  1.00  0.00    -0.360 N 
HETATM   20  C1  UNL     1      29.995  -1.132  53.826  1.00  0.00     0.149 C 
HETATM   21  H4  UNL     1      28.196  -1.762  52.870  1.00  0.00     0.162 HD
HETATM   22  O1  UNL     1      28.287   0.684  54.948  1.00  0.00    -0.266 OA
ENDBRANCH   1  18
TORSDOF 5
ENDMDL
MODEL 2
REMARK VINA RESULT:      -6.8      3.659      4.237
REMARK  5 active torsions:
REMARK  status: ('A' for Active; 'I' for Inactive)
REMARK       I    between atoms: N1_2  and  C2_3 
REMARK    1  A    between atoms: C2_3  and  C3_5 
REMARK    2  A    between atoms: C5_7  and  O2_8 
REMARK    3  A    between atoms: O2_8  and  C6_9 
REMARK    4  A    between atoms: C9_12  and  N2_13 
REMARK    5  A    between atoms: N2_13  and  C10_14 
ROOT
HETATM    1  C3  UNL     1      25.725  -0.298  54.405  1.00  0.00     0.126 A 
HETATM    2  C4  UNL     1      24.831   0.196  53.454  1.00  0.00     0.074 A 
HETATM    3  C5  UNL     1      23.464  -0.098  53.484  1.00  0.00     0.079 A 
HETATM    4  C13 UNL     1      23.121  -0.914  54.536  1.00  0.00     0.056 A 
HETATM    5  C14 UNL     1      23.958  -1.412  55.477  1.00  0.00     0.120 A 
HETATM    6  N3  UNL     1      25.256  -1.087  55.386  1.00  0.00    -0.255 NA
ENDROOT
BRANCH   3   7
HETATM    7  O2  UNL     1      22.861   0.513  52.452  1.00  0.00    -0.311 OA
BRANCH   7   8
HETATM    8  C6  UNL     1      21.715   1.161  52.248  1.00  0.00     0.076 A 
HETATM    9  C7  UNL     1      21.269   2.457  52.309  1.00  0.00     0.039 A 
HETATM   10  C8  UNL     1      19.990   2.859  52.039  1.00  0.00     0.032 A 
HETATM   11  C9  UNL     1      19.043   1.937  51.675  1.00  0.00     0.034 A 
HETATM   12  C11 UNL     1      19.410   0.622  51.593  1.00  0.00     0.032 A 
HETATM   13  C12 UNL     1      20.726   0.233  51.874  1.00  0.00     0.039 A 
BRANCH  11  14
HETATM   14  N2  UNL     1      17.770   2.497  51.428  1.00  0.00    -0.334 N 
HETATM   15  H8  UNL     1      16.959   1.963  51.053  1.00  0.00     0.168 HD
BRANCH  14  16
HETATM   16  C10 UNL     1      17.388   3.841  51.642  1.00  0.00     0.353 C 
HETATM   17  O3  UNL     1      16.553   4.202  52.473  1.00  0.00    -0.283 OA
ENDBRANCH  14  16
ENDBRANCH  11  14
ENDBRANCH   7   8
ENDBRANCH   3   7
BRANCH   1  18
HETATM   18  C2  UNL     1      27.161  -0.003  54.395  1.00  0.00     0.269 C 
HETATM   19  N1  UNL     1      28.098  -0.935  53.924  1.00  0.00    -0.360 N 
HETATM   20  C1  UNL     1      29.524  -0.668  53.904  1.00  0.00     0.149 C 
HETATM   21  H4  UNL     1      27.803  -1.879  53.560  1.00  0.00     0.162 HD
HETATM   22  O1  UNL     1      27.622   1.077  54.800  1.00  0.00    -0.266 OA
ENDBRANCH   1  18
TORSDOF 5
ENDMDL
MODEL 3
REMARK VINA RESULT:      -6.6      3.590      5.934
REMARK  5 active torsions:
REMARK  status: ('A' for Active; 'I' for Inactive)
REMARK       I    between atoms: N1_2  and  C2_3 
REMARK    1  A    between atoms: C2_3  and  C3_5 
REMARK    2  A    between atoms: C5_7  and  O2_8 
REMARK    3  A    between atoms: O2_8  and  C6_9 
REMARK    4  A    between atoms: C9_12  and  N2_13 
REMARK    5  A    between atoms: N2_13  and  C10_14 
ROOT
HETATM    1  C3  UNL     1      26.721   0.266  53.335  1.00  0.00     0.126 A 
HETATM    2  C4  UNL     1      25.432   0.012  52.865  1.00  0.00     0.074 A 
HETATM    3  C5  UNL     1      24.446   1.002  52.806  1.00  0.00     0.079 A 
HETATM    4  C13 UNL     1      24.891   2.221  53.258  1.00  0.00     0.056 A 
HETATM    5  C14 UNL     1      26.132   2.506  53.720  1.00  0.00     0.120 A 
HETATM    6  N3  UNL     1      27.027   1.507  53.747  1.00  0.00    -0.255 NA
ENDROOT
BRANCH   3   7
HETATM    7  O2  UNL     1      23.316   0.467  52.315  1.00  0.00    -0.311 OA
BRANCH   7   8
HETATM    8  C6  UNL     1      22.200  -0.063  52.815  1.00  0.00     0.076 A 
HETATM    9  C7  UNL     1      21.866  -0.956  53.800  1.00  0.00     0.039 A 
HETATM   10  C8  UNL     1      20.590  -1.336  54.114  1.00  0.00     0.032 A 
HETATM   11  C9  UNL     1      19.529  -0.812  53.423  1.00  0.00     0.034 A 
HETATM   12  C11 UNL     1      19.780   0.087  52.423  1.00  0.00     0.032 A 
HETATM   13  C12 UNL     1      21.096   0.461  52.118  1.00  0.00     0.039 A 
BRANCH  11  14
HETATM   14  N2  UNL     1      18.274  -1.295  53.856  1.00  0.00    -0.334 N 
HETATM   15  H8  UNL     1      17.946  -1.268  54.844  1.00  0.00     0.168 HD
BRANCH  14  16
HETATM   16  C10 UNL     1      17.274  -1.881  53.046  1.00  0.00     0.353 C 
HETATM   17  O3  UNL     1      16.428  -1.244  52.417  1.00  0.00    -0.283 OA
ENDBRANCH  14  16
ENDBRANCH  11  14
ENDBRANCH   7   8
ENDBRANCH   3   7
BRANCH   1  18
HETATM   18  C2  UNL     1      27.771  -0.754  53.405  1.00  0.00     0.269 C 
HETATM   19  N1  UNL     1      29.087  -0.428  53.767  1.00  0.00    -0.360 N 
HETATM   20  C1  UNL     1      30.145  -1.418  53.845  1.00  0.00     0.149 C 
HETATM   21  H4  UNL     1      29.367   0.561  54.001  1.00  0.00     0.162 HD
HETATM   22  O1  UNL     1      27.556  -1.951  53.151  1.00  0.00    -0.266 OA
ENDBRANCH   1  18
TORSDOF 5
ENDMDL
MODEL 4
REMARK VINA RESULT:      -6.6      4.082      5.204
REMARK  5 active torsions:
REMARK  status: ('A' for Active; 'I' for Inactive)
REMARK       I    between atoms: N1_2  and  C2_3 
REMARK    1  A    between atoms: C2_3  and  C3_5 
REMARK    2  A    between atoms: C5_7  and  O2_8 
REMARK    3  A    between atoms: O2_8  and  C6_9 
REMARK    4  A    between atoms: C9_12  and  N2_13 
REMARK    5  A    between atoms: N2_13  and  C10_14 
ROOT
HETATM    1  C3  UNL     1      25.814  -0.102  54.378  1.00  0.00     0.126 A 
HETATM    2  C4  UNL     1      24.909   0.317  53.403  1.00  0.00     0.074 A 
HETATM    3  C5  UNL     1      23.564  -0.070  53.411  1.00  0.00     0.079 A 
HETATM    4  C13 UNL     1      23.256  -0.892  54.468  1.00  0.00     0.056 A 
HETATM    5  C14 UNL     1      24.106  -1.320  55.433  1.00  0.00     0.120 A 
HETATM    6  N3  UNL     1      25.380  -0.908  55.361  1.00  0.00    -0.255 NA
ENDROOT
BRANCH   3   7
HETATM    7  O2  UNL     1      22.942   0.485  52.358  1.00  0.00    -0.311 OA
BRANCH   7   8
HETATM    8  C6  UNL     1      21.707   0.487  51.857  1.00  0.00     0.076 A 
HETATM    9  C7  UNL     1      20.451   0.136  52.280  1.00  0.00     0.039 A 
HETATM   10  C8  UNL     1      19.312   0.247  51.530  1.00  0.00     0.032 A 
HETATM   11  C9  UNL     1      19.376   0.742  50.253  1.00  0.00     0.034 A 
HETATM   12  C11 UNL     1      20.596   1.115  49.758  1.00  0.00     0.032 A 
HETATM   13  C12 UNL     1      21.749   0.992  50.545  1.00  0.00     0.039 A 
BRANCH  11  14
HETATM   14  N2  UNL     1      18.125   0.799  49.602  1.00  0.00    -0.334 N 
HETATM   15  H8  UNL     1      17.892   1.469  48.839  1.00  0.00     0.168 HD
BRANCH  14  16
HETATM   16  C10 UNL     1      17.003  -0.021  49.864  1.00  0.00     0.353 C 
HETATM   17  O3  UNL     1      15.833   0.341  49.734  1.00  0.00    -0.283 OA
ENDBRANCH  14  16
ENDBRANCH  11  14
ENDBRANCH   7   8
ENDBRANCH   3   7
BRANCH   1  18
HETATM   18  C2  UNL     1      27.226   0.289  54.391  1.00  0.00     0.269 C 
HETATM   19  N1  UNL     1      27.630   1.593  54.065  1.00  0.00    -0.360 N 
HETATM   20  C1  UNL     1      29.021   2.006  54.070  1.00  0.00     0.149 C 
HETATM   21  H4  UNL     1      26.931   2.337  53.800  1.00  0.00     0.162 HD
HETATM   22  O1  UNL     1      28.135  -0.505  54.688  1.00  0.00    -0.266 OA
ENDBRANCH   1  18
TORSDOF 5
ENDMDL
MODEL 5
REMARK VINA RESULT:      -6.5      3.447      5.790
REMARK  5 active torsions:
REMARK  status: ('A' for Active; 'I' for Inactive)
REMARK       I    between atoms: N1_2  and  C2_3 
REMARK    1  A    between atoms: C2_3  and  C3_5 
REMARK    2  A    between atoms: C5_7  and  O2_8 
REMARK    3  A    between atoms: O2_8  and  C6_9 
REMARK    4  A    between atoms: C9_12  and  N2_13 
REMARK    5  A    between atoms: N2_13  and  C10_14 
ROOT
HETATM    1  C3  UNL     1      26.921   1.752  52.486  1.00  0.00     0.126 A 
HETATM    2  C4  UNL     1      25.701   1.569  53.138  1.00  0.00     0.074 A 
HETATM    3  C5  UNL     1      24.478   1.913  52.553  1.00  0.00     0.079 A 
HETATM    4  C13 UNL     1      24.624   2.442  51.292  1.00  0.00     0.056 A 
HETATM    5  C14 UNL     1      25.789   2.635  50.628  1.00  0.00     0.120 A 
HETATM    6  N3  UNL     1      26.922   2.280  51.251  1.00  0.00    -0.255 NA
ENDROOT
BRANCH   3   7
HETATM    7  O2  UNL     1      23.485   1.625  53.409  1.00  0.00    -0.311 OA
BRANCH   7   8
HETATM    8  C6  UNL     1      22.297   1.023  53.344  1.00  0.00     0.076 A 
HETATM    9  C7  UNL     1      21.091   1.246  52.731  1.00  0.00     0.039 A 
HETATM   10  C8  UNL     1      19.995   0.435  52.840  1.00  0.00     0.032 A 
HETATM   11  C9  UNL     1      20.054  -0.700  53.608  1.00  0.00     0.034 A 
HETATM   12  C11 UNL     1      21.225  -0.991  54.253  1.00  0.00     0.032 A 
HETATM   13  C12 UNL     1      22.335  -0.145  54.127  1.00  0.00     0.039 A 
BRANCH  11  14
HETATM   14  N2  UNL     1      18.850  -1.437  53.627  1.00  0.00    -0.334 N 
HETATM   15  H8  UNL     1      18.681  -2.266  54.234  1.00  0.00     0.168 HD
BRANCH  14  16
HETATM   16  C10 UNL     1      17.698  -1.185  52.847  1.00  0.00     0.353 C 
HETATM   17  O3  UNL     1      16.642  -0.734  53.293  1.00  0.00    -0.283 OA
ENDBRANCH  14  16
ENDBRANCH  11  14
ENDBRANCH   7   8
ENDBRANCH   3   7
BRANCH   1  18
HETATM   18  C2  UNL     1      28.214   1.398  53.078  1.00  0.00     0.269 C 
HETATM   19  N1  UNL     1      28.597   0.060  53.259  1.00  0.00    -0.360 N 
HETATM   20  C1  UNL     1      29.872  -0.316  53.842  1.00  0.00     0.149 C 
HETATM   21  H4  UNL     1      27.969  -0.737  52.976  1.00  0.00     0.162 HD
HETATM   22  O1  UNL     1      29.034   2.255  53.448  1.00  0.00    -0.266 OA
ENDBRANCH   1  18
TORSDOF 5
ENDMDL
MODEL 6
REMARK VINA RESULT:      -6.5      1.815      2.258
REMARK  5 active torsions:
REMARK  status: ('A' for Active; 'I' for Inactive)
REMARK       I    between atoms: N1_2  and  C2_3 
REMARK    1  A    between atoms: C2_3  and  C3_5 
REMARK    2  A    between atoms: C5_7  and  O2_8 
REMARK    3  A    between atoms: O2_8  and  C6_9 
REMARK    4  A    between atoms: C9_12  and  N2_13 
REMARK    5  A    between atoms: N2_13  and  C10_14 
ROOT
HETATM    1  C3  UNL     1      25.449  -0.356  54.412  1.00  0.00     0.126 A 
HETATM    2  C4  UNL     1      24.562   0.178  53.477  1.00  0.00     0.074 A 
HETATM    3  C5  UNL     1      23.188  -0.083  53.511  1.00  0.00     0.079 A 
HETATM    4  C13 UNL     1      22.831  -0.910  54.550  1.00  0.00     0.056 A 
HETATM    5  C14 UNL     1      23.662  -1.446  55.476  1.00  0.00     0.120 A 
HETATM    6  N3  UNL     1      24.967  -1.151  55.382  1.00  0.00    -0.255 NA
ENDROOT
BRANCH   3   7
HETATM    7  O2  UNL     1      22.594   0.561  52.494  1.00  0.00    -0.311 OA
BRANCH   7   8
HETATM    8  C6  UNL     1      22.762   1.717  51.852  1.00  0.00     0.076 A 
HETATM    9  C7  UNL     1      22.992   3.027  52.186  1.00  0.00     0.039 A 
HETATM   10  C8  UNL     1      23.129   4.052  51.290  1.00  0.00     0.032 A 
HETATM   11  C9  UNL     1      23.037   3.804  49.945  1.00  0.00     0.034 A 
HETATM   12  C11 UNL     1      22.807   2.520  49.531  1.00  0.00     0.032 A 
HETATM   13  C12 UNL     1      22.671   1.486  50.467  1.00  0.00     0.039 A 
BRANCH  11  14
HETATM   14  N2  UNL     1      23.198   4.954  49.142  1.00  0.00    -0.334 N 
HETATM   15  H8  UNL     1      22.443   5.373  48.560  1.00  0.00     0.168 HD
BRANCH  14  16
HETATM   16  C10 UNL     1      24.380   5.717  48.995  1.00  0.00     0.353 C 
HETATM   17  O3  UNL     1      25.510   5.236  48.901  1.00  0.00    -0.283 OA
ENDBRANCH  14  16
ENDBRANCH  11  14
ENDBRANCH   7   8
ENDBRANCH   3   7
BRANCH   1  18
HETATM   18  C2  UNL     1      26.891  -0.097  54.398  1.00  0.00     0.269 C 
HETATM   19  N1  UNL     1      27.791  -0.987  53.792  1.00  0.00    -0.360 N 
HETATM   20  C1  UNL     1      29.223  -0.754  53.764  1.00  0.00     0.149 C 
HETATM   21  H4  UNL     1      27.461  -1.873  53.325  1.00  0.00     0.162 HD
HETATM   22  O1  UNL     1      27.392   0.915  54.918  1.00  0.00    -0.266 OA
ENDBRANCH   1  18
TORSDOF 5
ENDMDL
MODEL 7
REMARK VINA RESULT:      -6.4      1.833      3.357
REMARK  5 active torsions:
REMARK  status: ('A' for Active; 'I' for Inactive)
REMARK       I    between atoms: N1_2  and  C2_3 
REMARK    1  A    between atoms: C2_3  and  C3_5 
REMARK    2  A    between atoms: C5_7  and  O2_8 
REMARK    3  A    between atoms: O2_8  and  C6_9 
REMARK    4  A    between atoms: C9_12  and  N2_13 
REMARK    5  A    between atoms: N2_13  and  C10_14 
ROOT
HETATM    1  C3  UNL     1      26.017  -0.118  54.175  1.00  0.00     0.126 A 
HETATM    2  C4  UNL     1      25.945   0.555  52.955  1.00  0.00     0.074 A 
HETATM    3  C5  UNL     1      27.052   1.184  52.377  1.00  0.00     0.079 A 
HETATM    4  C13 UNL     1      28.189   1.063  53.141  1.00  0.00     0.056 A 
HETATM    5  C14 UNL     1      28.298   0.418  54.327  1.00  0.00     0.120 A 
HETATM    6  N3  UNL     1      27.195  -0.163  54.820  1.00  0.00    -0.255 NA
ENDROOT
BRANCH   3   7
HETATM    7  O2  UNL     1      26.682   1.743  51.214  1.00  0.00    -0.311 OA
BRANCH   7   8
HETATM    8  C6  UNL     1      26.005   2.826  50.834  1.00  0.00     0.076 A 
HETATM    9  C7  UNL     1      24.831   3.448  51.176  1.00  0.00     0.039 A 
HETATM   10  C8  UNL     1      24.356   4.595  50.601  1.00  0.00     0.032 A 
HETATM   11  C9  UNL     1      25.068   5.209  49.604  1.00  0.00     0.034 A 
HETATM   12  C11 UNL     1      26.251   4.649  49.206  1.00  0.00     0.032 A 
HETATM   13  C12 UNL     1      26.719   3.474  49.809  1.00  0.00     0.039 A 
BRANCH  11  14
HETATM   14  N2  UNL     1      24.456   6.381  49.107  1.00  0.00    -0.334 N 
HETATM   15  H8  UNL     1      23.637   6.386  48.464  1.00  0.00     0.168 HD
BRANCH  14  16
HETATM   16  C10 UNL     1      24.839   7.713  49.388  1.00  0.00     0.353 C 
HETATM   17  O3  UNL     1      24.129   8.530  49.976  1.00  0.00    -0.283 OA
ENDBRANCH  14  16
ENDBRANCH  11  14
ENDBRANCH   7   8
ENDBRANCH   3   7
BRANCH   1  18
HETATM   18  C2  UNL     1      24.872  -0.785  54.799  1.00  0.00     0.269 C 
HETATM   19  N1  UNL     1      23.582  -0.693  54.255  1.00  0.00    -0.360 N 
HETATM   20  C1  UNL     1      22.431  -1.344  54.853  1.00  0.00     0.149 C 
HETATM   21  H4  UNL     1      23.392  -0.141  53.376  1.00  0.00     0.162 HD
HETATM   22  O1  UNL     1      24.979  -1.462  55.836  1.00  0.00    -0.266 OA
ENDBRANCH   1  18
TORSDOF 5
ENDMDL
MODEL 8
REMARK VINA RESULT:      -6.4      2.571      6.809
REMARK  5 active torsions:
REMARK  status: ('A' for Active; 'I' for Inactive)
REMARK       I    between atoms: N1_2  and  C2_3 
REMARK    1  A    between atoms: C2_3  and  C3_5 
REMARK    2  A    between atoms: C5_7  and  O2_8 
REMARK    3  A    between atoms: O2_8  and  C6_9 
REMARK    4  A    between atoms: C9_12  and  N2_13 
REMARK    5  A    between atoms: N2_13  and  C10_14 
ROOT
HETATM    1  C3  UNL     1      21.581   1.765  52.579  1.00  0.00     0.126 A 
HETATM    2  C4  UNL     1      22.658   0.925  52.863  1.00  0.00     0.074 A 
HETATM    3  C5  UNL     1      22.488  -0.378  53.341  1.00  0.00     0.079 A 
HETATM    4  C13 UNL     1      21.165  -0.718  53.494  1.00  0.00     0.056 A 
HETATM    5  C14 UNL     1      20.094   0.068  53.229  1.00  0.00     0.120 A 
HETATM    6  N3  UNL     1      20.333   1.306  52.773  1.00  0.00    -0.255 NA
ENDROOT
BRANCH   3   7
HETATM    7  O2  UNL     1      23.694  -0.941  53.520  1.00  0.00    -0.311 OA
BRANCH   7   8
HETATM    8  C6  UNL     1      24.965  -0.556  53.415  1.00  0.00     0.076 A 
HETATM    9  C7  UNL     1      25.867  -0.332  52.406  1.00  0.00     0.039 A 
HETATM   10  C8  UNL     1      27.160   0.074  52.587  1.00  0.00     0.032 A 
HETATM   11  C9  UNL     1      27.642   0.289  53.853  1.00  0.00     0.034 A 
HETATM   12  C11 UNL     1      26.802   0.086  54.914  1.00  0.00     0.032 A 
HETATM   13  C12 UNL     1      25.481  -0.331  54.705  1.00  0.00     0.039 A 
BRANCH  11  14
HETATM   14  N2  UNL     1      28.991   0.704  53.885  1.00  0.00    -0.334 N 
HETATM   15  H8  UNL     1      29.300   1.674  54.107  1.00  0.00     0.168 HD
BRANCH  14  16
HETATM   16  C10 UNL     1      30.125  -0.101  53.629  1.00  0.00     0.353 C 
HETATM   17  O3  UNL     1      30.240  -1.273  53.993  1.00  0.00    -0.283 OA
ENDBRANCH  14  16
ENDBRANCH  11  14
ENDBRANCH   7   8
ENDBRANCH   3   7
BRANCH   1  18
HETATM   18  C2  UNL     1      21.734   3.134  52.077  1.00  0.00     0.269 C 
HETATM   19  N1  UNL     1      22.980   3.631  51.667  1.00  0.00    -0.360 N 
HETATM   20  C1  UNL     1      23.159   4.981  51.166  1.00  0.00     0.149 C 
HETATM   21  H4  UNL     1      23.851   3.037  51.705  1.00  0.00     0.162 HD
HETATM   22  O1  UNL     1      20.777   3.921  51.988  1.00  0.00    -0.266 OA
ENDBRANCH   1  18
TORSDOF 5
ENDMDL
MODEL 9
REMARK VINA RESULT:      -6.3      3.240      3.797
REMARK  5 active torsions:
REMARK  status: ('A' for Active; 'I' for Inactive)
REMARK       I    between atoms: N1_2  and  C2_3 
REMARK    1  A    between atoms: C2_3  and  C3_5 
REMARK    2  A    between atoms: C5_7  and  O2_8 
REMARK    3  A    between atoms: O2_8  and  C6_9 
REMARK    4  A    between atoms: C9_12  and  N2_13 
REMARK    5  A    between atoms: N2_13  and  C10_14 
ROOT
HETATM    1  C3  UNL     1      24.597  -0.354  53.924  1.00  0.00     0.126 A 
HETATM    2  C4  UNL     1      23.709   0.373  53.130  1.00  0.00     0.074 A 
HETATM    3  C5  UNL     1      22.323   0.323  53.315  1.00  0.00     0.079 A 
HETATM    4  C13 UNL     1      21.955  -0.509  54.346  1.00  0.00     0.056 A 
HETATM    5  C14 UNL     1      22.787  -1.228  55.137  1.00  0.00     0.120 A 
HETATM    6  N3  UNL     1      24.103  -1.131  54.902  1.00  0.00    -0.255 NA
ENDROOT
BRANCH   3   7
HETATM    7  O2  UNL     1      21.731   1.120  52.411  1.00  0.00    -0.311 OA
BRANCH   7   8
HETATM    8  C6  UNL     1      21.808   1.313  51.095  1.00  0.00     0.076 A 
HETATM    9  C7  UNL     1      21.235   0.784  49.967  1.00  0.00     0.039 A 
HETATM   10  C8  UNL     1      21.507   1.185  48.688  1.00  0.00     0.032 A 
HETATM   11  C9  UNL     1      22.412   2.189  48.461  1.00  0.00     0.034 A 
HETATM   12  C11 UNL     1      23.028   2.769  49.537  1.00  0.00     0.032 A 
HETATM   13  C12 UNL     1      22.734   2.341  50.839  1.00  0.00     0.039 A 
BRANCH  11  14
HETATM   14  N2  UNL     1      22.591   2.496  47.095  1.00  0.00    -0.334 N 
HETATM   15  H8  UNL     1      23.283   2.027  46.474  1.00  0.00     0.168 HD
BRANCH  14  16
HETATM   16  C10 UNL     1      21.880   3.468  46.352  1.00  0.00     0.353 C 
HETATM   17  O3  UNL     1      22.003   3.641  45.139  1.00  0.00    -0.283 OA
ENDBRANCH  14  16
ENDBRANCH  11  14
ENDBRANCH   7   8
ENDBRANCH   3   7
BRANCH   1  18
HETATM   18  C2  UNL     1      26.051  -0.318  53.750  1.00  0.00     0.269 C 
HETATM   19  N1  UNL     1      26.915  -0.094  54.833  1.00  0.00    -0.360 N 
HETATM   20  C1  UNL     1      28.358  -0.054  54.688  1.00  0.00     0.149 C 
HETATM   21  H4  UNL     1      26.548   0.055  55.810  1.00  0.00     0.162 HD
HETATM   22  O1  UNL     1      26.594  -0.482  52.644  1.00  0.00    -0.266 OA
ENDBRANCH   1  18
TORSDOF 5
ENDMDL
