MODEL 1
REMARK VINA RESULT:      -7.5      0.000      0.000
REMARK  7 active torsions:
REMARK  status: ('A' for Active; 'I' for Inactive)
REMARK    1  A    between atoms: N1_2  and  C3_4 
REMARK    2  A    between atoms: C3_4  and  C4_5 
REMARK    3  A    between atoms: C4_5  and  C5_6 
REMARK    4  A    between atoms: C5_6  and  O1_7 
REMARK    5  A    between atoms: O1_7  and  C6_8 
REMARK    6  A    between atoms: C9_11  and  N2_12 
REMARK    7  A    between atoms: N2_12  and  C10_13 
ROOT
HETATM    1  C6  UNL     1      20.778   1.450  51.553  1.00  0.00     0.102 C 
HETATM    2  C7  UNL     1      21.145   0.238  51.168  1.00  0.00     0.051 C 
HETATM    3  C8  UNL     1      22.407   0.538  51.920  1.00  0.00    -0.006 C 
HETATM    4  C9  UNL     1      23.569   1.208  51.995  1.00  0.00     0.136 C 
HETATM    5  N3  UNL     1      23.768   2.159  50.933  1.00  0.00    -0.224 NA
HETATM    6  C16 UNL     1      23.285   3.388  51.134  1.00  0.00     0.237 C 
HETATM    7  N4  UNL     1      22.594   4.267  52.012  1.00  0.00    -0.230 NA
HETATM    8  C17 UNL     1      21.430   3.888  52.454  1.00  0.00     0.260 C 
HETATM    9  O2  UNL     1      20.280   3.060  52.640  1.00  0.00    -0.302 OA
HETATM   10  C18 UNL     1      20.631   1.744  53.009  1.00  0.00     0.106 C 
HETATM   11  C19 UNL     1      20.918   0.615  53.713  1.00  0.00     0.018 C 
HETATM   12  C20 UNL     1      22.108  -0.197  53.209  1.00  0.00     0.072 C 
ENDROOT
BRANCH   4  13
HETATM   13  N2  UNL     1      24.554   1.166  52.990  1.00  0.00    -0.340 N 
HETATM   14  H14 UNL     1      24.027   1.626  53.747  1.00  0.00     0.167 HD
BRANCH  13  15
HETATM   15  C10 UNL     1      25.887   0.714  53.163  1.00  0.00     0.035 A 
HETATM   16  C11 UNL     1      26.142  -0.594  52.803  1.00  0.00     0.032 A 
HETATM   17  C12 UNL     1      27.433  -1.043  52.962  1.00  0.00     0.046 A 
HETATM   18  C13 UNL     1      28.448  -0.251  53.455  1.00  0.00     0.138 A 
HETATM   19  F1  UNL     1      29.718  -0.719  53.604  1.00  0.00    -0.204 F 
HETATM   20  C14 UNL     1      28.214   1.063  53.822  1.00  0.00     0.074 A 
HETATM   21 CL1  UNL     1      29.443   2.114  54.445  1.00  0.00    -0.081 Cl
HETATM   22  C15 UNL     1      26.914   1.488  53.652  1.00  0.00     0.056 A 
ENDBRANCH  13  15
ENDBRANCH   4  13
BRANCH   1  23
HETATM   23  O1  UNL     1      20.749   1.740  50.189  1.00  0.00    -0.348 OA
BRANCH  23  24
HETATM   24  C5  UNL     1      19.538   1.857  49.472  1.00  0.00     0.177 C 
BRANCH  24  25
HETATM   25  C4  UNL     1      19.700   2.842  48.361  1.00  0.00     0.057 C 
BRANCH  25  26
HETATM   26  C3  UNL     1      21.143   2.737  47.854  1.00  0.00     0.273 C 
BRANCH  26  27
HETATM   27  N1  UNL     1      21.473   3.925  47.096  1.00  0.00     0.080 N 
HETATM   28  C1  UNL     1      22.476   4.661  47.813  1.00  0.00     0.309 C 
HETATM   29  C2  UNL     1      21.794   3.639  45.735  1.00  0.00     0.309 C 
ENDBRANCH  26  27
ENDBRANCH  25  26
ENDBRANCH  24  25
ENDBRANCH  23  24
ENDBRANCH   1  23
TORSDOF 7
ENDMDL
MODEL 2
REMARK VINA RESULT:      -7.5      1.708      2.626
REMARK  7 active torsions:
REMARK  status: ('A' for Active; 'I' for Inactive)
REMARK    1  A    between atoms: N1_2  and  C3_4 
REMARK    2  A    between atoms: C3_4  and  C4_5 
REMARK    3  A    between atoms: C4_5  and  C5_6 
REMARK    4  A    between atoms: C5_6  and  O1_7 
REMARK    5  A    between atoms: O1_7  and  C6_8 
REMARK    6  A    between atoms: C9_11  and  N2_12 
REMARK    7  A    between atoms: N2_12  and  C10_13 
ROOT
HETATM    1  C6  UNL     1      20.699   1.437  51.591  1.00  0.00     0.102 C 
HETATM    2  C7  UNL     1      21.090   0.229  51.218  1.00  0.00     0.051 C 
HETATM    3  C8  UNL     1      22.366   0.580  51.923  1.00  0.00    -0.006 C 
HETATM    4  C9  UNL     1      23.509   1.285  51.950  1.00  0.00     0.136 C 
HETATM    5  N3  UNL     1      23.647   2.221  50.864  1.00  0.00    -0.224 NA
HETATM    6  C16 UNL     1      23.133   3.439  51.057  1.00  0.00     0.237 C 
HETATM    7  N4  UNL     1      22.444   4.315  51.939  1.00  0.00    -0.230 NA
HETATM    8  C17 UNL     1      21.306   3.910  52.425  1.00  0.00     0.260 C 
HETATM    9  O2  UNL     1      20.187   3.053  52.662  1.00  0.00    -0.302 OA
HETATM   10  C18 UNL     1      20.589   1.755  53.045  1.00  0.00     0.106 C 
HETATM   11  C19 UNL     1      20.931   0.649  53.761  1.00  0.00     0.018 C 
HETATM   12  C20 UNL     1      22.129  -0.137  53.235  1.00  0.00     0.072 C 
ENDROOT
BRANCH   4  13
HETATM   13  N2  UNL     1      24.525   1.292  52.914  1.00  0.00    -0.340 N 
HETATM   14  H14 UNL     1      24.055   1.869  53.627  1.00  0.00     0.167 HD
BRANCH  13  15
HETATM   15  C10 UNL     1      25.833   0.777  53.099  1.00  0.00     0.035 A 
HETATM   16  C11 UNL     1      26.033  -0.536  52.723  1.00  0.00     0.032 A 
HETATM   17  C12 UNL     1      27.300  -1.046  52.894  1.00  0.00     0.046 A 
HETATM   18  C13 UNL     1      28.343  -0.310  53.412  1.00  0.00     0.138 A 
HETATM   19  F1  UNL     1      29.588  -0.837  53.572  1.00  0.00    -0.204 F 
HETATM   20  C14 UNL     1      28.165   1.009  53.794  1.00  0.00     0.074 A 
HETATM   21 CL1  UNL     1      29.430   1.994  54.451  1.00  0.00    -0.081 Cl
HETATM   22  C15 UNL     1      26.887   1.496  53.613  1.00  0.00     0.056 A 
ENDBRANCH  13  15
ENDBRANCH   4  13
BRANCH   1  23
HETATM   23  O1  UNL     1      20.620   1.699  50.224  1.00  0.00    -0.348 OA
BRANCH  23  24
HETATM   24  C5  UNL     1      19.451   1.434  49.476  1.00  0.00     0.177 C 
BRANCH  24  25
HETATM   25  C4  UNL     1      18.460   2.533  49.678  1.00  0.00     0.057 C 
BRANCH  25  26
HETATM   26  C3  UNL     1      17.153   1.895  50.163  1.00  0.00     0.273 C 
BRANCH  26  27
HETATM   27  N1  UNL     1      16.823   2.414  51.474  1.00  0.00     0.080 N 
HETATM   28  C1  UNL     1      17.004   3.838  51.461  1.00  0.00     0.309 C 
HETATM   29  C2  UNL     1      15.545   1.973  51.935  1.00  0.00     0.309 C 
ENDBRANCH  26  27
ENDBRANCH  25  26
ENDBRANCH  24  25
ENDBRANCH  23  24
ENDBRANCH   1  23
TORSDOF 7
ENDMDL
MODEL 3
REMARK VINA RESULT:      -7.4      2.908      3.730
REMARK  7 active torsions:
REMARK  status: ('A' for Active; 'I' for Inactive)
REMARK    1  A    between atoms: N1_2  and  C3_4 
REMARK    2  A    between atoms: C3_4  and  C4_5 
REMARK    3  A    between atoms: C4_5  and  C5_6 
REMARK    4  A    between atoms: C5_6  and  O1_7 
REMARK    5  A    between atoms: O1_7  and  C6_8 
REMARK    6  A    between atoms: C9_11  and  N2_12 
REMARK    7  A    between atoms: N2_12  and  C10_13 
ROOT
HETATM    1  C6  UNL     1      23.170   4.600  50.411  1.00  0.00     0.102 C 
HETATM    2  C7  UNL     1      22.794   3.342  50.576  1.00  0.00     0.051 C 
HETATM    3  C8  UNL     1      24.164   3.160  51.158  1.00  0.00    -0.006 C 
HETATM    4  C9  UNL     1      25.491   3.068  50.970  1.00  0.00     0.136 C 
HETATM    5  N3  UNL     1      25.908   3.298  49.611  1.00  0.00    -0.224 NA
HETATM    6  C16 UNL     1      26.155   4.566  49.269  1.00  0.00     0.237 C 
HETATM    7  N4  UNL     1      26.197   5.925  49.683  1.00  0.00    -0.230 NA
HETATM    8  C17 UNL     1      25.122   6.426  50.220  1.00  0.00     0.260 C 
HETATM    9  O2  UNL     1      23.782   6.486  50.712  1.00  0.00    -0.302 OA
HETATM   10  C18 UNL     1      23.500   5.430  51.606  1.00  0.00     0.106 C 
HETATM   11  C19 UNL     1      23.328   4.674  52.724  1.00  0.00     0.018 C 
HETATM   12  C20 UNL     1      23.819   3.231  52.630  1.00  0.00     0.072 C 
ENDROOT
BRANCH   4  13
HETATM   13  N2  UNL     1      26.509   2.866  51.910  1.00  0.00    -0.340 N 
HETATM   14  H14 UNL     1      26.665   3.848  52.181  1.00  0.00     0.167 HD
BRANCH  13  15
HETATM   15  C10 UNL     1      27.250   1.798  52.476  1.00  0.00     0.035 A 
HETATM   16  C11 UNL     1      28.353   2.148  53.229  1.00  0.00     0.032 A 
HETATM   17  C12 UNL     1      29.078   1.121  53.787  1.00  0.00     0.046 A 
HETATM   18  C13 UNL     1      28.748  -0.207  53.622  1.00  0.00     0.138 A 
HETATM   19  F1  UNL     1      29.483  -1.207  54.184  1.00  0.00    -0.204 F 
HETATM   20  C14 UNL     1      27.647  -0.581  52.872  1.00  0.00     0.074 A 
HETATM   21 CL1  UNL     1      27.173  -2.230  52.626  1.00  0.00    -0.081 Cl
HETATM   22  C15 UNL     1      26.937   0.466  52.324  1.00  0.00     0.056 A 
ENDBRANCH  13  15
ENDBRANCH   4  13
BRANCH   1  23
HETATM   23  O1  UNL     1      23.002   4.341  49.050  1.00  0.00    -0.348 OA
BRANCH  23  24
HETATM   24  C5  UNL     1      21.777   4.576  48.387  1.00  0.00     0.177 C 
BRANCH  24  25
HETATM   25  C4  UNL     1      21.684   6.013  47.989  1.00  0.00     0.057 C 
BRANCH  25  26
HETATM   26  C3  UNL     1      22.689   6.247  46.855  1.00  0.00     0.273 C 
BRANCH  26  27
HETATM   27  N1  UNL     1      23.501   7.404  47.166  1.00  0.00     0.080 N 
HETATM   28  C1  UNL     1      24.088   7.891  45.949  1.00  0.00     0.309 C 
HETATM   29  C2  UNL     1      22.795   8.384  47.928  1.00  0.00     0.309 C 
ENDBRANCH  26  27
ENDBRANCH  25  26
ENDBRANCH  24  25
ENDBRANCH  23  24
ENDBRANCH   1  23
TORSDOF 7
ENDMDL
MODEL 4
REMARK VINA RESULT:      -7.3      1.109      1.545
REMARK  7 active torsions:
REMARK  status: ('A' for Active; 'I' for Inactive)
REMARK    1  A    between atoms: N1_2  and  C3_4 
REMARK    2  A    between atoms: C3_4  and  C4_5 
REMARK    3  A    between atoms: C4_5  and  C5_6 
REMARK    4  A    between atoms: C5_6  and  O1_7 
REMARK    5  A    between atoms: O1_7  and  C6_8 
REMARK    6  A    between atoms: C9_11  and  N2_12 
REMARK    7  A    between atoms: N2_12  and  C10_13 
ROOT
HETATM    1  C6  UNL     1      20.641   1.443  51.448  1.00  0.00     0.102 C 
HETATM    2  C7  UNL     1      21.103   0.244  51.130  1.00  0.00     0.051 C 
HETATM    3  C8  UNL     1      22.370   0.718  51.776  1.00  0.00    -0.006 C 
HETATM    4  C9  UNL     1      23.463   1.497  51.728  1.00  0.00     0.136 C 
HETATM    5  N3  UNL     1      23.508   2.376  50.589  1.00  0.00    -0.224 NA
HETATM    6  C16 UNL     1      22.919   3.567  50.730  1.00  0.00     0.237 C 
HETATM    7  N4  UNL     1      22.196   4.444  51.584  1.00  0.00    -0.230 NA
HETATM    8  C17 UNL     1      21.101   3.994  52.125  1.00  0.00     0.260 C 
HETATM    9  O2  UNL     1      20.049   3.080  52.443  1.00  0.00    -0.302 OA
HETATM   10  C18 UNL     1      20.548   1.835  52.885  1.00  0.00     0.106 C 
HETATM   11  C19 UNL     1      20.983   0.797  53.650  1.00  0.00     0.018 C 
HETATM   12  C20 UNL     1      22.217   0.062  53.131  1.00  0.00     0.072 C 
ENDROOT
BRANCH   4  13
HETATM   13  N2  UNL     1      24.501   1.626  52.659  1.00  0.00    -0.340 N 
HETATM   14  H14 UNL     1      24.136   2.434  53.185  1.00  0.00     0.167 HD
BRANCH  13  15
HETATM   15  C10 UNL     1      25.734   1.006  52.985  1.00  0.00     0.035 A 
HETATM   16  C11 UNL     1      26.663   1.793  53.635  1.00  0.00     0.032 A 
HETATM   17  C12 UNL     1      27.862   1.201  53.960  1.00  0.00     0.046 A 
HETATM   18  C13 UNL     1      28.155  -0.113  53.666  1.00  0.00     0.138 A 
HETATM   19  F1  UNL     1      29.350  -0.677  53.998  1.00  0.00    -0.204 F 
HETATM   20  C14 UNL     1      27.238  -0.921  53.016  1.00  0.00     0.074 A 
HETATM   21 CL1  UNL     1      27.538  -2.580  52.617  1.00  0.00    -0.081 Cl
HETATM   22  C15 UNL     1      26.046  -0.304  52.701  1.00  0.00     0.056 A 
ENDBRANCH  13  15
ENDBRANCH   4  13
BRANCH   1  23
HETATM   23  O1  UNL     1      20.508   1.620  50.071  1.00  0.00    -0.348 OA
BRANCH  23  24
HETATM   24  C5  UNL     1      19.325   2.130  49.491  1.00  0.00     0.177 C 
BRANCH  24  25
HETATM   25  C4  UNL     1      19.667   3.154  48.459  1.00  0.00     0.057 C 
BRANCH  25  26
HETATM   26  C3  UNL     1      20.913   2.663  47.713  1.00  0.00     0.273 C 
BRANCH  26  27
HETATM   27  N1  UNL     1      21.700   3.802  47.290  1.00  0.00     0.080 N 
HETATM   28  C1  UNL     1      21.876   3.734  45.867  1.00  0.00     0.309 C 
HETATM   29  C2  UNL     1      21.180   5.041  47.774  1.00  0.00     0.309 C 
ENDBRANCH  26  27
ENDBRANCH  25  26
ENDBRANCH  24  25
ENDBRANCH  23  24
ENDBRANCH   1  23
TORSDOF 7
ENDMDL
MODEL 5
REMARK VINA RESULT:      -7.3      2.401      4.104
REMARK  7 active torsions:
REMARK  status: ('A' for Active; 'I' for Inactive)
REMARK    1  A    between atoms: N1_2  and  C3_4 
REMARK    2  A    between atoms: C3_4  and  C4_5 
REMARK    3  A    between atoms: C4_5  and  C5_6 
REMARK    4  A    between atoms: C5_6  and  O1_7 
REMARK    5  A    between atoms: O1_7  and  C6_8 
REMARK    6  A    between atoms: C9_11  and  N2_12 
REMARK    7  A    between atoms: N2_12  and  C10_13 
ROOT
HETATM    1  C6  UNL     1      22.434   3.594  50.599  1.00  0.00     0.102 C 
HETATM    2  C7  UNL     1      22.971   4.797  50.727  1.00  0.00     0.051 C 
HETATM    3  C8  UNL     1      24.225   4.045  51.056  1.00  0.00    -0.006 C 
HETATM    4  C9  UNL     1      24.923   3.297  51.928  1.00  0.00     0.136 C 
HETATM    5  N3  UNL     1      24.189   2.942  53.114  1.00  0.00    -0.224 NA
HETATM    6  C16 UNL     1      23.461   1.823  53.054  1.00  0.00     0.237 C 
HETATM    7  N4  UNL     1      23.044   0.715  52.267  1.00  0.00    -0.230 NA
HETATM    8  C17 UNL     1      22.501   0.965  51.111  1.00  0.00     0.260 C 
HETATM    9  O2  UNL     1      22.004   1.727  50.009  1.00  0.00    -0.302 OA
HETATM   10  C18 UNL     1      22.950   2.668  49.549  1.00  0.00     0.106 C 
HETATM   11  C19 UNL     1      23.946   3.295  48.865  1.00  0.00     0.018 C 
HETATM   12  C20 UNL     1      24.917   4.114  49.712  1.00  0.00     0.072 C 
ENDROOT
BRANCH   4  13
HETATM   13  N2  UNL     1      26.210   2.759  51.804  1.00  0.00    -0.340 N 
HETATM   14  H14 UNL     1      26.552   3.355  51.035  1.00  0.00     0.167 HD
BRANCH  13  15
HETATM   15  C10 UNL     1      27.013   1.749  52.393  1.00  0.00     0.035 A 
HETATM   16  C11 UNL     1      28.089   2.181  53.141  1.00  0.00     0.032 A 
HETATM   17  C12 UNL     1      28.874   1.211  53.721  1.00  0.00     0.046 A 
HETATM   18  C13 UNL     1      28.626  -0.138  53.582  1.00  0.00     0.138 A 
HETATM   19  F1  UNL     1      29.417  -1.080  54.165  1.00  0.00    -0.204 F 
HETATM   20  C14 UNL     1      27.552  -0.593  52.837  1.00  0.00     0.074 A 
HETATM   21 CL1  UNL     1      27.180  -2.272  52.622  1.00  0.00    -0.081 Cl
HETATM   22  C15 UNL     1      26.782   0.399  52.266  1.00  0.00     0.056 A 
ENDBRANCH  13  15
ENDBRANCH   4  13
BRANCH   1  23
HETATM   23  O1  UNL     1      21.614   3.985  51.657  1.00  0.00    -0.348 OA
BRANCH  23  24
HETATM   24  C5  UNL     1      20.234   4.236  51.484  1.00  0.00     0.177 C 
BRANCH  24  25
HETATM   25  C4  UNL     1      19.444   3.048  51.926  1.00  0.00     0.057 C 
BRANCH  25  26
HETATM   26  C3  UNL     1      18.269   2.886  50.955  1.00  0.00     0.273 C 
BRANCH  26  27
HETATM   27  N1  UNL     1      17.026   2.916  51.696  1.00  0.00     0.080 N 
HETATM   28  C1  UNL     1      16.504   4.253  51.660  1.00  0.00     0.309 C 
HETATM   29  C2  UNL     1      16.111   1.901  51.280  1.00  0.00     0.309 C 
ENDBRANCH  26  27
ENDBRANCH  25  26
ENDBRANCH  24  25
ENDBRANCH  23  24
ENDBRANCH   1  23
TORSDOF 7
ENDMDL
MODEL 6
REMARK VINA RESULT:      -7.2      2.568      3.293
REMARK  7 active torsions:
REMARK  status: ('A' for Active; 'I' for Inactive)
REMARK    1  A    between atoms: N1_2  and  C3_4 
REMARK    2  A    between atoms: C3_4  and  C4_5 
REMARK    3  A    between atoms: C4_5  and  C5_6 
REMARK    4  A    between atoms: C5_6  and  O1_7 
REMARK    5  A    between atoms: O1_7  and  C6_8 
REMARK    6  A    between atoms: C9_11  and  N2_12 
REMARK    7  A    between atoms: N2_12  and  C10_13 
ROOT
HETATM    1  C6  UNL     1      22.937   3.868  49.820  1.00  0.00     0.102 C 
HETATM    2  C7  UNL     1      22.976   2.557  49.638  1.00  0.00     0.051 C 
HETATM    3  C8  UNL     1      24.196   2.617  50.508  1.00  0.00    -0.006 C 
HETATM    4  C9  UNL     1      25.489   2.951  50.655  1.00  0.00     0.136 C 
HETATM    5  N3  UNL     1      26.050   3.637  49.521  1.00  0.00    -0.224 NA
HETATM    6  C16 UNL     1      25.922   4.967  49.504  1.00  0.00     0.237 C 
HETATM    7  N4  UNL     1      25.433   6.125  50.168  1.00  0.00    -0.230 NA
HETATM    8  C17 UNL     1      24.173   6.147  50.495  1.00  0.00     0.260 C 
HETATM    9  O2  UNL     1      22.822   5.700  50.626  1.00  0.00    -0.302 OA
HETATM   10  C18 UNL     1      22.746   4.411  51.197  1.00  0.00     0.106 C 
HETATM   11  C19 UNL     1      22.631   3.370  52.065  1.00  0.00     0.018 C 
HETATM   12  C20 UNL     1      23.581   2.199  51.826  1.00  0.00     0.072 C 
ENDROOT
BRANCH   4  13
HETATM   13  N2  UNL     1      26.323   2.800  51.770  1.00  0.00    -0.340 N 
HETATM   14  H14 UNL     1      26.260   3.760  52.140  1.00  0.00     0.167 HD
BRANCH  13  15
HETATM   15  C10 UNL     1      27.106   1.797  52.396  1.00  0.00     0.035 A 
HETATM   16  C11 UNL     1      28.165   2.236  53.164  1.00  0.00     0.032 A 
HETATM   17  C12 UNL     1      28.929   1.273  53.781  1.00  0.00     0.046 A 
HETATM   18  C13 UNL     1      28.679  -0.076  53.658  1.00  0.00     0.138 A 
HETATM   19  F1  UNL     1      29.451  -1.012  54.278  1.00  0.00    -0.204 F 
HETATM   20  C14 UNL     1      27.622  -0.540  52.893  1.00  0.00     0.074 A 
HETATM   21 CL1  UNL     1      27.248  -2.220  52.698  1.00  0.00    -0.081 Cl
HETATM   22  C15 UNL     1      26.872   0.445  52.287  1.00  0.00     0.056 A 
ENDBRANCH  13  15
ENDBRANCH   4  13
BRANCH   1  23
HETATM   23  O1  UNL     1      23.120   3.940  48.439  1.00  0.00    -0.348 OA
BRANCH  23  24
HETATM   24  C5  UNL     1      22.121   4.440  47.575  1.00  0.00     0.177 C 
BRANCH  24  25
HETATM   25  C4  UNL     1      21.965   3.531  46.400  1.00  0.00     0.057 C 
BRANCH  25  26
HETATM   26  C3  UNL     1      20.645   3.890  45.708  1.00  0.00     0.273 C 
BRANCH  26  27
HETATM   27  N1  UNL     1      20.881   4.075  44.292  1.00  0.00     0.080 N 
HETATM   28  C1  UNL     1      19.759   3.546  43.568  1.00  0.00     0.309 C 
HETATM   29  C2  UNL     1      21.231   5.420  43.962  1.00  0.00     0.309 C 
ENDBRANCH  26  27
ENDBRANCH  25  26
ENDBRANCH  24  25
ENDBRANCH  23  24
ENDBRANCH   1  23
TORSDOF 7
ENDMDL
MODEL 7
REMARK VINA RESULT:      -7.1      1.739      2.138
REMARK  7 active torsions:
REMARK  status: ('A' for Active; 'I' for Inactive)
REMARK    1  A    between atoms: N1_2  and  C3_4 
REMARK    2  A    between atoms: C3_4  and  C4_5 
REMARK    3  A    between atoms: C4_5  and  C5_6 
REMARK    4  A    between atoms: C5_6  and  O1_7 
REMARK    5  A    between atoms: O1_7  and  C6_8 
REMARK    6  A    between atoms: C9_11  and  N2_12 
REMARK    7  A    between atoms: N2_12  and  C10_13 
ROOT
HETATM    1  C6  UNL     1      21.493   2.669  50.718  1.00  0.00     0.102 C 
HETATM    2  C7  UNL     1      21.700   1.503  50.128  1.00  0.00     0.051 C 
HETATM    3  C8  UNL     1      22.811   1.359  51.124  1.00  0.00    -0.006 C 
HETATM    4  C9  UNL     1      24.037   1.721  51.541  1.00  0.00     0.136 C 
HETATM    5  N3  UNL     1      24.625   2.788  50.774  1.00  0.00    -0.224 NA
HETATM    6  C16 UNL     1      24.347   4.033  51.173  1.00  0.00     0.237 C 
HETATM    7  N4  UNL     1      23.665   4.860  52.106  1.00  0.00    -0.230 NA
HETATM    8  C17 UNL     1      22.385   4.677  52.252  1.00  0.00     0.260 C 
HETATM    9  O2  UNL     1      21.087   4.111  52.052  1.00  0.00    -0.302 OA
HETATM   10  C18 UNL     1      21.104   2.704  52.159  1.00  0.00     0.106 C 
HETATM   11  C19 UNL     1      21.023   1.425  52.619  1.00  0.00     0.018 C 
HETATM   12  C20 UNL     1      22.120   0.478  52.141  1.00  0.00     0.072 C 
ENDROOT
BRANCH   4  13
HETATM   13  N2  UNL     1      24.767   1.268  52.645  1.00  0.00    -0.340 N 
HETATM   14  H14 UNL     1      24.036   1.367  53.365  1.00  0.00     0.167 HD
BRANCH  13  15
HETATM   15  C10 UNL     1      26.067   0.788  52.950  1.00  0.00     0.035 A 
HETATM   16  C11 UNL     1      26.311  -0.541  52.667  1.00  0.00     0.032 A 
HETATM   17  C12 UNL     1      27.570  -1.017  52.954  1.00  0.00     0.046 A 
HETATM   18  C13 UNL     1      28.563  -0.233  53.498  1.00  0.00     0.138 A 
HETATM   19  F1  UNL     1      29.802  -0.728  53.774  1.00  0.00    -0.204 F 
HETATM   20  C14 UNL     1      28.341   1.102  53.789  1.00  0.00     0.074 A 
HETATM   21 CL1  UNL     1      29.544   2.146  54.471  1.00  0.00    -0.081 Cl
HETATM   22  C15 UNL     1      27.072   1.554  53.492  1.00  0.00     0.056 A 
ENDBRANCH  13  15
ENDBRANCH   4  13
BRANCH   1  23
HETATM   23  O1  UNL     1      21.802   3.214  49.472  1.00  0.00    -0.348 OA
BRANCH  23  24
HETATM   24  C5  UNL     1      20.843   3.898  48.693  1.00  0.00     0.177 C 
BRANCH  24  25
HETATM   25  C4  UNL     1      21.276   5.313  48.482  1.00  0.00     0.057 C 
BRANCH  25  26
HETATM   26  C3  UNL     1      20.271   6.218  49.204  1.00  0.00     0.273 C 
BRANCH  26  27
HETATM   27  N1  UNL     1      20.988   7.206  49.982  1.00  0.00     0.080 N 
HETATM   28  C1  UNL     1      22.344   7.261  49.514  1.00  0.00     0.309 C 
HETATM   29  C2  UNL     1      20.315   8.465  50.028  1.00  0.00     0.309 C 
ENDBRANCH  26  27
ENDBRANCH  25  26
ENDBRANCH  24  25
ENDBRANCH  23  24
ENDBRANCH   1  23
TORSDOF 7
ENDMDL
MODEL 8
REMARK VINA RESULT:      -7.1      3.393      5.773
REMARK  7 active torsions:
REMARK  status: ('A' for Active; 'I' for Inactive)
REMARK    1  A    between atoms: N1_2  and  C3_4 
REMARK    2  A    between atoms: C3_4  and  C4_5 
REMARK    3  A    between atoms: C4_5  and  C5_6 
REMARK    4  A    between atoms: C5_6  and  O1_7 
REMARK    5  A    between atoms: O1_7  and  C6_8 
REMARK    6  A    between atoms: C9_11  and  N2_12 
REMARK    7  A    between atoms: N2_12  and  C10_13 
ROOT
HETATM    1  C6  UNL     1      21.598   2.698  50.561  1.00  0.00     0.102 C 
HETATM    2  C7  UNL     1      20.781   3.642  50.122  1.00  0.00     0.051 C 
HETATM    3  C8  UNL     1      22.021   4.481  50.050  1.00  0.00    -0.006 C 
HETATM    4  C9  UNL     1      22.983   5.171  50.688  1.00  0.00     0.136 C 
HETATM    5  N3  UNL     1      22.920   5.074  52.123  1.00  0.00    -0.224 NA
HETATM    6  C16 UNL     1      23.571   4.049  52.681  1.00  0.00     0.237 C 
HETATM    7  N4  UNL     1      24.379   2.899  52.476  1.00  0.00    -0.230 NA
HETATM    8  C17 UNL     1      23.939   1.990  51.655  1.00  0.00     0.260 C 
HETATM    9  O2  UNL     1      23.066   1.342  50.728  1.00  0.00    -0.302 OA
HETATM   10  C18 UNL     1      22.688   2.199  49.672  1.00  0.00     0.106 C 
HETATM   11  C19 UNL     1      22.618   2.860  48.484  1.00  0.00     0.018 C 
HETATM   12  C20 UNL     1      22.321   4.355  48.572  1.00  0.00     0.072 C 
ENDROOT
BRANCH   4  13
HETATM   13  N2  UNL     1      24.061   5.887  50.156  1.00  0.00    -0.340 N 
HETATM   14  H14 UNL     1      23.677   6.839  50.255  1.00  0.00     0.167 HD
BRANCH  13  15
HETATM   15  C10 UNL     1      25.344   5.643  49.602  1.00  0.00     0.035 A 
HETATM   16  C11 UNL     1      25.813   4.348  49.690  1.00  0.00     0.032 A 
HETATM   17  C12 UNL     1      27.054   4.097  49.152  1.00  0.00     0.046 A 
HETATM   18  C13 UNL     1      27.820   5.069  48.547  1.00  0.00     0.138 A 
HETATM   19  F1  UNL     1      29.047   4.796  48.022  1.00  0.00    -0.204 F 
HETATM   20  C14 UNL     1      27.370   6.374  48.447  1.00  0.00     0.074 A 
HETATM   21 CL1  UNL     1      28.278   7.645  47.697  1.00  0.00    -0.081 Cl
HETATM   22  C15 UNL     1      26.124   6.599  48.993  1.00  0.00     0.056 A 
ENDBRANCH  13  15
ENDBRANCH   4  13
BRANCH   1  23
HETATM   23  O1  UNL     1      20.839   2.758  51.730  1.00  0.00    -0.348 OA
BRANCH  23  24
HETATM   24  C5  UNL     1      19.671   1.984  51.907  1.00  0.00     0.177 C 
BRANCH  24  25
HETATM   25  C4  UNL     1      20.017   0.687  52.561  1.00  0.00     0.057 C 
BRANCH  25  26
HETATM   26  C3  UNL     1      21.007   0.987  53.692  1.00  0.00     0.273 C 
BRANCH  26  27
HETATM   27  N1  UNL     1      21.447  -0.257  54.288  1.00  0.00     0.080 N 
HETATM   28  C1  UNL     1      20.474  -1.273  53.997  1.00  0.00     0.309 C 
HETATM   29  C2  UNL     1      22.790  -0.591  53.937  1.00  0.00     0.309 C 
ENDBRANCH  26  27
ENDBRANCH  25  26
ENDBRANCH  24  25
ENDBRANCH  23  24
ENDBRANCH   1  23
TORSDOF 7
ENDMDL
MODEL 9
REMARK VINA RESULT:      -6.9      8.490     10.849
REMARK  7 active torsions:
REMARK  status: ('A' for Active; 'I' for Inactive)
REMARK    1  A    between atoms: N1_2  and  C3_4 
REMARK    2  A    between atoms: C3_4  and  C4_5 
REMARK    3  A    between atoms: C4_5  and  C5_6 
REMARK    4  A    between atoms: C5_6  and  O1_7 
REMARK    5  A    between atoms: O1_7  and  C6_8 
REMARK    6  A    between atoms: C9_11  and  N2_12 
REMARK    7  A    between atoms: N2_12  and  C10_13 
ROOT
HETATM    1  C6  UNL     1      30.643   8.306  46.936  1.00  0.00     0.102 C 
HETATM    2  C7  UNL     1      29.825   7.907  45.974  1.00  0.00     0.051 C 
HETATM    3  C8  UNL     1      29.056   7.268  47.091  1.00  0.00    -0.006 C 
HETATM    4  C9  UNL     1      28.958   6.292  48.010  1.00  0.00     0.136 C 
HETATM    5  N3  UNL     1      30.112   5.435  48.081  1.00  0.00    -0.224 NA
HETATM    6  C16 UNL     1      31.095   5.824  48.899  1.00  0.00     0.237 C 
HETATM    7  N4  UNL     1      31.560   6.798  49.822  1.00  0.00    -0.230 NA
HETATM    8  C17 UNL     1      31.585   8.039  49.430  1.00  0.00     0.260 C 
HETATM    9  O2  UNL     1      31.425   9.168  48.569  1.00  0.00    -0.302 OA
HETATM   10  C18 UNL     1      30.134   9.219  48.000  1.00  0.00     0.106 C 
HETATM   11  C19 UNL     1      28.824   9.494  47.750  1.00  0.00     0.018 C 
HETATM   12  C20 UNL     1      27.978   8.314  47.279  1.00  0.00     0.072 C 
ENDROOT
BRANCH   4  13
HETATM   13  N2  UNL     1      27.942   6.052  48.944  1.00  0.00    -0.340 N 
HETATM   14  H14 UNL     1      28.298   6.640  49.712  1.00  0.00     0.167 HD
BRANCH  13  15
HETATM   15  C10 UNL     1      26.741   5.307  49.055  1.00  0.00     0.035 A 
HETATM   16  C11 UNL     1      26.873   3.982  49.420  1.00  0.00     0.032 A 
HETATM   17  C12 UNL     1      25.715   3.250  49.535  1.00  0.00     0.046 A 
HETATM   18  C13 UNL     1      24.464   3.781  49.305  1.00  0.00     0.138 A 
HETATM   19  F1  UNL     1      23.331   3.035  49.426  1.00  0.00    -0.204 F 
HETATM   20  C14 UNL     1      24.308   5.106  48.939  1.00  0.00     0.074 A 
HETATM   21 CL1  UNL     1      22.768   5.840  48.637  1.00  0.00    -0.081 Cl
HETATM   22  C15 UNL     1      25.484   5.818  48.830  1.00  0.00     0.056 A 
ENDBRANCH  13  15
ENDBRANCH   4  13
BRANCH   1  23
HETATM   23  O1  UNL     1      31.596   7.530  46.276  1.00  0.00    -0.348 OA
BRANCH  23  24
HETATM   24  C5  UNL     1      32.675   8.106  45.570  1.00  0.00     0.177 C 
BRANCH  24  25
HETATM   25  C4  UNL     1      33.873   7.218  45.660  1.00  0.00     0.057 C 
BRANCH  25  26
HETATM   26  C3  UNL     1      34.222   7.058  47.144  1.00  0.00     0.273 C 
BRANCH  26  27
HETATM   27  N1  UNL     1      34.711   5.716  47.380  1.00  0.00     0.080 N 
HETATM   28  C1  UNL     1      34.917   5.546  48.791  1.00  0.00     0.309 C 
HETATM   29  C2  UNL     1      33.897   4.717  46.765  1.00  0.00     0.309 C 
ENDBRANCH  26  27
ENDBRANCH  25  26
ENDBRANCH  24  25
ENDBRANCH  23  24
ENDBRANCH   1  23
TORSDOF 7
ENDMDL
