MODEL 1
REMARK VINA RESULT:      -7.4      0.000      0.000
REMARK  6 active torsions:
REMARK  status: ('A' for Active; 'I' for Inactive)
REMARK    1  A    between atoms: C2_2  and  C3_3 
REMARK    2  A    between atoms: C2_2  and  N2_13 
REMARK    3  A    between atoms: C3_3  and  C4_4 
REMARK    4  A    between atoms: C4_4  and  S1_5 
REMARK    5  A    between atoms: N2_13  and  C11_14 
REMARK    6  A    between atoms: C12_15  and  O1_16 
ROOT
HETATM    1  C1  UNL     1      27.991   2.143  53.286  1.00  0.00     0.032 C 
HETATM    2  C2  UNL     1      26.543   1.741  53.239  1.00  0.00     0.081 C 
ENDROOT
BRANCH   2   3
HETATM    3  C3  UNL     1      26.117   1.079  54.506  1.00  0.00     0.072 C 
BRANCH   3   4
HETATM    4  C4  UNL     1      25.642  -0.319  54.184  1.00  0.00     0.108 A 
HETATM    5  N1  UNL     1      25.430  -1.215  55.270  1.00  0.00    -0.367 N 
HETATM    6  C5  UNL     1      23.997  -1.249  55.101  1.00  0.00     0.039 A 
HETATM    7  H8  UNL     1      25.871  -1.778  56.034  1.00  0.00     0.161 HD
HETATM    8  C6  UNL     1      22.665  -1.600  55.345  1.00  0.00     0.030 A 
HETATM    9  C10 UNL     1      24.158  -0.385  54.043  1.00  0.00     0.006 A 
HETATM   10  C7  UNL     1      21.624  -1.116  54.586  1.00  0.00     0.002 A 
HETATM   11  C8  UNL     1      21.847  -0.251  53.536  1.00  0.00     0.001 A 
HETATM   12  C9  UNL     1      23.141   0.115  53.268  1.00  0.00     0.013 A 
BRANCH   4  13
HETATM   13  S1  UNL     1      26.514  -1.025  52.739  1.00  0.00    -0.146 SA
HETATM   14  H7  UNL     1      25.513  -1.613  51.919  1.00  0.00     0.104 HD
ENDBRANCH   4  13
ENDBRANCH   3   4
ENDBRANCH   2   3
BRANCH   2  15
HETATM   15  N2  UNL     1      25.783   2.929  52.931  1.00  0.00    -0.387 N 
HETATM   16  H13 UNL     1      25.702   3.636  53.689  1.00  0.00     0.159 HD
BRANCH  15  17
HETATM   17  C11 UNL     1      25.207   3.059  51.646  1.00  0.00     0.038 C 
HETATM   18  C12 UNL     1      25.815   3.446  50.558  1.00  0.00     0.069 C 
HETATM   19  C13 UNL     1      25.166   3.566  49.226  1.00  0.00     0.093 C 
HETATM   20  C14 UNL     1      23.803   3.019  49.226  1.00  0.00    -0.024 C 
HETATM   21  C15 UNL     1      23.174   2.625  50.329  1.00  0.00    -0.024 C 
HETATM   22  C16 UNL     1      23.774   2.687  51.696  1.00  0.00     0.086 C 
BRANCH  18  23
HETATM   23  O1  UNL     1      27.173   3.803  50.485  1.00  0.00    -0.363 OA
HETATM   24  H14 UNL     1      27.892   3.115  50.630  1.00  0.00     0.217 HD
ENDBRANCH  18  23
ENDBRANCH  15  17
ENDBRANCH   2  15
TORSDOF 6
ENDMDL
MODEL 2
REMARK VINA RESULT:      -7.3      2.682      5.191
REMARK  6 active torsions:
REMARK  status: ('A' for Active; 'I' for Inactive)
REMARK    1  A    between atoms: C2_2  and  C3_3 
REMARK    2  A    between atoms: C2_2  and  N2_13 
REMARK    3  A    between atoms: C3_3  and  C4_4 
REMARK    4  A    between atoms: C4_4  and  S1_5 
REMARK    5  A    between atoms: N2_13  and  C11_14 
REMARK    6  A    between atoms: C12_15  and  O1_16 
ROOT
HETATM    1  C1  UNL     1      23.188   3.651  52.321  1.00  0.00     0.032 C 
HETATM    2  C2  UNL     1      24.080   2.481  52.013  1.00  0.00     0.081 C 
ENDROOT
BRANCH   2   3
HETATM    3  C3  UNL     1      25.050   2.227  53.118  1.00  0.00     0.072 C 
BRANCH   3   4
HETATM    4  C4  UNL     1      26.442   2.161  52.533  1.00  0.00     0.108 A 
HETATM    5  N1  UNL     1      27.528   2.582  53.352  1.00  0.00    -0.367 N 
HETATM    6  C5  UNL     1      28.081   1.255  53.484  1.00  0.00     0.039 A 
HETATM    7  H8  UNL     1      28.002   3.386  53.824  1.00  0.00     0.161 HD
HETATM    8  C6  UNL     1      28.957   0.245  53.895  1.00  0.00     0.030 A 
HETATM    9  C10 UNL     1      27.049   0.808  52.693  1.00  0.00     0.006 A 
HETATM   10  C7  UNL     1      28.786  -1.071  53.532  1.00  0.00     0.002 A 
HETATM   11  C8  UNL     1      27.730  -1.462  52.735  1.00  0.00     0.001 A 
HETATM   12  C9  UNL     1      26.851  -0.498  52.313  1.00  0.00     0.013 A 
BRANCH   4  13
HETATM   13  S1  UNL     1      26.488   2.748  50.801  1.00  0.00    -0.146 SA
HETATM   14  H7  UNL     1      25.285   3.478  50.597  1.00  0.00     0.104 HD
ENDBRANCH   4  13
ENDBRANCH   3   4
ENDBRANCH   2   3
BRANCH   2  15
HETATM   15  N2  UNL     1      23.221   1.354  51.736  1.00  0.00    -0.387 N 
HETATM   16  H13 UNL     1      23.132   1.074  50.738  1.00  0.00     0.159 HD
BRANCH  15  17
HETATM   17  C11 UNL     1      22.567   0.712  52.812  1.00  0.00     0.038 C 
HETATM   18  C12 UNL     1      21.351   0.937  53.229  1.00  0.00     0.069 C 
HETATM   19  C13 UNL     1      20.704   0.234  54.367  1.00  0.00     0.093 C 
HETATM   20  C14 UNL     1      21.520  -0.884  54.858  1.00  0.00    -0.024 C 
HETATM   21  C15 UNL     1      22.760  -1.123  54.443  1.00  0.00    -0.024 C 
HETATM   22  C16 UNL     1      23.472  -0.287  53.428  1.00  0.00     0.086 C 
BRANCH  18  23
HETATM   23  O1  UNL     1      20.474   1.879  52.661  1.00  0.00    -0.363 OA
HETATM   24  H14 UNL     1      19.498   1.884  52.909  1.00  0.00     0.217 HD
ENDBRANCH  18  23
ENDBRANCH  15  17
ENDBRANCH   2  15
TORSDOF 6
ENDMDL
MODEL 3
REMARK VINA RESULT:      -7.2      2.251      4.189
REMARK  6 active torsions:
REMARK  status: ('A' for Active; 'I' for Inactive)
REMARK    1  A    between atoms: C2_2  and  C3_3 
REMARK    2  A    between atoms: C2_2  and  N2_13 
REMARK    3  A    between atoms: C3_3  and  C4_4 
REMARK    4  A    between atoms: C4_4  and  S1_5 
REMARK    5  A    between atoms: N2_13  and  C11_14 
REMARK    6  A    between atoms: C12_15  and  O1_16 
ROOT
HETATM    1  C1  UNL     1      25.646   4.012  49.950  1.00  0.00     0.032 C 
HETATM    2  C2  UNL     1      25.466   3.038  51.081  1.00  0.00     0.081 C 
ENDROOT
BRANCH   2   3
HETATM    3  C3  UNL     1      24.278   2.162  50.864  1.00  0.00     0.072 C 
BRANCH   3   4
HETATM    4  C4  UNL     1      23.252   2.468  51.931  1.00  0.00     0.108 A 
HETATM    5  N1  UNL     1      21.883   2.513  51.543  1.00  0.00    -0.367 N 
HETATM    6  C5  UNL     1      21.526   1.321  52.275  1.00  0.00     0.039 A 
HETATM    7  H8  UNL     1      21.148   3.023  51.001  1.00  0.00     0.161 HD
HETATM    8  C6  UNL     1      20.720   0.293  52.775  1.00  0.00     0.030 A 
HETATM    9  C10 UNL     1      22.839   1.243  52.675  1.00  0.00     0.006 A 
HETATM   10  C7  UNL     1      21.213  -0.698  53.592  1.00  0.00     0.002 A 
HETATM   11  C8  UNL     1      22.542  -0.726  53.961  1.00  0.00     0.001 A 
HETATM   12  C9  UNL     1      23.362   0.267  53.489  1.00  0.00     0.013 A 
BRANCH   4  13
HETATM   13  S1  UNL     1      23.799   3.812  53.045  1.00  0.00    -0.146 SA
HETATM   14  H7  UNL     1      25.193   3.617  53.248  1.00  0.00     0.104 HD
ENDBRANCH   4  13
ENDBRANCH   3   4
ENDBRANCH   2   3
BRANCH   2  15
HETATM   15  N2  UNL     1      26.702   2.303  51.208  1.00  0.00    -0.387 N 
HETATM   16  H13 UNL     1      27.450   2.533  50.523  1.00  0.00     0.159 HD
BRANCH  15  17
HETATM   17  C11 UNL     1      26.821   1.336  52.233  1.00  0.00     0.038 C 
HETATM   18  C12 UNL     1      27.036   1.568  53.498  1.00  0.00     0.069 C 
HETATM   19  C13 UNL     1      27.153   0.516  54.542  1.00  0.00     0.093 C 
HETATM   20  C14 UNL     1      26.810  -0.815  54.022  1.00  0.00    -0.024 C 
HETATM   21  C15 UNL     1      26.591  -1.063  52.735  1.00  0.00    -0.024 C 
HETATM   22  C16 UNL     1      26.664  -0.023  51.664  1.00  0.00     0.086 C 
BRANCH  18  23
HETATM   23  O1  UNL     1      27.188   2.848  54.062  1.00  0.00    -0.363 OA
HETATM   24  H14 UNL     1      26.428   3.506  54.048  1.00  0.00     0.217 HD
ENDBRANCH  18  23
ENDBRANCH  15  17
ENDBRANCH   2  15
TORSDOF 6
ENDMDL
MODEL 4
REMARK VINA RESULT:      -7.1      3.248      4.901
REMARK  6 active torsions:
REMARK  status: ('A' for Active; 'I' for Inactive)
REMARK    1  A    between atoms: C2_2  and  C3_3 
REMARK    2  A    between atoms: C2_2  and  N2_13 
REMARK    3  A    between atoms: C3_3  and  C4_4 
REMARK    4  A    between atoms: C4_4  and  S1_5 
REMARK    5  A    between atoms: N2_13  and  C11_14 
REMARK    6  A    between atoms: C12_15  and  O1_16 
ROOT
HETATM    1  C1  UNL     1      24.466   3.392  49.461  1.00  0.00     0.032 C 
HETATM    2  C2  UNL     1      25.414   3.720  50.581  1.00  0.00     0.081 C 
ENDROOT
BRANCH   2   3
HETATM    3  C3  UNL     1      26.428   2.644  50.773  1.00  0.00     0.072 C 
BRANCH   3   4
HETATM    4  C4  UNL     1      26.098   1.890  52.040  1.00  0.00     0.108 A 
HETATM    5  N1  UNL     1      26.021   0.470  51.968  1.00  0.00    -0.367 N 
HETATM    6  C5  UNL     1      27.204   0.258  52.767  1.00  0.00     0.039 A 
HETATM    7  H8  UNL     1      25.494  -0.356  51.600  1.00  0.00     0.161 HD
HETATM    8  C6  UNL     1      28.213  -0.439  53.440  1.00  0.00     0.030 A 
HETATM    9  C10 UNL     1      27.314   1.626  52.864  1.00  0.00     0.006 A 
HETATM   10  C7  UNL     1      29.216   0.201  54.131  1.00  0.00     0.002 A 
HETATM   11  C8  UNL     1      29.275   1.578  54.194  1.00  0.00     0.001 A 
HETATM   12  C9  UNL     1      28.302   2.294  53.545  1.00  0.00     0.013 A 
BRANCH   4  13
HETATM   13  S1  UNL     1      24.768   2.703  52.997  1.00  0.00    -0.146 SA
HETATM   14  H7  UNL     1      25.378   3.789  53.681  1.00  0.00     0.104 HD
ENDBRANCH   4  13
ENDBRANCH   3   4
ENDBRANCH   2   3
BRANCH   2  15
HETATM   15  N2  UNL     1      25.996   5.008  50.281  1.00  0.00    -0.387 N 
HETATM   16  H13 UNL     1      27.034   5.049  50.244  1.00  0.00     0.159 HD
BRANCH  15  17
HETATM   17  C11 UNL     1      25.139   6.110  50.060  1.00  0.00     0.038 C 
HETATM   18  C12 UNL     1      24.448   6.750  50.962  1.00  0.00     0.069 C 
HETATM   19  C13 UNL     1      23.559   7.908  50.681  1.00  0.00     0.093 C 
HETATM   20  C14 UNL     1      23.689   8.378  49.296  1.00  0.00    -0.024 C 
HETATM   21  C15 UNL     1      24.389   7.733  48.368  1.00  0.00    -0.024 C 
HETATM   22  C16 UNL     1      25.128   6.459  48.620  1.00  0.00     0.086 C 
BRANCH  18  23
HETATM   23  O1  UNL     1      24.443   6.440  52.334  1.00  0.00    -0.363 OA
HETATM   24  H14 UNL     1      25.300   6.221  52.813  1.00  0.00     0.217 HD
ENDBRANCH  18  23
ENDBRANCH  15  17
ENDBRANCH   2  15
TORSDOF 6
ENDMDL
MODEL 5
REMARK VINA RESULT:      -7.0      3.173      4.771
REMARK  6 active torsions:
REMARK  status: ('A' for Active; 'I' for Inactive)
REMARK    1  A    between atoms: C2_2  and  C3_3 
REMARK    2  A    between atoms: C2_2  and  N2_13 
REMARK    3  A    between atoms: C3_3  and  C4_4 
REMARK    4  A    between atoms: C4_4  and  S1_5 
REMARK    5  A    between atoms: N2_13  and  C11_14 
REMARK    6  A    between atoms: C12_15  and  O1_16 
ROOT
HETATM    1  C1  UNL     1      23.309   3.759  52.772  1.00  0.00     0.032 C 
HETATM    2  C2  UNL     1      24.129   2.511  52.599  1.00  0.00     0.081 C 
ENDROOT
BRANCH   2   3
HETATM    3  C3  UNL     1      25.343   2.530  53.464  1.00  0.00     0.072 C 
BRANCH   3   4
HETATM    4  C4  UNL     1      26.551   2.231  52.606  1.00  0.00     0.108 A 
HETATM    5  N1  UNL     1      27.838   2.500  53.154  1.00  0.00    -0.367 N 
HETATM    6  C5  UNL     1      28.206   1.107  53.246  1.00  0.00     0.039 A 
HETATM    7  H8  UNL     1      28.515   3.233  53.467  1.00  0.00     0.161 HD
HETATM    8  C6  UNL     1      28.993  -0.016  53.525  1.00  0.00     0.030 A 
HETATM    9  C10 UNL     1      26.974   0.805  52.716  1.00  0.00     0.006 A 
HETATM   10  C7  UNL     1      28.557  -1.299  53.284  1.00  0.00     0.002 A 
HETATM   11  C8  UNL     1      27.308  -1.541  52.751  1.00  0.00     0.001 A 
HETATM   12  C9  UNL     1      26.510  -0.464  52.465  1.00  0.00     0.013 A 
BRANCH   4  13
HETATM   13  S1  UNL     1      26.309   2.758  50.871  1.00  0.00    -0.146 SA
HETATM   14  H7  UNL     1      26.483   1.593  50.075  1.00  0.00     0.104 HD
ENDBRANCH   4  13
ENDBRANCH   3   4
ENDBRANCH   2   3
BRANCH   2  15
HETATM   15  N2  UNL     1      23.256   1.390  52.862  1.00  0.00    -0.387 N 
HETATM   16  H13 UNL     1      23.503   0.793  53.677  1.00  0.00     0.159 HD
BRANCH  15  17
HETATM   17  C11 UNL     1      22.143   1.176  52.017  1.00  0.00     0.038 C 
HETATM   18  C12 UNL     1      20.922   0.913  52.392  1.00  0.00     0.069 C 
HETATM   19  C13 UNL     1      19.781   0.696  51.465  1.00  0.00     0.093 C 
HETATM   20  C14 UNL     1      20.139   0.998  50.072  1.00  0.00    -0.024 C 
HETATM   21  C15 UNL     1      21.380   1.266  49.678  1.00  0.00    -0.024 C 
HETATM   22  C16 UNL     1      22.557   1.294  50.599  1.00  0.00     0.086 C 
BRANCH  18  23
HETATM   23  O1  UNL     1      20.504   0.797  53.731  1.00  0.00    -0.363 OA
HETATM   24  H14 UNL     1      19.525   0.791  53.963  1.00  0.00     0.217 HD
ENDBRANCH  18  23
ENDBRANCH  15  17
ENDBRANCH   2  15
TORSDOF 6
ENDMDL
MODEL 6
REMARK VINA RESULT:      -7.0      2.880      6.511
REMARK  6 active torsions:
REMARK  status: ('A' for Active; 'I' for Inactive)
REMARK    1  A    between atoms: C2_2  and  C3_3 
REMARK    2  A    between atoms: C2_2  and  N2_13 
REMARK    3  A    between atoms: C3_3  and  C4_4 
REMARK    4  A    between atoms: C4_4  and  S1_5 
REMARK    5  A    between atoms: N2_13  and  C11_14 
REMARK    6  A    between atoms: C12_15  and  O1_16 
ROOT
HETATM    1  C1  UNL     1      23.051   2.175  52.778  1.00  0.00     0.032 C 
HETATM    2  C2  UNL     1      24.181   2.884  52.084  1.00  0.00     0.081 C 
ENDROOT
BRANCH   2   3
HETATM    3  C3  UNL     1      23.778   4.247  51.636  1.00  0.00     0.072 C 
BRANCH   3   4
HETATM    4  C4  UNL     1      23.836   4.296  50.127  1.00  0.00     0.108 A 
HETATM    5  N1  UNL     1      23.558   5.540  49.491  1.00  0.00    -0.367 N 
HETATM    6  C5  UNL     1      24.914   5.730  49.032  1.00  0.00     0.039 A 
HETATM    7  H8  UNL     1      22.834   6.261  49.267  1.00  0.00     0.161 HD
HETATM    8  C6  UNL     1      26.001   6.344  48.401  1.00  0.00     0.030 A 
HETATM    9  C10 UNL     1      25.224   4.531  49.630  1.00  0.00     0.006 A 
HETATM   10  C7  UNL     1      27.258   5.786  48.390  1.00  0.00     0.002 A 
HETATM   11  C8  UNL     1      27.510   4.579  49.009  1.00  0.00     0.001 A 
HETATM   12  C9  UNL     1      26.468   3.948  49.637  1.00  0.00     0.013 A 
BRANCH   4  13
HETATM   13  S1  UNL     1      23.058   2.829  49.361  1.00  0.00    -0.146 SA
HETATM   14  H7  UNL     1      22.809   1.913  50.420  1.00  0.00     0.104 HD
ENDBRANCH   4  13
ENDBRANCH   3   4
ENDBRANCH   2   3
BRANCH   2  15
HETATM   15  N2  UNL     1      25.302   2.889  52.995  1.00  0.00    -0.387 N 
HETATM   16  H13 UNL     1      25.361   3.693  53.652  1.00  0.00     0.159 HD
BRANCH  15  17
HETATM   17  C11 UNL     1      26.231   1.825  52.943  1.00  0.00     0.038 C 
HETATM   18  C12 UNL     1      27.418   1.802  53.484  1.00  0.00     0.069 C 
HETATM   19  C13 UNL     1      28.362   0.657  53.402  1.00  0.00     0.093 C 
HETATM   20  C14 UNL     1      27.737  -0.529  52.801  1.00  0.00    -0.024 C 
HETATM   21  C15 UNL     1      26.530  -0.517  52.245  1.00  0.00    -0.024 C 
HETATM   22  C16 UNL     1      25.663   0.698  52.165  1.00  0.00     0.086 C 
BRANCH  18  23
HETATM   23  O1  UNL     1      27.978   2.857  54.226  1.00  0.00    -0.363 OA
HETATM   24  H14 UNL     1      27.559   3.153  55.092  1.00  0.00     0.217 HD
ENDBRANCH  18  23
ENDBRANCH  15  17
ENDBRANCH   2  15
TORSDOF 6
ENDMDL
MODEL 7
REMARK VINA RESULT:      -6.9      2.776      4.695
REMARK  6 active torsions:
REMARK  status: ('A' for Active; 'I' for Inactive)
REMARK    1  A    between atoms: C2_2  and  C3_3 
REMARK    2  A    between atoms: C2_2  and  N2_13 
REMARK    3  A    between atoms: C3_3  and  C4_4 
REMARK    4  A    between atoms: C4_4  and  S1_5 
REMARK    5  A    between atoms: N2_13  and  C11_14 
REMARK    6  A    between atoms: C12_15  and  O1_16 
ROOT
HETATM    1  C1  UNL     1      27.139   2.068  52.110  1.00  0.00     0.032 C 
HETATM    2  C2  UNL     1      25.870   1.663  52.806  1.00  0.00     0.081 C 
ENDROOT
BRANCH   2   3
HETATM    3  C3  UNL     1      24.884   1.082  51.851  1.00  0.00     0.072 C 
BRANCH   3   4
HETATM    4  C4  UNL     1      23.562   1.793  52.030  1.00  0.00     0.108 A 
HETATM    5  N1  UNL     1      22.616   1.714  50.969  1.00  0.00    -0.367 N 
HETATM    6  C5  UNL     1      21.687   0.898  51.715  1.00  0.00     0.039 A 
HETATM    7  H8  UNL     1      22.382   1.992  49.987  1.00  0.00     0.161 HD
HETATM    8  C6  UNL     1      20.533   0.155  51.986  1.00  0.00     0.030 A 
HETATM    9  C10 UNL     1      22.573   0.952  52.766  1.00  0.00     0.006 A 
HETATM   10  C7  UNL     1      20.320  -0.459  53.198  1.00  0.00     0.002 A 
HETATM   11  C8  UNL     1      21.246  -0.370  54.217  1.00  0.00     0.001 A 
HETATM   12  C9  UNL     1      22.389   0.351  53.987  1.00  0.00     0.013 A 
BRANCH   4  13
HETATM   13  S1  UNL     1      23.768   3.448  52.779  1.00  0.00    -0.146 SA
HETATM   14  H7  UNL     1      24.367   4.265  51.781  1.00  0.00     0.104 HD
ENDBRANCH   4  13
ENDBRANCH   3   4
ENDBRANCH   2   3
BRANCH   2  15
HETATM   15  N2  UNL     1      26.240   0.757  53.868  1.00  0.00    -0.387 N 
HETATM   16  H13 UNL     1      25.663   0.798  54.733  1.00  0.00     0.159 HD
BRANCH  15  17
HETATM   17  C11 UNL     1      27.337  -0.112  53.675  1.00  0.00     0.038 C 
HETATM   18  C12 UNL     1      28.547   0.048  54.136  1.00  0.00     0.069 C 
HETATM   19  C13 UNL     1      29.671  -0.897  53.907  1.00  0.00     0.093 C 
HETATM   20  C14 UNL     1      29.224  -2.136  53.257  1.00  0.00    -0.024 C 
HETATM   21  C15 UNL     1      27.995  -2.310  52.781  1.00  0.00    -0.024 C 
HETATM   22  C16 UNL     1      26.922  -1.272  52.851  1.00  0.00     0.086 C 
BRANCH  18  23
HETATM   23  O1  UNL     1      28.964   1.139  54.921  1.00  0.00    -0.363 OA
HETATM   24  H14 UNL     1      29.818   1.090  55.452  1.00  0.00     0.217 HD
ENDBRANCH  18  23
ENDBRANCH  15  17
ENDBRANCH   2  15
TORSDOF 6
ENDMDL
MODEL 8
REMARK VINA RESULT:      -6.9      1.709      2.041
REMARK  6 active torsions:
REMARK  status: ('A' for Active; 'I' for Inactive)
REMARK    1  A    between atoms: C2_2  and  C3_3 
REMARK    2  A    between atoms: C2_2  and  N2_13 
REMARK    3  A    between atoms: C3_3  and  C4_4 
REMARK    4  A    between atoms: C4_4  and  S1_5 
REMARK    5  A    between atoms: N2_13  and  C11_14 
REMARK    6  A    between atoms: C12_15  and  O1_16 
ROOT
HETATM    1  C1  UNL     1      25.871   2.260  51.538  1.00  0.00     0.032 C 
HETATM    2  C2  UNL     1      25.188   2.057  52.861  1.00  0.00     0.081 C 
ENDROOT
BRANCH   2   3
HETATM    3  C3  UNL     1      26.113   1.466  53.870  1.00  0.00     0.072 C 
BRANCH   3   4
HETATM    4  C4  UNL     1      25.880  -0.027  53.923  1.00  0.00     0.108 A 
HETATM    5  N1  UNL     1      25.823  -0.646  55.204  1.00  0.00    -0.367 N 
HETATM    6  C5  UNL     1      24.416  -0.953  55.112  1.00  0.00     0.039 A 
HETATM    7  H8  UNL     1      26.354  -0.920  56.063  1.00  0.00     0.161 HD
HETATM    8  C6  UNL     1      23.163  -1.444  55.492  1.00  0.00     0.030 A 
HETATM    9  C10 UNL     1      24.428  -0.366  53.868  1.00  0.00     0.006 A 
HETATM   10  C7  UNL     1      22.054  -1.341  54.684  1.00  0.00     0.002 A 
HETATM   11  C8  UNL     1      22.127  -0.741  53.444  1.00  0.00     0.001 A 
HETATM   12  C9  UNL     1      23.340  -0.248  53.038  1.00  0.00     0.013 A 
BRANCH   4  13
HETATM   13  S1  UNL     1      26.855  -0.919  52.659  1.00  0.00    -0.146 SA
HETATM   14  H7  UNL     1      25.931  -1.333  51.662  1.00  0.00     0.104 HD
ENDBRANCH   4  13
ENDBRANCH   3   4
ENDBRANCH   2   3
BRANCH   2  15
HETATM   15  N2  UNL     1      24.648   3.336  53.260  1.00  0.00    -0.387 N 
HETATM   16  H13 UNL     1      25.122   3.810  54.055  1.00  0.00     0.159 HD
BRANCH  15  17
HETATM   17  C11 UNL     1      23.533   3.855  52.563  1.00  0.00     0.038 C 
HETATM   18  C12 UNL     1      23.363   5.091  52.181  1.00  0.00     0.069 C 
HETATM   19  C13 UNL     1      22.171   5.591  51.447  1.00  0.00     0.093 C 
HETATM   20  C14 UNL     1      21.283   4.499  51.029  1.00  0.00    -0.024 C 
HETATM   21  C15 UNL     1      21.446   3.237  51.414  1.00  0.00    -0.024 C 
HETATM   22  C16 UNL     1      22.548   2.777  52.313  1.00  0.00     0.086 C 
BRANCH  18  23
HETATM   23  O1  UNL     1      24.283   6.131  52.405  1.00  0.00    -0.363 OA
HETATM   24  H14 UNL     1      25.269   5.938  52.465  1.00  0.00     0.217 HD
ENDBRANCH  18  23
ENDBRANCH  15  17
ENDBRANCH   2  15
TORSDOF 6
ENDMDL
MODEL 9
REMARK VINA RESULT:      -6.9      2.602      4.160
REMARK  6 active torsions:
REMARK  status: ('A' for Active; 'I' for Inactive)
REMARK    1  A    between atoms: C2_2  and  C3_3 
REMARK    2  A    between atoms: C2_2  and  N2_13 
REMARK    3  A    between atoms: C3_3  and  C4_4 
REMARK    4  A    between atoms: C4_4  and  S1_5 
REMARK    5  A    between atoms: N2_13  and  C11_14 
REMARK    6  A    between atoms: C12_15  and  O1_16 
ROOT
HETATM    1  C1  UNL     1      22.243   1.107  53.054  1.00  0.00     0.032 C 
HETATM    2  C2  UNL     1      23.105   2.226  52.539  1.00  0.00     0.081 C 
ENDROOT
BRANCH   2   3
HETATM    3  C3  UNL     1      24.044   1.752  51.482  1.00  0.00     0.072 C 
BRANCH   3   4
HETATM    4  C4  UNL     1      25.446   2.176  51.857  1.00  0.00     0.108 A 
HETATM    5  N1  UNL     1      25.651   2.717  53.158  1.00  0.00    -0.367 N 
HETATM    6  C5  UNL     1      26.426   1.590  53.620  1.00  0.00     0.039 A 
HETATM    7  H8  UNL     1      25.472   3.518  53.806  1.00  0.00     0.161 HD
HETATM    8  C6  UNL     1      27.178   0.797  54.494  1.00  0.00     0.030 A 
HETATM    9  C10 UNL     1      26.254   1.033  52.374  1.00  0.00     0.006 A 
HETATM   10  C7  UNL     1      27.691  -0.425  54.124  1.00  0.00     0.002 A 
HETATM   11  C8  UNL     1      27.485  -0.933  52.859  1.00  0.00     0.001 A 
HETATM   12  C9  UNL     1      26.752  -0.183  51.975  1.00  0.00     0.013 A 
BRANCH   4  13
HETATM   13  S1  UNL     1      26.282   3.064  50.494  1.00  0.00    -0.146 SA
HETATM   14  H7  UNL     1      25.251   3.566  49.655  1.00  0.00     0.104 HD
ENDBRANCH   4  13
ENDBRANCH   3   4
ENDBRANCH   2   3
BRANCH   2  15
HETATM   15  N2  UNL     1      22.216   3.272  52.088  1.00  0.00    -0.387 N 
HETATM   16  H13 UNL     1      21.205   3.139  52.292  1.00  0.00     0.159 HD
BRANCH  15  17
HETATM   17  C11 UNL     1      22.760   4.387  51.412  1.00  0.00     0.038 C 
HETATM   18  C12 UNL     1      23.501   5.326  51.933  1.00  0.00     0.069 C 
HETATM   19  C13 UNL     1      24.052   6.483  51.180  1.00  0.00     0.093 C 
HETATM   20  C14 UNL     1      23.830   6.355  49.734  1.00  0.00    -0.024 C 
HETATM   21  C15 UNL     1      23.076   5.403  49.192  1.00  0.00    -0.024 C 
HETATM   22  C16 UNL     1      22.368   4.352  49.983  1.00  0.00     0.086 C 
BRANCH  18  23
HETATM   23  O1  UNL     1      23.887   5.382  53.285  1.00  0.00    -0.363 OA
HETATM   24  H14 UNL     1      23.465   6.047  53.911  1.00  0.00     0.217 HD
ENDBRANCH  18  23
ENDBRANCH  15  17
ENDBRANCH   2  15
TORSDOF 6
ENDMDL
