MODEL 1
REMARK VINA RESULT:      -8.0      0.000      0.000
REMARK  1 active torsions:
REMARK  status: ('A' for Active; 'I' for Inactive)
REMARK    1  A    between atoms: C2_2  and  N1_4 
ROOT
HETATM    1  N1  UNL     1      20.788   0.595  51.221  1.00  0.00     0.102 N 
HETATM    2  C4  UNL     1      21.287   0.244  49.914  1.00  0.00     0.358 C 
HETATM    3  C5  UNL     1      21.297   1.265  48.963  1.00  0.00    -0.115 C 
HETATM    4  C6  UNL     1      21.308   2.123  48.191  1.00  0.00     0.046 A 
HETATM    5  C7  UNL     1      21.325   3.190  47.264  1.00  0.00     0.286 A 
HETATM    6  O1  UNL     1      21.108   3.699  48.423  1.00  0.00     0.000 OA
HETATM    7  N2  UNL     1      21.147   4.576  47.472  1.00  0.00     0.140 N 
HETATM    8  C8  UNL     1      20.913   5.696  48.303  1.00  0.00     0.170 A 
HETATM    9  C9  UNL     1      19.924   6.604  48.369  1.00  0.00     0.040 A 
HETATM   10  C10 UNL     1      19.940   7.602  49.310  1.00  0.00     0.005 A 
HETATM   11  C11 UNL     1      20.941   7.759  50.241  1.00  0.00     0.037 A 
HETATM   12  C12 UNL     1      21.983   6.862  50.224  1.00  0.00     0.078 A 
HETATM   13  C13 UNL     1      21.941   5.865  49.267  1.00  0.00     0.076 A 
HETATM   14  O2  UNL     1      23.119   6.789  51.045  1.00  0.00    -0.308 OA
HETATM   15  C14 UNL     1      24.317   6.299  50.472  1.00  0.00     0.102 A 
HETATM   16  C15 UNL     1      25.000   7.279  49.792  1.00  0.00     0.041 A 
HETATM   17  C16 UNL     1      26.189   7.080  49.136  1.00  0.00     0.022 A 
HETATM   18  C17 UNL     1      26.751   5.822  49.149  1.00  0.00     0.013 A 
HETATM   19 BR1  UNL     1      28.381   5.513  48.245  1.00  0.00    -0.051 Br
HETATM   20  C18 UNL     1      26.044   4.861  49.840  1.00  0.00     0.051 A 
HETATM   21  C19 UNL     1      24.842   5.029  50.511  1.00  0.00     0.063 A 
HETATM   22  N3  UNL     1      24.424   3.813  51.119  1.00  0.00    -0.388 N 
HETATM   23  C20 UNL     1      23.781   3.571  52.388  1.00  0.00     0.120 C 
HETATM   24  C21 UNL     1      23.772   2.158  52.844  1.00  0.00     0.021 C 
HETATM   25  C22 UNL     1      23.019   1.213  51.976  1.00  0.00     0.032 C 
HETATM   26  C23 UNL     1      21.559   1.552  51.945  1.00  0.00     0.274 C 
HETATM   27  H10 UNL     1      21.206   5.102  46.545  1.00  0.00     0.325 HD
HETATM   28  H18 UNL     1      24.580   2.909  50.619  1.00  0.00     0.159 HD
ENDROOT
BRANCH   1  29
HETATM   29  C2  UNL     1      19.370   0.871  51.228  1.00  0.00     0.216 C 
HETATM   30  C1  UNL     1      18.710  -0.134  52.151  1.00  0.00     0.042 C 
HETATM   31  C3  UNL     1      18.986   2.229  51.711  1.00  0.00     0.042 C 
ENDBRANCH   1  29
TORSDOF 1
ENDMDL
MODEL 2
REMARK VINA RESULT:      -7.6      3.278      6.161
REMARK  1 active torsions:
REMARK  status: ('A' for Active; 'I' for Inactive)
REMARK    1  A    between atoms: C2_2  and  N1_4 
ROOT
HETATM    1  N1  UNL     1      24.862   2.040  52.614  1.00  0.00     0.102 N 
HETATM    2  C4  UNL     1      24.396   3.170  53.380  1.00  0.00     0.358 C 
HETATM    3  C5  UNL     1      23.779   4.192  52.658  1.00  0.00    -0.115 C 
HETATM    4  C6  UNL     1      23.263   5.024  52.047  1.00  0.00     0.046 A 
HETATM    5  C7  UNL     1      22.622   6.027  51.282  1.00  0.00     0.286 A 
HETATM    6  O1  UNL     1      22.748   4.996  50.526  1.00  0.00     0.000 OA
HETATM    7  N2  UNL     1      22.173   5.998  49.944  1.00  0.00     0.140 N 
HETATM    8  C8  UNL     1      21.985   5.350  48.701  1.00  0.00     0.170 A 
HETATM    9  C9  UNL     1      22.444   5.586  47.460  1.00  0.00     0.040 A 
HETATM   10  C10 UNL     1      22.109   4.765  46.412  1.00  0.00     0.005 A 
HETATM   11  C11 UNL     1      21.295   3.663  46.536  1.00  0.00     0.037 A 
HETATM   12  C12 UNL     1      20.791   3.369  47.781  1.00  0.00     0.078 A 
HETATM   13  C13 UNL     1      21.146   4.211  48.819  1.00  0.00     0.076 A 
HETATM   14  O2  UNL     1      19.949   2.322  48.186  1.00  0.00    -0.308 OA
HETATM   15  C14 UNL     1      19.040   2.576  49.241  1.00  0.00     0.102 A 
HETATM   16  C15 UNL     1      17.893   3.187  48.796  1.00  0.00     0.041 A 
HETATM   17  C16 UNL     1      16.847   3.552  49.606  1.00  0.00     0.022 A 
HETATM   18  C17 UNL     1      16.934   3.297  50.957  1.00  0.00     0.013 A 
HETATM   19 BR1  UNL     1      15.516   3.798  52.101  1.00  0.00    -0.051 Br
HETATM   20  C18 UNL     1      18.096   2.682  51.373  1.00  0.00     0.051 A 
HETATM   21  C19 UNL     1      19.169   2.302  50.582  1.00  0.00     0.063 A 
HETATM   22  N3  UNL     1      20.183   1.681  51.363  1.00  0.00    -0.388 N 
HETATM   23  C20 UNL     1      21.042   0.560  51.066  1.00  0.00     0.120 C 
HETATM   24  C21 UNL     1      21.765  -0.020  52.225  1.00  0.00     0.021 C 
HETATM   25  C22 UNL     1      22.733   0.891  52.894  1.00  0.00     0.032 C 
HETATM   26  C23 UNL     1      23.852   1.265  51.969  1.00  0.00     0.274 C 
HETATM   27  H10 UNL     1      21.744   6.938  49.675  1.00  0.00     0.325 HD
HETATM   28  H18 UNL     1      20.388   2.044  52.321  1.00  0.00     0.159 HD
ENDROOT
BRANCH   1  29
HETATM   29  C2  UNL     1      25.979   2.362  51.756  1.00  0.00     0.216 C 
HETATM   30  C1  UNL     1      26.880   1.145  51.699  1.00  0.00     0.042 C 
HETATM   31  C3  UNL     1      25.624   2.714  50.350  1.00  0.00     0.042 C 
ENDBRANCH   1  29
TORSDOF 1
ENDMDL
MODEL 3
REMARK VINA RESULT:      -7.4      2.580      6.373
REMARK  1 active torsions:
REMARK  status: ('A' for Active; 'I' for Inactive)
REMARK    1  A    between atoms: C2_2  and  N1_4 
ROOT
HETATM    1  N1  UNL     1      25.874   6.990  49.237  1.00  0.00     0.102 N 
HETATM    2  C4  UNL     1      25.334   7.363  50.521  1.00  0.00     0.358 C 
HETATM    3  C5  UNL     1      23.960   7.183  50.687  1.00  0.00    -0.115 C 
HETATM    4  C6  UNL     1      22.824   7.018  50.812  1.00  0.00     0.046 A 
HETATM    5  C7  UNL     1      21.434   6.798  50.949  1.00  0.00     0.286 A 
HETATM    6  O1  UNL     1      21.810   6.195  49.878  1.00  0.00     0.000 OA
HETATM    7  N2  UNL     1      20.545   6.074  50.124  1.00  0.00     0.140 N 
HETATM    8  C8  UNL     1      20.256   5.280  48.989  1.00  0.00     0.170 A 
HETATM    9  C9  UNL     1      19.479   5.466  47.909  1.00  0.00     0.040 A 
HETATM   10  C10 UNL     1      19.394   4.513  46.925  1.00  0.00     0.005 A 
HETATM   11  C11 UNL     1      20.076   3.318  46.958  1.00  0.00     0.037 A 
HETATM   12  C12 UNL     1      20.886   3.068  48.040  1.00  0.00     0.078 A 
HETATM   13  C13 UNL     1      20.955   4.045  49.016  1.00  0.00     0.076 A 
HETATM   14  O2  UNL     1      21.683   1.948  48.326  1.00  0.00    -0.308 OA
HETATM   15  C14 UNL     1      21.852   1.589  49.685  1.00  0.00     0.102 A 
HETATM   16  C15 UNL     1      20.804   0.833  50.151  1.00  0.00     0.041 A 
HETATM   17  C16 UNL     1      20.707   0.354  51.434  1.00  0.00     0.022 A 
HETATM   18  C17 UNL     1      21.717   0.639  52.326  1.00  0.00     0.013 A 
HETATM   19 BR1  UNL     1      21.607   0.003  54.103  1.00  0.00    -0.051 Br
HETATM   20  C18 UNL     1      22.755   1.397  51.829  1.00  0.00     0.051 A 
HETATM   21  C19 UNL     1      22.883   1.896  50.542  1.00  0.00     0.063 A 
HETATM   22  N3  UNL     1      24.098   2.621  50.394  1.00  0.00    -0.388 N 
HETATM   23  C20 UNL     1      25.016   2.696  49.284  1.00  0.00     0.120 C 
HETATM   24  C21 UNL     1      26.340   3.296  49.586  1.00  0.00     0.021 C 
HETATM   25  C22 UNL     1      26.312   4.723  50.009  1.00  0.00     0.032 C 
HETATM   26  C23 UNL     1      25.801   5.604  48.909  1.00  0.00     0.274 C 
HETATM   27  H10 UNL     1      19.553   6.122  50.514  1.00  0.00     0.325 HD
HETATM   28  H18 UNL     1      24.440   3.215  51.182  1.00  0.00     0.159 HD
ENDROOT
BRANCH   1  29
HETATM   29  C2  UNL     1      25.441   7.860  48.168  1.00  0.00     0.216 C 
HETATM   30  C1  UNL     1      26.639   8.127  47.278  1.00  0.00     0.042 C 
HETATM   31  C3  UNL     1      24.360   7.314  47.298  1.00  0.00     0.042 C 
ENDBRANCH   1  29
TORSDOF 1
ENDMDL
MODEL 4
REMARK VINA RESULT:      -7.3      9.133     13.840
REMARK  1 active torsions:
REMARK  status: ('A' for Active; 'I' for Inactive)
REMARK    1  A    between atoms: C2_2  and  N1_4 
ROOT
HETATM    1  N1  UNL     1      34.837  10.420  43.179  1.00  0.00     0.102 N 
HETATM    2  C4  UNL     1      33.708  10.076  42.351  1.00  0.00     0.358 C 
HETATM    3  C5  UNL     1      33.288   8.746  42.401  1.00  0.00    -0.115 C 
HETATM    4  C6  UNL     1      32.948   7.645  42.462  1.00  0.00     0.046 A 
HETATM    5  C7  UNL     1      32.538   6.295  42.560  1.00  0.00     0.286 A 
HETATM    6  O1  UNL     1      33.364   6.512  43.520  1.00  0.00     0.000 OA
HETATM    7  N2  UNL     1      32.908   5.301  43.491  1.00  0.00     0.140 N 
HETATM    8  C8  UNL     1      33.628   4.853  44.624  1.00  0.00     0.170 A 
HETATM    9  C9  UNL     1      34.576   3.917  44.803  1.00  0.00     0.040 A 
HETATM   10  C10 UNL     1      35.129   3.696  46.039  1.00  0.00     0.005 A 
HETATM   11  C11 UNL     1      34.771   4.390  47.172  1.00  0.00     0.037 A 
HETATM   12  C12 UNL     1      33.803   5.360  47.054  1.00  0.00     0.078 A 
HETATM   13  C13 UNL     1      33.263   5.564  45.797  1.00  0.00     0.076 A 
HETATM   14  O2  UNL     1      33.254   6.205  48.032  1.00  0.00    -0.308 OA
HETATM   15  C14 UNL     1      31.898   6.584  47.890  1.00  0.00     0.102 A 
HETATM   16  C15 UNL     1      31.043   5.630  48.385  1.00  0.00     0.041 A 
HETATM   17  C16 UNL     1      29.674   5.735  48.372  1.00  0.00     0.022 A 
HETATM   18  C17 UNL     1      29.102   6.866  47.831  1.00  0.00     0.013 A 
HETATM   19 BR1  UNL     1      27.221   7.036  47.786  1.00  0.00    -0.051 Br
HETATM   20  C18 UNL     1      29.985   7.806  47.344  1.00  0.00     0.051 A 
HETATM   21  C19 UNL     1      31.369   7.729  47.342  1.00  0.00     0.063 A 
HETATM   22  N3  UNL     1      31.943   8.898  46.770  1.00  0.00    -0.388 N 
HETATM   23  C20 UNL     1      33.129   9.636  47.134  1.00  0.00     0.120 C 
HETATM   24  C21 UNL     1      33.260  10.982  46.523  1.00  0.00     0.021 C 
HETATM   25  C22 UNL     1      33.377  11.000  45.039  1.00  0.00     0.032 C 
HETATM   26  C23 UNL     1      34.632  10.316  44.587  1.00  0.00     0.274 C 
HETATM   27  H10 UNL     1      32.420   4.379  43.265  1.00  0.00     0.325 HD
HETATM   28  H18 UNL     1      31.480   9.349  45.949  1.00  0.00     0.159 HD
ENDROOT
BRANCH   1  29
HETATM   29  C2  UNL     1      36.072   9.818  42.729  1.00  0.00     0.216 C 
HETATM   30  C1  UNL     1      36.438  10.454  41.404  1.00  0.00     0.042 C 
HETATM   31  C3  UNL     1      37.239   9.996  43.641  1.00  0.00     0.042 C 
ENDBRANCH   1  29
TORSDOF 1
ENDMDL
MODEL 5
REMARK VINA RESULT:      -7.2      2.462      4.832
REMARK  1 active torsions:
REMARK  status: ('A' for Active; 'I' for Inactive)
REMARK    1  A    between atoms: C2_2  and  N1_4 
ROOT
HETATM    1  N1  UNL     1      19.528   2.085  50.600  1.00  0.00     0.102 N 
HETATM    2  C4  UNL     1      19.360   3.352  51.267  1.00  0.00     0.358 C 
HETATM    3  C5  UNL     1      20.452   3.811  52.005  1.00  0.00    -0.115 C 
HETATM    4  C6  UNL     1      21.368   4.180  52.602  1.00  0.00     0.046 A 
HETATM    5  C7  UNL     1      22.505   4.621  53.318  1.00  0.00     0.286 A 
HETATM    6  O1  UNL     1      22.878   3.635  52.585  1.00  0.00     0.000 OA
HETATM    7  N2  UNL     1      23.831   4.137  53.302  1.00  0.00     0.140 N 
HETATM    8  C8  UNL     1      24.835   3.253  52.841  1.00  0.00     0.170 A 
HETATM    9  C9  UNL     1      25.596   2.327  53.447  1.00  0.00     0.040 A 
HETATM   10  C10 UNL     1      26.503   1.579  52.739  1.00  0.00     0.005 A 
HETATM   11  C11 UNL     1      26.708   1.710  51.384  1.00  0.00     0.037 A 
HETATM   12  C12 UNL     1      25.960   2.644  50.706  1.00  0.00     0.078 A 
HETATM   13  C13 UNL     1      25.053   3.382  51.444  1.00  0.00     0.076 A 
HETATM   14  O2  UNL     1      25.966   2.982  49.344  1.00  0.00    -0.308 OA
HETATM   15  C14 UNL     1      25.689   4.327  48.996  1.00  0.00     0.102 A 
HETATM   16  C15 UNL     1      26.805   5.122  49.092  1.00  0.00     0.041 A 
HETATM   17  C16 UNL     1      26.821   6.468  48.819  1.00  0.00     0.022 A 
HETATM   18  C17 UNL     1      25.652   7.077  48.422  1.00  0.00     0.013 A 
HETATM   19 BR1  UNL     1      25.638   8.930  48.050  1.00  0.00    -0.051 Br
HETATM   20  C18 UNL     1      24.549   6.254  48.334  1.00  0.00     0.051 A 
HETATM   21  C19 UNL     1      24.500   4.894  48.603  1.00  0.00     0.063 A 
HETATM   22  N3  UNL     1      23.191   4.380  48.387  1.00  0.00    -0.388 N 
HETATM   23  C20 UNL     1      22.758   3.120  47.831  1.00  0.00     0.120 C 
HETATM   24  C21 UNL     1      21.323   3.041  47.462  1.00  0.00     0.021 C 
HETATM   25  C22 UNL     1      20.365   3.180  48.593  1.00  0.00     0.032 C 
HETATM   26  C23 UNL     1      20.512   2.050  49.567  1.00  0.00     0.274 C 
HETATM   27  H10 UNL     1      24.439   4.694  53.979  1.00  0.00     0.325 HD
HETATM   28  H18 UNL     1      22.362   4.958  48.650  1.00  0.00     0.159 HD
ENDROOT
BRANCH   1  29
HETATM   29  C2  UNL     1      19.614   0.971  51.517  1.00  0.00     0.216 C 
HETATM   30  C1  UNL     1      18.495   0.007  51.177  1.00  0.00     0.042 C 
HETATM   31  C3  UNL     1      20.890   0.200  51.468  1.00  0.00     0.042 C 
ENDBRANCH   1  29
TORSDOF 1
ENDMDL
MODEL 6
REMARK VINA RESULT:      -7.2      9.358     13.369
REMARK  1 active torsions:
REMARK  status: ('A' for Active; 'I' for Inactive)
REMARK    1  A    between atoms: C2_2  and  N1_4 
ROOT
HETATM    1  N1  UNL     1      34.260   6.621  41.514  1.00  0.00     0.102 N 
HETATM    2  C4  UNL     1      33.389   5.480  41.650  1.00  0.00     0.358 C 
HETATM    3  C5  UNL     1      33.268   4.946  42.933  1.00  0.00    -0.115 C 
HETATM    4  C6  UNL     1      33.170   4.523  44.003  1.00  0.00     0.046 A 
HETATM    5  C7  UNL     1      33.055   4.028  45.322  1.00  0.00     0.286 A 
HETATM    6  O1  UNL     1      33.640   5.169  45.396  1.00  0.00     0.000 OA
HETATM    7  N2  UNL     1      33.472   4.598  46.545  1.00  0.00     0.140 N 
HETATM    8  C8  UNL     1      34.070   5.630  47.304  1.00  0.00     0.170 A 
HETATM    9  C9  UNL     1      35.156   5.682  48.095  1.00  0.00     0.040 A 
HETATM   10  C10 UNL     1      35.528   6.850  48.712  1.00  0.00     0.005 A 
HETATM   11  C11 UNL     1      34.842   8.035  48.583  1.00  0.00     0.037 A 
HETATM   12  C12 UNL     1      33.719   8.046  47.789  1.00  0.00     0.078 A 
HETATM   13  C13 UNL     1      33.367   6.857  47.177  1.00  0.00     0.076 A 
HETATM   14  O2  UNL     1      32.843   9.100  47.486  1.00  0.00    -0.308 OA
HETATM   15  C14 UNL     1      31.480   8.784  47.271  1.00  0.00     0.102 A 
HETATM   16  C15 UNL     1      30.783   8.681  48.450  1.00  0.00     0.041 A 
HETATM   17  C16 UNL     1      29.446   8.379  48.536  1.00  0.00     0.022 A 
HETATM   18  C17 UNL     1      28.741   8.162  47.373  1.00  0.00     0.013 A 
HETATM   19 BR1  UNL     1      26.903   7.732  47.457  1.00  0.00    -0.051 Br
HETATM   20  C18 UNL     1      29.466   8.273  46.206  1.00  0.00     0.051 A 
HETATM   21  C19 UNL     1      30.814   8.575  46.086  1.00  0.00     0.063 A 
HETATM   22  N3  UNL     1      31.207   8.618  44.720  1.00  0.00    -0.388 N 
HETATM   23  C20 UNL     1      32.124   9.496  44.034  1.00  0.00     0.120 C 
HETATM   24  C21 UNL     1      32.059   9.461  42.551  1.00  0.00     0.021 C 
HETATM   25  C22 UNL     1      32.417   8.157  41.928  1.00  0.00     0.032 C 
HETATM   26  C23 UNL     1      33.849   7.804  42.198  1.00  0.00     0.274 C 
HETATM   27  H10 UNL     1      33.241   3.945  47.358  1.00  0.00     0.325 HD
HETATM   28  H18 UNL     1      30.801   7.929  44.047  1.00  0.00     0.159 HD
ENDROOT
BRANCH   1  29
HETATM   29  C2  UNL     1      35.654   6.295  41.713  1.00  0.00     0.216 C 
HETATM   30  C1  UNL     1      36.219   5.858  40.376  1.00  0.00     0.042 C 
HETATM   31  C3  UNL     1      36.508   7.413  42.207  1.00  0.00     0.042 C 
ENDBRANCH   1  29
TORSDOF 1
ENDMDL
MODEL 7
REMARK VINA RESULT:      -7.0      7.549     11.399
REMARK  1 active torsions:
REMARK  status: ('A' for Active; 'I' for Inactive)
REMARK    1  A    between atoms: C2_2  and  N1_4 
ROOT
HETATM    1  N1  UNL     1      29.760  12.336  44.424  1.00  0.00     0.102 N 
HETATM    2  C4  UNL     1      30.707  12.883  45.364  1.00  0.00     0.358 C 
HETATM    3  C5  UNL     1      30.589  12.447  46.684  1.00  0.00    -0.115 C 
HETATM    4  C6  UNL     1      30.484  12.067  47.769  1.00  0.00     0.046 A 
HETATM    5  C7  UNL     1      30.347  11.581  49.090  1.00  0.00     0.286 A 
HETATM    6  O1  UNL     1      29.626  10.833  48.334  1.00  0.00     0.000 OA
HETATM    7  N2  UNL     1      29.590  10.496  49.583  1.00  0.00     0.140 N 
HETATM    8  C8  UNL     1      28.709   9.403  49.408  1.00  0.00     0.170 A 
HETATM    9  C9  UNL     1      27.471   9.137  49.857  1.00  0.00     0.040 A 
HETATM   10  C10 UNL     1      26.825   7.977  49.509  1.00  0.00     0.005 A 
HETATM   11  C11 UNL     1      27.374   7.011  48.697  1.00  0.00     0.037 A 
HETATM   12  C12 UNL     1      28.641   7.224  48.208  1.00  0.00     0.078 A 
HETATM   13  C13 UNL     1      29.268   8.402  48.572  1.00  0.00     0.076 A 
HETATM   14  O2  UNL     1      29.429   6.418  47.372  1.00  0.00    -0.308 OA
HETATM   15  C14 UNL     1      30.832   6.453  47.552  1.00  0.00     0.102 A 
HETATM   16  C15 UNL     1      31.241   5.620  48.566  1.00  0.00     0.041 A 
HETATM   17  C16 UNL     1      32.547   5.463  48.960  1.00  0.00     0.022 A 
HETATM   18  C17 UNL     1      33.526   6.179  48.306  1.00  0.00     0.013 A 
HETATM   19 BR1  UNL     1      35.332   5.994  48.831  1.00  0.00    -0.051 Br
HETATM   20  C18 UNL     1      33.086   7.004  47.293  1.00  0.00     0.051 A 
HETATM   21  C19 UNL     1      31.777   7.185  46.873  1.00  0.00     0.063 A 
HETATM   22  N3  UNL     1      31.713   8.104  45.789  1.00  0.00    -0.388 N 
HETATM   23  C20 UNL     1      30.881   8.107  44.610  1.00  0.00     0.120 C 
HETATM   24  C21 UNL     1      31.295   9.044  43.535  1.00  0.00     0.021 C 
HETATM   25  C22 UNL     1      31.254  10.488  43.897  1.00  0.00     0.032 C 
HETATM   26  C23 UNL     1      29.853  10.931  44.192  1.00  0.00     0.274 C 
HETATM   27  H10 UNL     1      29.701  10.415  50.642  1.00  0.00     0.325 HD
HETATM   28  H18 UNL     1      32.345   8.935  45.783  1.00  0.00     0.159 HD
ENDROOT
BRANCH   1  29
HETATM   29  C2  UNL     1      28.408  12.795  44.652  1.00  0.00     0.216 C 
HETATM   30  C1  UNL     1      28.055  13.758  43.537  1.00  0.00     0.042 C 
HETATM   31  C3  UNL     1      27.365  11.729  44.661  1.00  0.00     0.042 C 
ENDBRANCH   1  29
TORSDOF 1
ENDMDL
MODEL 8
REMARK VINA RESULT:      -6.9      4.825      7.746
REMARK  1 active torsions:
REMARK  status: ('A' for Active; 'I' for Inactive)
REMARK    1  A    between atoms: C2_2  and  N1_4 
ROOT
HETATM    1  N1  UNL     1      22.623   8.648  45.297  1.00  0.00     0.102 N 
HETATM    2  C4  UNL     1      22.427   9.592  46.370  1.00  0.00     0.358 C 
HETATM    3  C5  UNL     1      22.957   9.235  47.611  1.00  0.00    -0.115 C 
HETATM    4  C6  UNL     1      23.410   8.928  48.627  1.00  0.00     0.046 A 
HETATM    5  C7  UNL     1      23.982   8.541  49.861  1.00  0.00     0.286 A 
HETATM    6  O1  UNL     1      24.447   7.749  48.962  1.00  0.00     0.000 OA
HETATM    7  N2  UNL     1      24.892   7.502  50.152  1.00  0.00     0.140 N 
HETATM    8  C8  UNL     1      25.711   6.413  49.771  1.00  0.00     0.170 A 
HETATM    9  C9  UNL     1      25.710   5.106  50.084  1.00  0.00     0.040 A 
HETATM   10  C10 UNL     1      26.632   4.246  49.543  1.00  0.00     0.005 A 
HETATM   11  C11 UNL     1      27.613   4.635  48.660  1.00  0.00     0.037 A 
HETATM   12  C12 UNL     1      27.668   5.962  48.302  1.00  0.00     0.078 A 
HETATM   13  C13 UNL     1      26.726   6.806  48.860  1.00  0.00     0.076 A 
HETATM   14  O2  UNL     1      28.552   6.622  47.434  1.00  0.00    -0.308 OA
HETATM   15  C14 UNL     1      28.883   7.967  47.727  1.00  0.00     0.102 A 
HETATM   16  C15 UNL     1      29.891   8.058  48.656  1.00  0.00     0.041 A 
HETATM   17  C16 UNL     1      30.405   9.241  49.127  1.00  0.00     0.022 A 
HETATM   18  C17 UNL     1      29.889  10.425  48.647  1.00  0.00     0.013 A 
HETATM   19 BR1  UNL     1      30.566  12.070  49.284  1.00  0.00    -0.051 Br
HETATM   20  C18 UNL     1      28.879  10.302  47.716  1.00  0.00     0.051 A 
HETATM   21  C19 UNL     1      28.339   9.124  47.222  1.00  0.00     0.063 A 
HETATM   22  N3  UNL     1      27.324   9.394  46.262  1.00  0.00    -0.388 N 
HETATM   23  C20 UNL     1      26.994   8.717  45.031  1.00  0.00     0.120 C 
HETATM   24  C21 UNL     1      26.080   9.452  44.120  1.00  0.00     0.021 C 
HETATM   25  C22 UNL     1      24.717   9.713  44.658  1.00  0.00     0.032 C 
HETATM   26  C23 UNL     1      23.976   8.432  44.897  1.00  0.00     0.274 C 
HETATM   27  H10 UNL     1      25.108   7.478  51.197  1.00  0.00     0.325 HD
HETATM   28  H18 UNL     1      26.678  10.201  46.411  1.00  0.00     0.159 HD
ENDROOT
BRANCH   1  29
HETATM   29  C2  UNL     1      21.872   7.427  45.476  1.00  0.00     0.216 C 
HETATM   30  C1  UNL     1      20.422   7.726  45.152  1.00  0.00     0.042 C 
HETATM   31  C3  UNL     1      22.291   6.287  44.609  1.00  0.00     0.042 C 
ENDBRANCH   1  29
TORSDOF 1
ENDMDL
MODEL 9
REMARK VINA RESULT:      -6.9      3.350      6.138
REMARK  1 active torsions:
REMARK  status: ('A' for Active; 'I' for Inactive)
REMARK    1  A    between atoms: C2_2  and  N1_4 
ROOT
HETATM    1  N1  UNL     1      24.261   2.715  51.681  1.00  0.00     0.102 N 
HETATM    2  C4  UNL     1      23.604   3.702  52.501  1.00  0.00     0.358 C 
HETATM    3  C5  UNL     1      23.062   4.800  51.831  1.00  0.00    -0.115 C 
HETATM    4  C6  UNL     1      22.611   5.696  51.261  1.00  0.00     0.046 A 
HETATM    5  C7  UNL     1      22.055   6.779  50.542  1.00  0.00     0.286 A 
HETATM    6  O1  UNL     1      22.370   5.877  49.684  1.00  0.00     0.000 OA
HETATM    7  N2  UNL     1      21.846   6.936  49.154  1.00  0.00     0.140 N 
HETATM    8  C8  UNL     1      21.914   6.474  47.819  1.00  0.00     0.170 A 
HETATM    9  C9  UNL     1      22.565   6.907  46.726  1.00  0.00     0.040 A 
HETATM   10  C10 UNL     1      22.465   6.241  45.531  1.00  0.00     0.005 A 
HETATM   11  C11 UNL     1      21.709   5.106  45.350  1.00  0.00     0.037 A 
HETATM   12  C12 UNL     1      21.015   4.614  46.431  1.00  0.00     0.078 A 
HETATM   13  C13 UNL     1      21.136   5.303  47.624  1.00  0.00     0.076 A 
HETATM   14  O2  UNL     1      20.179   3.491  46.527  1.00  0.00    -0.308 OA
HETATM   15  C14 UNL     1      19.088   3.555  47.427  1.00  0.00     0.102 A 
HETATM   16  C15 UNL     1      18.002   4.187  46.874  1.00  0.00     0.041 A 
HETATM   17  C16 UNL     1      16.811   4.393  47.526  1.00  0.00     0.022 A 
HETATM   18  C17 UNL     1      16.679   3.942  48.821  1.00  0.00     0.013 A 
HETATM   19 BR1  UNL     1      15.057   4.220  49.751  1.00  0.00    -0.051 Br
HETATM   20  C18 UNL     1      17.785   3.311  49.348  1.00  0.00     0.051 A 
HETATM   21  C19 UNL     1      19.000   3.088  48.717  1.00  0.00     0.063 A 
HETATM   22  N3  UNL     1      19.898   2.391  49.572  1.00  0.00    -0.388 N 
HETATM   23  C20 UNL     1      20.860   1.357  49.279  1.00  0.00     0.120 C 
HETATM   24  C21 UNL     1      21.405   0.634  50.456  1.00  0.00     0.021 C 
HETATM   25  C22 UNL     1      22.188   1.467  51.409  1.00  0.00     0.032 C 
HETATM   26  C23 UNL     1      23.425   2.012  50.762  1.00  0.00     0.274 C 
HETATM   27  H10 UNL     1      21.415   7.890  48.948  1.00  0.00     0.325 HD
HETATM   28  H18 UNL     1      19.913   2.615  50.592  1.00  0.00     0.159 HD
ENDROOT
BRANCH   1  29
HETATM   29  C2  UNL     1      25.489   3.197  51.090  1.00  0.00     0.216 C 
HETATM   30  C1  UNL     1      26.576   2.189  51.401  1.00  0.00     0.042 C 
HETATM   31  C3  UNL     1      25.460   3.372  49.609  1.00  0.00     0.042 C 
ENDBRANCH   1  29
TORSDOF 1
ENDMDL
