MODEL 1
REMARK VINA RESULT:      -8.6      0.000      0.000
REMARK  5 active torsions:
REMARK  status: ('A' for Active; 'I' for Inactive)
REMARK    1  A    between atoms: C1_2  and  C2_5 
REMARK    2  A    between atoms: C3_6  and  C4_7 
REMARK    3  A    between atoms: C5_8  and  C6_9 
REMARK    4  A    between atoms: C6_9  and  N1_10 
REMARK    5  A    between atoms: N1_10  and  C7_11 
ROOT
HETATM    1  C7  UNL     1      24.727   4.407  50.735  1.00  0.00     0.130 C 
HETATM    2  N2  UNL     1      24.236   5.624  50.784  1.00  0.00    -0.227 NA
HETATM    3  C8  UNL     1      23.089   5.911  51.617  1.00  0.00     0.229 C 
HETATM    4  N3  UNL     1      22.200   5.102  52.153  1.00  0.00    -0.274 NA
HETATM    5  C9  UNL     1      22.076   3.734  51.645  1.00  0.00     0.136 C 
HETATM    6  C10 UNL     1      20.821   3.094  52.106  1.00  0.00     0.024 C 
HETATM    7  C11 UNL     1      20.553   1.973  52.701  1.00  0.00     0.133 C 
HETATM    8  O1  UNL     1      21.515   1.080  53.046  1.00  0.00    -0.359 OA
HETATM    9  C12 UNL     1      21.435  -0.298  53.197  1.00  0.00     0.204 C 
HETATM   10  C13 UNL     1      22.734  -0.922  53.574  1.00  0.00     0.028 C 
HETATM   11  P1  UNL     1      24.312  -0.471  53.638  1.00  0.00     0.030 P 
HETATM   12  N4  UNL     1      24.990   1.140  53.208  1.00  0.00    -0.252 NA
HETATM   13  C14 UNL     1      25.970   1.372  54.261  1.00  0.00     0.124 C 
HETATM   14  C15 UNL     1      26.972   0.236  54.189  1.00  0.00     0.182 C 
HETATM   15  O2  UNL     1      27.665   0.360  53.003  1.00  0.00    -0.386 OA
HETATM   16  C16 UNL     1      27.188   1.305  52.133  1.00  0.00     0.215 C 
HETATM   17  C17 UNL     1      25.667   1.203  51.956  1.00  0.00     0.225 C 
HETATM   18  O3  UNL     1      25.305   2.203  51.097  1.00  0.00    -0.356 OA
HETATM   19  C18 UNL     1      24.581   3.250  51.650  1.00  0.00     0.195 C 
HETATM   20  C19 UNL     1      23.212   2.850  52.007  1.00  0.00     0.071 C 
ENDROOT
BRANCH   1  21
HETATM   21  N1  UNL     1      25.544   4.236  49.555  1.00  0.00    -0.373 N 
HETATM   22  H5  UNL     1      25.681   3.247  49.188  1.00  0.00     0.161 HD
BRANCH  21  23
HETATM   23  C6  UNL     1      26.154   5.408  48.907  1.00  0.00     0.149 C 
BRANCH  23  24
HETATM   24  C5  UNL     1      27.558   5.053  48.621  1.00  0.00     0.001 C 
HETATM   25  C4  UNL     1      28.514   5.873  48.230  1.00  0.00     0.062 C 
BRANCH  25  26
HETATM   26  C3  UNL     1      29.861   5.422  47.977  1.00  0.00    -0.070 C 
HETATM   27  C2  UNL     1      30.981   5.030  47.765  1.00  0.00     0.013 C 
BRANCH  27  28
HETATM   28  C1  UNL     1      32.337   4.545  47.484  1.00  0.00     0.459 C 
HETATM   29  F1  UNL     1      32.471   4.398  46.097  1.00  0.00    -0.159 F 
HETATM   30  F2  UNL     1      32.556   3.359  48.115  1.00  0.00    -0.159 F 
HETATM   31  F3  UNL     1      33.286   5.463  47.891  1.00  0.00    -0.159 F 
ENDBRANCH  27  28
ENDBRANCH  25  26
ENDBRANCH  23  24
ENDBRANCH  21  23
ENDBRANCH   1  21
TORSDOF 5
ENDMDL
MODEL 2
REMARK VINA RESULT:      -8.4      2.278      4.246
REMARK  5 active torsions:
REMARK  status: ('A' for Active; 'I' for Inactive)
REMARK    1  A    between atoms: C1_2  and  C2_5 
REMARK    2  A    between atoms: C3_6  and  C4_7 
REMARK    3  A    between atoms: C5_8  and  C6_9 
REMARK    4  A    between atoms: C6_9  and  N1_10 
REMARK    5  A    between atoms: N1_10  and  C7_11 
ROOT
HETATM    1  C7  UNL     1      25.411   2.480  51.193  1.00  0.00     0.130 C 
HETATM    2  N2  UNL     1      26.584   1.898  51.299  1.00  0.00    -0.227 NA
HETATM    3  C8  UNL     1      26.678   0.535  51.773  1.00  0.00     0.229 C 
HETATM    4  N3  UNL     1      25.810  -0.201  52.432  1.00  0.00    -0.274 NA
HETATM    5  C9  UNL     1      24.682   0.448  53.104  1.00  0.00     0.136 C 
HETATM    6  C10 UNL     1      24.023  -0.466  54.067  1.00  0.00     0.024 C 
HETATM    7  C11 UNL     1      22.795  -0.841  54.250  1.00  0.00     0.133 C 
HETATM    8  O1  UNL     1      21.771  -0.393  53.478  1.00  0.00    -0.359 OA
HETATM    9  C12 UNL     1      20.425  -0.249  53.786  1.00  0.00     0.204 C 
HETATM   10  C13 UNL     1      19.621   0.296  52.656  1.00  0.00     0.028 C 
HETATM   11  P1  UNL     1      19.914   1.005  51.204  1.00  0.00     0.030 P 
HETATM   12  N4  UNL     1      21.525   1.361  50.484  1.00  0.00    -0.252 NA
HETATM   13  C14 UNL     1      21.344   0.995  49.085  1.00  0.00     0.124 C 
HETATM   14  C15 UNL     1      20.218   1.855  48.546  1.00  0.00     0.182 C 
HETATM   15  O2  UNL     1      20.656   3.163  48.533  1.00  0.00    -0.386 OA
HETATM   16  C16 UNL     1      21.857   3.392  49.150  1.00  0.00     0.215 C 
HETATM   17  C17 UNL     1      21.927   2.727  50.532  1.00  0.00     0.225 C 
HETATM   18  O3  UNL     1      23.169   2.998  51.035  1.00  0.00    -0.356 OA
HETATM   19  C18 UNL     1      24.040   1.921  51.121  1.00  0.00     0.195 C 
HETATM   20  C19 UNL     1      23.649   0.975  52.177  1.00  0.00     0.071 C 
ENDROOT
BRANCH   1  21
HETATM   21  N1  UNL     1      25.559   3.917  51.141  1.00  0.00    -0.373 N 
HETATM   22  H5  UNL     1      25.648   4.438  52.064  1.00  0.00     0.161 HD
BRANCH  21  23
HETATM   23  C6  UNL     1      25.580   4.607  49.842  1.00  0.00     0.149 C 
BRANCH  23  24
HETATM   24  C5  UNL     1      26.986   4.623  49.392  1.00  0.00     0.001 C 
HETATM   25  C4  UNL     1      27.537   5.483  48.558  1.00  0.00     0.062 C 
BRANCH  25  26
HETATM   26  C3  UNL     1      28.927   5.409  48.182  1.00  0.00    -0.070 C 
HETATM   27  C2  UNL     1      30.093   5.343  47.882  1.00  0.00     0.013 C 
BRANCH  27  28
HETATM   28  C1  UNL     1      31.513   5.240  47.525  1.00  0.00     0.459 C 
HETATM   29  F1  UNL     1      32.268   5.786  48.571  1.00  0.00    -0.159 F 
HETATM   30  F2  UNL     1      31.758   5.902  46.360  1.00  0.00    -0.159 F 
HETATM   31  F3  UNL     1      31.895   3.919  47.391  1.00  0.00    -0.159 F 
ENDBRANCH  27  28
ENDBRANCH  25  26
ENDBRANCH  23  24
ENDBRANCH  21  23
ENDBRANCH   1  21
TORSDOF 5
ENDMDL
MODEL 3
REMARK VINA RESULT:      -8.0      1.489      1.910
REMARK  5 active torsions:
REMARK  status: ('A' for Active; 'I' for Inactive)
REMARK    1  A    between atoms: C1_2  and  C2_5 
REMARK    2  A    between atoms: C3_6  and  C4_7 
REMARK    3  A    between atoms: C5_8  and  C6_9 
REMARK    4  A    between atoms: C6_9  and  N1_10 
REMARK    5  A    between atoms: N1_10  and  C7_11 
ROOT
HETATM    1  C7  UNL     1      25.437   5.655  50.019  1.00  0.00     0.130 C 
HETATM    2  N2  UNL     1      25.262   6.956  50.034  1.00  0.00    -0.227 NA
HETATM    3  C8  UNL     1      24.104   7.526  50.687  1.00  0.00     0.229 C 
HETATM    4  N3  UNL     1      22.968   6.969  51.048  1.00  0.00    -0.274 NA
HETATM    5  C9  UNL     1      22.591   5.673  50.479  1.00  0.00     0.136 C 
HETATM    6  C10 UNL     1      21.159   5.371  50.714  1.00  0.00     0.024 C 
HETATM    7  C11 UNL     1      20.529   4.356  51.221  1.00  0.00     0.133 C 
HETATM    8  O1  UNL     1      21.171   3.252  51.681  1.00  0.00    -0.359 OA
HETATM    9  C12 UNL     1      20.729   1.939  51.768  1.00  0.00     0.204 C 
HETATM   10  C13 UNL     1      21.754   1.011  52.321  1.00  0.00     0.028 C 
HETATM   11  P1  UNL     1      23.362   1.052  52.647  1.00  0.00     0.030 P 
HETATM   12  N4  UNL     1      24.480   2.439  52.386  1.00  0.00    -0.252 NA
HETATM   13  C14 UNL     1      25.305   2.423  53.586  1.00  0.00     0.124 C 
HETATM   14  C15 UNL     1      25.992   1.072  53.632  1.00  0.00     0.182 C 
HETATM   15  O2  UNL     1      26.874   1.011  52.574  1.00  0.00    -0.386 OA
HETATM   16  C16 UNL     1      26.793   2.041  51.674  1.00  0.00     0.215 C 
HETATM   17  C17 UNL     1      25.343   2.324  51.258  1.00  0.00     0.225 C 
HETATM   18  O3  UNL     1      25.383   3.378  50.389  1.00  0.00    -0.356 OA
HETATM   19  C18 UNL     1      24.863   4.576  50.859  1.00  0.00     0.195 C 
HETATM   20  C19 UNL     1      23.399   4.534  50.983  1.00  0.00     0.071 C 
ENDROOT
BRANCH   1  21
HETATM   21  N1  UNL     1      26.364   5.278  48.976  1.00  0.00    -0.373 N 
HETATM   22  H5  UNL     1      26.246   4.318  48.533  1.00  0.00     0.161 HD
BRANCH  21  23
HETATM   23  C6  UNL     1      27.425   6.210  48.564  1.00  0.00     0.149 C 
BRANCH  23  24
HETATM   24  C5  UNL     1      28.578   5.386  48.148  1.00  0.00     0.001 C 
HETATM   25  C4  UNL     1      29.835   5.774  48.065  1.00  0.00     0.062 C 
BRANCH  25  26
HETATM   26  C3  UNL     1      30.890   4.884  47.646  1.00  0.00    -0.070 C 
HETATM   27  C2  UNL     1      31.781   4.149  47.301  1.00  0.00     0.013 C 
BRANCH  27  28
HETATM   28  C1  UNL     1      32.874   3.253  46.905  1.00  0.00     0.459 C 
HETATM   29  F1  UNL     1      32.353   1.959  46.773  1.00  0.00    -0.159 F 
HETATM   30  F2  UNL     1      33.867   3.277  47.837  1.00  0.00    -0.159 F 
HETATM   31  F3  UNL     1      33.390   3.614  45.676  1.00  0.00    -0.159 F 
ENDBRANCH  27  28
ENDBRANCH  25  26
ENDBRANCH  23  24
ENDBRANCH  21  23
ENDBRANCH   1  21
TORSDOF 5
ENDMDL
MODEL 4
REMARK VINA RESULT:      -8.0      3.642      6.405
REMARK  5 active torsions:
REMARK  status: ('A' for Active; 'I' for Inactive)
REMARK    1  A    between atoms: C1_2  and  C2_5 
REMARK    2  A    between atoms: C3_6  and  C4_7 
REMARK    3  A    between atoms: C5_8  and  C6_9 
REMARK    4  A    between atoms: C6_9  and  N1_10 
REMARK    5  A    between atoms: N1_10  and  C7_11 
ROOT
HETATM    1  C7  UNL     1      21.585   1.153  51.748  1.00  0.00     0.130 C 
HETATM    2  N2  UNL     1      20.559   0.470  51.297  1.00  0.00    -0.227 NA
HETATM    3  C8  UNL     1      19.701   1.036  50.279  1.00  0.00     0.229 C 
HETATM    4  N3  UNL     1      19.552   2.282  49.885  1.00  0.00    -0.274 NA
HETATM    5  C9  UNL     1      20.041   3.368  50.738  1.00  0.00     0.136 C 
HETATM    6  C10 UNL     1      19.487   4.678  50.322  1.00  0.00     0.024 C 
HETATM    7  C11 UNL     1      20.021   5.826  50.037  1.00  0.00     0.133 C 
HETATM    8  O1  UNL     1      21.360   6.042  50.081  1.00  0.00    -0.359 OA
HETATM    9  C12 UNL     1      22.064   7.216  50.316  1.00  0.00     0.204 C 
HETATM   10  C13 UNL     1      23.541   7.027  50.297  1.00  0.00     0.028 C 
HETATM   11  P1  UNL     1      24.592   5.766  50.307  1.00  0.00     0.030 P 
HETATM   12  N4  UNL     1      24.175   4.015  50.348  1.00  0.00    -0.252 NA
HETATM   13  C14 UNL     1      25.121   3.433  49.405  1.00  0.00     0.124 C 
HETATM   14  C15 UNL     1      26.511   3.753  49.919  1.00  0.00     0.182 C 
HETATM   15  O2  UNL     1      26.693   3.064  51.100  1.00  0.00    -0.386 OA
HETATM   16  C16 UNL     1      25.579   2.442  51.601  1.00  0.00     0.215 C 
HETATM   17  C17 UNL     1      24.358   3.373  51.607  1.00  0.00     0.225 C 
HETATM   18  O3  UNL     1      23.312   2.643  52.097  1.00  0.00    -0.356 OA
HETATM   19  C18 UNL     1      22.320   2.310  51.185  1.00  0.00     0.195 C 
HETATM   20  C19 UNL     1      21.521   3.478  50.785  1.00  0.00     0.071 C 
ENDROOT
BRANCH   1  21
HETATM   21  N1  UNL     1      22.025   0.629  53.022  1.00  0.00    -0.373 N 
HETATM   22  H5  UNL     1      21.918   1.253  53.876  1.00  0.00     0.161 HD
BRANCH  21  23
HETATM   23  C6  UNL     1      22.598  -0.724  53.101  1.00  0.00     0.149 C 
BRANCH  23  24
HETATM   24  C5  UNL     1      24.064  -0.561  53.176  1.00  0.00     0.001 C 
HETATM   25  C4  UNL     1      24.761  -0.167  54.224  1.00  0.00     0.062 C 
BRANCH  25  26
HETATM   26  C3  UNL     1      26.197  -0.041  54.190  1.00  0.00    -0.070 C 
HETATM   27  C2  UNL     1      27.398   0.073  54.173  1.00  0.00     0.013 C 
BRANCH  27  28
HETATM   28  C1  UNL     1      28.859   0.203  54.177  1.00  0.00     0.459 C 
HETATM   29  F1  UNL     1      29.232   0.920  55.321  1.00  0.00    -0.159 F 
HETATM   30  F2  UNL     1      29.280   0.844  53.051  1.00  0.00    -0.159 F 
HETATM   31  F3  UNL     1      29.467  -1.035  54.253  1.00  0.00    -0.159 F 
ENDBRANCH  27  28
ENDBRANCH  25  26
ENDBRANCH  23  24
ENDBRANCH  21  23
ENDBRANCH   1  21
TORSDOF 5
ENDMDL
MODEL 5
REMARK VINA RESULT:      -7.9      2.316      4.557
REMARK  5 active torsions:
REMARK  status: ('A' for Active; 'I' for Inactive)
REMARK    1  A    between atoms: C1_2  and  C2_5 
REMARK    2  A    between atoms: C3_6  and  C4_7 
REMARK    3  A    between atoms: C5_8  and  C6_9 
REMARK    4  A    between atoms: C6_9  and  N1_10 
REMARK    5  A    between atoms: N1_10  and  C7_11 
ROOT
HETATM    1  C7  UNL     1      24.698   3.338  51.533  1.00  0.00     0.130 C 
HETATM    2  N2  UNL     1      25.913   3.266  51.041  1.00  0.00    -0.227 NA
HETATM    3  C8  UNL     1      26.662   2.032  51.134  1.00  0.00     0.229 C 
HETATM    4  N3  UNL     1      26.483   0.982  51.905  1.00  0.00    -0.274 NA
HETATM    5  C9  UNL     1      25.628   1.097  53.089  1.00  0.00     0.136 C 
HETATM    6  C10 UNL     1      25.819  -0.047  54.012  1.00  0.00     0.024 C 
HETATM    7  C11 UNL     1      25.007  -0.887  54.577  1.00  0.00     0.133 C 
HETATM    8  O1  UNL     1      23.664  -0.848  54.386  1.00  0.00    -0.359 OA
HETATM    9  C12 UNL     1      22.636  -1.265  55.221  1.00  0.00     0.204 C 
HETATM   10  C13 UNL     1      21.282  -1.031  54.644  1.00  0.00     0.028 C 
HETATM   11  P1  UNL     1      20.639  -0.198  53.384  1.00  0.00     0.030 P 
HETATM   12  N4  UNL     1      21.534   0.802  52.184  1.00  0.00    -0.252 NA
HETATM   13  C14 UNL     1      20.885   0.460  50.926  1.00  0.00     0.124 C 
HETATM   14  C15 UNL     1      19.421   0.827  51.071  1.00  0.00     0.182 C 
HETATM   15  O2  UNL     1      19.338   2.199  51.171  1.00  0.00    -0.386 OA
HETATM   16  C16 UNL     1      20.532   2.858  51.300  1.00  0.00     0.215 C 
HETATM   17  C17 UNL     1      21.430   2.212  52.364  1.00  0.00     0.225 C 
HETATM   18  O3  UNL     1      22.593   2.930  52.384  1.00  0.00    -0.356 OA
HETATM   19  C18 UNL     1      23.717   2.285  51.887  1.00  0.00     0.195 C 
HETATM   20  C19 UNL     1      24.181   1.213  52.780  1.00  0.00     0.071 C 
ENDROOT
BRANCH   1  21
HETATM   21  N1  UNL     1      24.313   4.716  51.739  1.00  0.00    -0.373 N 
HETATM   22  H5  UNL     1      24.312   5.085  52.736  1.00  0.00     0.161 HD
BRANCH  21  23
HETATM   23  C6  UNL     1      23.939   5.554  50.589  1.00  0.00     0.149 C 
BRANCH  23  24
HETATM   24  C5  UNL     1      25.194   6.090  50.027  1.00  0.00     0.001 C 
HETATM   25  C4  UNL     1      25.660   5.891  48.809  1.00  0.00     0.062 C 
BRANCH  25  26
HETATM   26  C3  UNL     1      26.904   6.464  48.358  1.00  0.00    -0.070 C 
HETATM   27  C2  UNL     1      27.949   6.930  47.975  1.00  0.00     0.013 C 
BRANCH  27  28
HETATM   28  C1  UNL     1      29.214   7.489  47.486  1.00  0.00     0.459 C 
HETATM   29  F1  UNL     1      30.239   6.583  47.787  1.00  0.00    -0.159 F 
HETATM   30  F2  UNL     1      29.455   8.696  48.069  1.00  0.00    -0.159 F 
HETATM   31  F3  UNL     1      29.191   7.639  46.113  1.00  0.00    -0.159 F 
ENDBRANCH  27  28
ENDBRANCH  25  26
ENDBRANCH  23  24
ENDBRANCH  21  23
ENDBRANCH   1  21
TORSDOF 5
ENDMDL
MODEL 6
REMARK VINA RESULT:      -7.9      5.391      7.406
REMARK  5 active torsions:
REMARK  status: ('A' for Active; 'I' for Inactive)
REMARK    1  A    between atoms: C1_2  and  C2_5 
REMARK    2  A    between atoms: C3_6  and  C4_7 
REMARK    3  A    between atoms: C5_8  and  C6_9 
REMARK    4  A    between atoms: C6_9  and  N1_10 
REMARK    5  A    between atoms: N1_10  and  C7_11 
ROOT
HETATM    1  C7  UNL     1      24.503   3.540  51.387  1.00  0.00     0.130 C 
HETATM    2  N2  UNL     1      25.697   3.533  50.840  1.00  0.00    -0.227 NA
HETATM    3  C8  UNL     1      26.514   2.341  50.896  1.00  0.00     0.229 C 
HETATM    4  N3  UNL     1      26.427   1.283  51.673  1.00  0.00    -0.274 NA
HETATM    5  C9  UNL     1      25.623   1.353  52.895  1.00  0.00     0.136 C 
HETATM    6  C10 UNL     1      25.917   0.222  53.806  1.00  0.00     0.024 C 
HETATM    7  C11 UNL     1      25.179  -0.661  54.406  1.00  0.00     0.133 C 
HETATM    8  O1  UNL     1      23.827  -0.694  54.277  1.00  0.00    -0.359 OA
HETATM    9  C12 UNL     1      22.862  -1.164  55.157  1.00  0.00     0.204 C 
HETATM   10  C13 UNL     1      21.474  -1.005  54.644  1.00  0.00     0.028 C 
HETATM   11  P1  UNL     1      20.730  -0.208  53.416  1.00  0.00     0.030 P 
HETATM   12  N4  UNL     1      21.514   0.838  52.178  1.00  0.00    -0.252 NA
HETATM   13  C14 UNL     1      20.827   0.461  50.950  1.00  0.00     0.124 C 
HETATM   14  C15 UNL     1      19.353   0.748  51.163  1.00  0.00     0.182 C 
HETATM   15  O2  UNL     1      19.201   2.114  51.268  1.00  0.00    -0.386 OA
HETATM   16  C16 UNL     1      20.363   2.837  51.344  1.00  0.00     0.215 C 
HETATM   17  C17 UNL     1      21.342   2.240  52.365  1.00  0.00     0.225 C 
HETATM   18  O3  UNL     1      22.464   3.020  52.333  1.00  0.00    -0.356 OA
HETATM   19  C18 UNL     1      23.597   2.436  51.784  1.00  0.00     0.195 C 
HETATM   20  C19 UNL     1      24.159   1.391  52.653  1.00  0.00     0.071 C 
ENDROOT
BRANCH   1  21
HETATM   21  N1  UNL     1      24.055   4.895  51.613  1.00  0.00    -0.373 N 
HETATM   22  H5  UNL     1      23.303   5.051  52.348  1.00  0.00     0.161 HD
BRANCH  21  23
HETATM   23  C6  UNL     1      24.636   6.001  50.835  1.00  0.00     0.149 C 
BRANCH  23  24
HETATM   24  C5  UNL     1      23.529   6.924  50.515  1.00  0.00     0.001 C 
HETATM   25  C4  UNL     1      22.247   6.732  50.760  1.00  0.00     0.062 C 
BRANCH  25  26
HETATM   26  C3  UNL     1      21.242   7.703  50.404  1.00  0.00    -0.070 C 
HETATM   27  C2  UNL     1      20.391   8.505  50.111  1.00  0.00     0.013 C 
BRANCH  27  28
HETATM   28  C1  UNL     1      19.346   9.481  49.777  1.00  0.00     0.459 C 
HETATM   29  F1  UNL     1      18.524   9.642  50.899  1.00  0.00    -0.159 F 
HETATM   30  F2  UNL     1      18.621   9.051  48.708  1.00  0.00    -0.159 F 
HETATM   31  F3  UNL     1      19.896  10.716  49.492  1.00  0.00    -0.159 F 
ENDBRANCH  27  28
ENDBRANCH  25  26
ENDBRANCH  23  24
ENDBRANCH  21  23
ENDBRANCH   1  21
TORSDOF 5
ENDMDL
MODEL 7
REMARK VINA RESULT:      -7.9      4.377      7.117
REMARK  5 active torsions:
REMARK  status: ('A' for Active; 'I' for Inactive)
REMARK    1  A    between atoms: C1_2  and  C2_5 
REMARK    2  A    between atoms: C3_6  and  C4_7 
REMARK    3  A    between atoms: C5_8  and  C6_9 
REMARK    4  A    between atoms: C6_9  and  N1_10 
REMARK    5  A    between atoms: N1_10  and  C7_11 
ROOT
HETATM    1  C7  UNL     1      20.219   0.594  52.736  1.00  0.00     0.130 C 
HETATM    2  N2  UNL     1      19.315  -0.356  52.673  1.00  0.00    -0.227 NA
HETATM    3  C8  UNL     1      18.239  -0.272  51.711  1.00  0.00     0.229 C 
HETATM    4  N3  UNL     1      17.781   0.757  51.031  1.00  0.00    -0.274 NA
HETATM    5  C9  UNL     1      18.127   2.113  51.461  1.00  0.00     0.136 C 
HETATM    6  C10 UNL     1      17.261   3.127  50.815  1.00  0.00     0.024 C 
HETATM    7  C11 UNL     1      17.498   4.212  50.143  1.00  0.00     0.133 C 
HETATM    8  O1  UNL     1      18.756   4.655  49.889  1.00  0.00    -0.359 OA
HETATM    9  C12 UNL     1      19.216   5.946  49.673  1.00  0.00     0.204 C 
HETATM   10  C13 UNL     1      20.686   6.014  49.443  1.00  0.00     0.028 C 
HETATM   11  P1  UNL     1      21.976   5.010  49.603  1.00  0.00     0.030 P 
HETATM   12  N4  UNL     1      21.950   3.307  50.185  1.00  0.00    -0.252 NA
HETATM   13  C14 UNL     1      22.876   2.639  49.279  1.00  0.00     0.124 C 
HETATM   14  C15 UNL     1      24.218   3.328  49.434  1.00  0.00     0.182 C 
HETATM   15  O2  UNL     1      24.684   3.063  50.704  1.00  0.00    -0.386 OA
HETATM   16  C16 UNL     1      23.799   2.439  51.543  1.00  0.00     0.215 C 
HETATM   17  C17 UNL     1      22.417   3.108  51.516  1.00  0.00     0.225 C 
HETATM   18  O3  UNL     1      21.618   2.391  52.361  1.00  0.00    -0.356 OA
HETATM   19  C18 UNL     1      20.616   1.639  51.762  1.00  0.00     0.195 C 
HETATM   20  C19 UNL     1      19.544   2.482  51.213  1.00  0.00     0.071 C 
ENDROOT
BRANCH   1  21
HETATM   21  N1  UNL     1      20.912   0.555  54.004  1.00  0.00    -0.373 N 
HETATM   22  H5  UNL     1      21.053   1.475  54.519  1.00  0.00     0.161 HD
BRANCH  21  23
HETATM   23  C6  UNL     1      21.395  -0.728  54.538  1.00  0.00     0.149 C 
BRANCH  23  24
HETATM   24  C5  UNL     1      22.870  -0.677  54.497  1.00  0.00     0.001 C 
HETATM   25  C4  UNL     1      23.626  -0.578  53.421  1.00  0.00     0.062 C 
BRANCH  25  26
HETATM   26  C3  UNL     1      25.066  -0.535  53.492  1.00  0.00    -0.070 C 
HETATM   27  C2  UNL     1      26.271  -0.512  53.544  1.00  0.00     0.013 C 
BRANCH  27  28
HETATM   28  C1  UNL     1      27.737  -0.482  53.581  1.00  0.00     0.459 C 
HETATM   29  F1  UNL     1      28.137  -0.292  54.910  1.00  0.00    -0.159 F 
HETATM   30  F2  UNL     1      28.211   0.521  52.790  1.00  0.00    -0.159 F 
HETATM   31  F3  UNL     1      28.268  -1.686  53.162  1.00  0.00    -0.159 F 
ENDBRANCH  27  28
ENDBRANCH  25  26
ENDBRANCH  23  24
ENDBRANCH  21  23
ENDBRANCH   1  21
TORSDOF 5
ENDMDL
MODEL 8
REMARK VINA RESULT:      -7.8      2.041      2.345
REMARK  5 active torsions:
REMARK  status: ('A' for Active; 'I' for Inactive)
REMARK    1  A    between atoms: C1_2  and  C2_5 
REMARK    2  A    between atoms: C3_6  and  C4_7 
REMARK    3  A    between atoms: C5_8  and  C6_9 
REMARK    4  A    between atoms: C6_9  and  N1_10 
REMARK    5  A    between atoms: N1_10  and  C7_11 
ROOT
HETATM    1  C7  UNL     1      24.636   4.123  50.685  1.00  0.00     0.130 C 
HETATM    2  N2  UNL     1      24.179   5.355  50.689  1.00  0.00    -0.227 NA
HETATM    3  C8  UNL     1      23.076   5.717  51.552  1.00  0.00     0.229 C 
HETATM    4  N3  UNL     1      22.190   4.963  52.165  1.00  0.00    -0.274 NA
HETATM    5  C9  UNL     1      22.009   3.575  51.737  1.00  0.00     0.136 C 
HETATM    6  C10 UNL     1      20.758   2.996  52.281  1.00  0.00     0.024 C 
HETATM    7  C11 UNL     1      20.486   1.915  52.946  1.00  0.00     0.133 C 
HETATM    8  O1  UNL     1      21.438   1.014  53.299  1.00  0.00    -0.359 OA
HETATM    9  C12 UNL     1      21.328  -0.351  53.526  1.00  0.00     0.204 C 
HETATM   10  C13 UNL     1      22.625  -0.991  53.883  1.00  0.00     0.028 C 
HETATM   11  P1  UNL     1      24.215  -0.582  53.859  1.00  0.00     0.030 P 
HETATM   12  N4  UNL     1      24.917   0.984  53.316  1.00  0.00    -0.252 NA
HETATM   13  C14 UNL     1      25.946   1.243  54.314  1.00  0.00     0.124 C 
HETATM   14  C15 UNL     1      26.914   0.077  54.262  1.00  0.00     0.182 C 
HETATM   15  O2  UNL     1      27.560   0.118  53.045  1.00  0.00    -0.386 OA
HETATM   16  C16 UNL     1      27.072   1.030  52.145  1.00  0.00     0.215 C 
HETATM   17  C17 UNL     1      25.542   0.962  52.036  1.00  0.00     0.225 C 
HETATM   18  O3  UNL     1      25.170   1.926  51.140  1.00  0.00    -0.356 OA
HETATM   19  C18 UNL     1      24.498   3.021  51.666  1.00  0.00     0.195 C 
HETATM   20  C19 UNL     1      23.136   2.679  52.099  1.00  0.00     0.071 C 
ENDROOT
BRANCH   1  21
HETATM   21  N1  UNL     1      25.398   3.867  49.483  1.00  0.00    -0.373 N 
HETATM   22  H5  UNL     1      24.860   3.633  48.597  1.00  0.00     0.161 HD
BRANCH  21  23
HETATM   23  C6  UNL     1      26.867   3.936  49.517  1.00  0.00     0.149 C 
BRANCH  23  24
HETATM   24  C5  UNL     1      27.260   5.073  48.661  1.00  0.00     0.001 C 
HETATM   25  C4  UNL     1      28.485   5.511  48.446  1.00  0.00     0.062 C 
BRANCH  25  26
HETATM   26  C3  UNL     1      28.761   6.636  47.586  1.00  0.00    -0.070 C 
HETATM   27  C2  UNL     1      28.984   7.585  46.877  1.00  0.00     0.013 C 
BRANCH  27  28
HETATM   28  C1  UNL     1      29.268   8.752  46.033  1.00  0.00     0.459 C 
HETATM   29  F1  UNL     1      29.445   8.307  44.717  1.00  0.00    -0.159 F 
HETATM   30  F2  UNL     1      30.384   9.396  46.476  1.00  0.00    -0.159 F 
HETATM   31  F3  UNL     1      28.203   9.631  46.028  1.00  0.00    -0.159 F 
ENDBRANCH  27  28
ENDBRANCH  25  26
ENDBRANCH  23  24
ENDBRANCH  21  23
ENDBRANCH   1  21
TORSDOF 5
ENDMDL
MODEL 9
REMARK VINA RESULT:      -7.7      4.735      6.558
REMARK  5 active torsions:
REMARK  status: ('A' for Active; 'I' for Inactive)
REMARK    1  A    between atoms: C1_2  and  C2_5 
REMARK    2  A    between atoms: C3_6  and  C4_7 
REMARK    3  A    between atoms: C5_8  and  C6_9 
REMARK    4  A    between atoms: C6_9  and  N1_10 
REMARK    5  A    between atoms: N1_10  and  C7_11 
ROOT
HETATM    1  C7  UNL     1      24.562   3.507  51.521  1.00  0.00     0.130 C 
HETATM    2  N2  UNL     1      25.764   3.498  50.994  1.00  0.00    -0.227 NA
HETATM    3  C8  UNL     1      26.568   2.296  51.041  1.00  0.00     0.229 C 
HETATM    4  N3  UNL     1      26.457   1.224  51.796  1.00  0.00    -0.274 NA
HETATM    5  C9  UNL     1      25.633   1.280  53.005  1.00  0.00     0.136 C 
HETATM    6  C10 UNL     1      25.899   0.128  53.899  1.00  0.00     0.024 C 
HETATM    7  C11 UNL     1      25.141  -0.758  54.469  1.00  0.00     0.133 C 
HETATM    8  O1  UNL     1      23.792  -0.773  54.317  1.00  0.00    -0.359 OA
HETATM    9  C12 UNL     1      22.808  -1.251  55.171  1.00  0.00     0.204 C 
HETATM   10  C13 UNL     1      21.429  -1.066  54.638  1.00  0.00     0.028 C 
HETATM   11  P1  UNL     1      20.715  -0.238  53.413  1.00  0.00     0.030 P 
HETATM   12  N4  UNL     1      21.531   0.823  52.209  1.00  0.00    -0.252 NA
HETATM   13  C14 UNL     1      20.861   0.477  50.963  1.00  0.00     0.124 C 
HETATM   14  C15 UNL     1      19.387   0.776  51.156  1.00  0.00     0.182 C 
HETATM   15  O2  UNL     1      19.248   2.142  51.286  1.00  0.00    -0.386 OA
HETATM   16  C16 UNL     1      20.416   2.850  51.395  1.00  0.00     0.215 C 
HETATM   17  C17 UNL     1      21.371   2.223  52.420  1.00  0.00     0.225 C 
HETATM   18  O3  UNL     1      22.501   2.991  52.423  1.00  0.00    -0.356 OA
HETATM   19  C18 UNL     1      23.638   2.405  51.881  1.00  0.00     0.195 C 
HETATM   20  C19 UNL     1      24.173   1.338  52.739  1.00  0.00     0.071 C 
ENDROOT
BRANCH   1  21
HETATM   21  N1  UNL     1      24.123   4.863  51.766  1.00  0.00    -0.373 N 
HETATM   22  H5  UNL     1      23.738   5.091  52.730  1.00  0.00     0.161 HD
BRANCH  21  23
HETATM   23  C6  UNL     1      24.219   5.870  50.697  1.00  0.00     0.149 C 
BRANCH  23  24
HETATM   24  C5  UNL     1      23.278   5.455  49.637  1.00  0.00     0.001 C 
HETATM   25  C4  UNL     1      23.549   5.317  48.354  1.00  0.00     0.062 C 
BRANCH  25  26
HETATM   26  C3  UNL     1      22.552   4.904  47.397  1.00  0.00    -0.070 C 
HETATM   27  C2  UNL     1      21.719   4.545  46.602  1.00  0.00     0.013 C 
BRANCH  27  28
HETATM   28  C1  UNL     1      20.693   4.099  45.652  1.00  0.00     0.459 C 
HETATM   29  F1  UNL     1      19.988   5.225  45.209  1.00  0.00    -0.159 F 
HETATM   30  F2  UNL     1      19.851   3.210  46.249  1.00  0.00    -0.159 F 
HETATM   31  F3  UNL     1      21.267   3.512  44.541  1.00  0.00    -0.159 F 
ENDBRANCH  27  28
ENDBRANCH  25  26
ENDBRANCH  23  24
ENDBRANCH  21  23
ENDBRANCH   1  21
TORSDOF 5
ENDMDL
