MODEL 1
REMARK VINA RESULT:      -7.8      0.000      0.000
REMARK  4 active torsions:
REMARK  status: ('A' for Active; 'I' for Inactive)
REMARK       I    between atoms: C1_2  and  N1_3 
REMARK       I    between atoms: C1_2  and  N3_10 
REMARK    1  A    between atoms: N1_3  and  C2_4 
REMARK    2  A    between atoms: N3_10  and  C7_11 
REMARK    3  A    between atoms: C10_15  and  C11_16 
REMARK    4  A    between atoms: C11_16  and  P1_17 
ROOT
HETATM    1  C7  UNL     1      22.648  -0.613  53.814  1.00  0.00     0.116 C 
HETATM    2  C8  UNL     1      21.547  -1.391  54.454  1.00  0.00     0.047 C 
HETATM    3  C9  UNL     1      20.357  -1.089  53.531  1.00  0.00     0.127 C 
HETATM    4  N4  UNL     1      20.766   0.042  52.749  1.00  0.00    -0.362 N 
HETATM    5  C10 UNL     1      20.157   0.572  51.581  1.00  0.00     0.078 C 
HETATM    6  C12 UNL     1      20.624   1.558  50.564  1.00  0.00     0.046 C 
HETATM    7  C13 UNL     1      21.913   2.001  50.684  1.00  0.00    -0.043 C 
HETATM    8  C14 UNL     1      23.163   1.274  51.117  1.00  0.00     0.035 C 
HETATM    9  C15 UNL     1      22.729   1.501  52.394  1.00  0.00     0.041 C 
HETATM   10  N5  UNL     1      22.980   2.827  52.970  1.00  0.00    -0.332 N 
HETATM   11  S1  UNL     1      22.867   4.173  51.776  1.00  0.00    -0.051 SA
HETATM   12  C16 UNL     1      21.964   3.483  50.320  1.00  0.00     0.136 C 
HETATM   13  C17 UNL     1      21.977   0.614  53.351  1.00  0.00     0.158 C 
HETATM   14  H15 UNL     1      23.190   2.858  54.005  1.00  0.00     0.174 HD
ENDROOT
BRANCH   1  15
HETATM   15  N3  UNL     1      23.796  -0.410  54.666  1.00  0.00    -0.336 N 
HETATM   16  C1  UNL     1      25.087  -0.522  54.046  1.00  0.00     0.322 C 
HETATM   17  O1  UNL     1      25.216  -0.778  52.842  1.00  0.00    -0.247 OA
HETATM   18  N1  UNL     1      26.244  -0.329  54.854  1.00  0.00    -0.293 N 
HETATM   19  H1  UNL     1      26.097  -0.112  55.878  1.00  0.00     0.172 HD
HETATM   20  H6  UNL     1      23.641  -0.196  55.680  1.00  0.00     0.164 HD
BRANCH  18  21
HETATM   21  C2  UNL     1      27.561  -0.427  54.295  1.00  0.00     0.131 A 
HETATM   22  C3  UNL     1      28.226   0.800  54.347  1.00  0.00     0.050 A 
HETATM   23  C4  UNL     1      29.511   0.927  53.861  1.00  0.00     0.005 A 
HETATM   24  C5  UNL     1      30.169  -0.159  53.310  1.00  0.00     0.019 A 
HETATM   25  C6  UNL     1      29.437  -1.333  53.298  1.00  0.00     0.119 A 
HETATM   26  N2  UNL     1      28.193  -1.487  53.760  1.00  0.00    -0.243 NA
ENDBRANCH  18  21
ENDBRANCH   1  15
BRANCH   5  27
HETATM   27  C11 UNL     1      18.957   0.124  51.338  1.00  0.00    -0.093 C 
BRANCH  27  28
HETATM   28  P1  UNL     1      17.309  -0.091  51.280  1.00  0.00    -0.015 P 
HETATM   29  H12 UNL     1      16.826  -1.476  51.425  1.00  0.00     0.076 HD
ENDBRANCH  27  28
ENDBRANCH   5  27
TORSDOF 4
ENDMDL
MODEL 2
REMARK VINA RESULT:      -7.8      4.362      5.889
REMARK  4 active torsions:
REMARK  status: ('A' for Active; 'I' for Inactive)
REMARK       I    between atoms: C1_2  and  N1_3 
REMARK       I    between atoms: C1_2  and  N3_10 
REMARK    1  A    between atoms: N1_3  and  C2_4 
REMARK    2  A    between atoms: N3_10  and  C7_11 
REMARK    3  A    between atoms: C10_15  and  C11_16 
REMARK    4  A    between atoms: C11_16  and  P1_17 
ROOT
HETATM    1  C7  UNL     1      24.349   4.300  50.533  1.00  0.00     0.116 C 
HETATM    2  C8  UNL     1      22.904   3.942  50.439  1.00  0.00     0.047 C 
HETATM    3  C9  UNL     1      22.449   4.746  49.213  1.00  0.00     0.127 C 
HETATM    4  N4  UNL     1      23.494   5.702  48.983  1.00  0.00    -0.362 N 
HETATM    5  C10 UNL     1      23.704   6.520  47.840  1.00  0.00     0.078 C 
HETATM    6  C12 UNL     1      24.866   7.340  47.392  1.00  0.00     0.046 C 
HETATM    7  C13 UNL     1      26.006   7.253  48.145  1.00  0.00    -0.043 C 
HETATM    8  C14 UNL     1      26.620   6.075  48.861  1.00  0.00     0.035 C 
HETATM    9  C15 UNL     1      25.717   6.340  49.854  1.00  0.00     0.041 C 
HETATM   10  N5  UNL     1      26.039   7.420  50.794  1.00  0.00    -0.332 N 
HETATM   11  S1  UNL     1      26.911   8.806  50.041  1.00  0.00    -0.051 SA
HETATM   12  C16 UNL     1      26.657   8.632  48.219  1.00  0.00     0.136 C 
HETATM   13  C17 UNL     1      24.376   5.723  50.156  1.00  0.00     0.158 C 
HETATM   14  H15 UNL     1      25.726   7.282  51.794  1.00  0.00     0.174 HD
ENDROOT
BRANCH   1  15
HETATM   15  N3  UNL     1      24.952   3.982  51.807  1.00  0.00    -0.336 N 
HETATM   16  C1  UNL     1      25.794   2.819  51.849  1.00  0.00     0.322 C 
HETATM   17  O1  UNL     1      25.997   2.119  50.849  1.00  0.00    -0.247 OA
HETATM   18  N1  UNL     1      26.406   2.472  53.088  1.00  0.00    -0.293 N 
HETATM   19  H1  UNL     1      26.210   3.091  53.922  1.00  0.00     0.172 HD
HETATM   20  H6  UNL     1      24.752   4.601  52.628  1.00  0.00     0.164 HD
BRANCH  18  21
HETATM   21  C2  UNL     1      27.256   1.323  53.197  1.00  0.00     0.131 A 
HETATM   22  C3  UNL     1      28.560   1.689  53.540  1.00  0.00     0.050 A 
HETATM   23  C4  UNL     1      29.542   0.732  53.697  1.00  0.00     0.005 A 
HETATM   24  C5  UNL     1      29.257  -0.610  53.516  1.00  0.00     0.019 A 
HETATM   25  C6  UNL     1      27.944  -0.882  53.178  1.00  0.00     0.119 A 
HETATM   26  N2  UNL     1      26.972   0.021  53.019  1.00  0.00    -0.243 NA
ENDBRANCH  18  21
ENDBRANCH   1  15
BRANCH   5  27
HETATM   27  C11 UNL     1      22.696   6.578  47.016  1.00  0.00    -0.093 C 
BRANCH  27  28
HETATM   28  P1  UNL     1      21.643   6.328  45.752  1.00  0.00    -0.015 P 
HETATM   29  H12 UNL     1      21.199   7.531  45.025  1.00  0.00     0.076 HD
ENDBRANCH  27  28
ENDBRANCH   5  27
TORSDOF 4
ENDMDL
MODEL 3
REMARK VINA RESULT:      -7.7      3.621      4.864
REMARK  4 active torsions:
REMARK  status: ('A' for Active; 'I' for Inactive)
REMARK       I    between atoms: C1_2  and  N1_3 
REMARK       I    between atoms: C1_2  and  N3_10 
REMARK    1  A    between atoms: N1_3  and  C2_4 
REMARK    2  A    between atoms: N3_10  and  C7_11 
REMARK    3  A    between atoms: C10_15  and  C11_16 
REMARK    4  A    between atoms: C11_16  and  P1_17 
ROOT
HETATM    1  C7  UNL     1      23.367   4.112  51.794  1.00  0.00     0.116 C 
HETATM    2  C8  UNL     1      21.921   4.036  52.154  1.00  0.00     0.047 C 
HETATM    3  C9  UNL     1      21.251   4.717  50.952  1.00  0.00     0.127 C 
HETATM    4  N4  UNL     1      22.311   5.401  50.270  1.00  0.00    -0.362 N 
HETATM    5  C10 UNL     1      22.297   5.976  48.971  1.00  0.00     0.078 C 
HETATM    6  C12 UNL     1      23.384   6.473  48.080  1.00  0.00     0.046 C 
HETATM    7  C13 UNL     1      24.669   6.279  48.512  1.00  0.00    -0.043 C 
HETATM    8  C14 UNL     1      25.285   5.127  49.267  1.00  0.00     0.035 C 
HETATM    9  C15 UNL     1      24.760   5.713  50.386  1.00  0.00     0.041 C 
HETATM   10  N5  UNL     1      25.497   6.840  50.970  1.00  0.00    -0.332 N 
HETATM   11  S1  UNL     1      26.305   7.894  49.752  1.00  0.00    -0.051 SA
HETATM   12  C16 UNL     1      25.508   7.497  48.133  1.00  0.00     0.136 C 
HETATM   13  C17 UNL     1      23.491   5.428  51.144  1.00  0.00     0.158 C 
HETATM   14  H15 UNL     1      25.473   6.921  52.024  1.00  0.00     0.174 HD
ENDROOT
BRANCH   1  15
HETATM   15  N3  UNL     1      24.262   3.880  52.905  1.00  0.00    -0.336 N 
HETATM   16  C1  UNL     1      25.198   2.801  52.763  1.00  0.00     0.322 C 
HETATM   17  O1  UNL     1      25.243   2.100  51.744  1.00  0.00    -0.247 OA
HETATM   18  N1  UNL     1      26.097   2.540  53.837  1.00  0.00    -0.293 N 
HETATM   19  H1  UNL     1      26.032   3.158  54.693  1.00  0.00     0.172 HD
HETATM   20  H6  UNL     1      24.189   4.497  53.748  1.00  0.00     0.164 HD
BRANCH  18  21
HETATM   21  C2  UNL     1      27.056   1.478  53.758  1.00  0.00     0.131 A 
HETATM   22  C3  UNL     1      28.363   1.971  53.776  1.00  0.00     0.050 A 
HETATM   23  C4  UNL     1      29.441   1.113  53.709  1.00  0.00     0.005 A 
HETATM   24  C5  UNL     1      29.252  -0.255  53.623  1.00  0.00     0.019 A 
HETATM   25  C6  UNL     1      27.928  -0.657  53.612  1.00  0.00     0.119 A 
HETATM   26  N2  UNL     1      26.864   0.149  53.674  1.00  0.00    -0.243 NA
ENDBRANCH  18  21
ENDBRANCH   1  15
BRANCH   5  27
HETATM   27  C11 UNL     1      21.112   6.106  48.443  1.00  0.00    -0.093 C 
BRANCH  27  28
HETATM   28  P1  UNL     1      19.766   5.971  47.474  1.00  0.00    -0.015 P 
HETATM   29  H12 UNL     1      19.522   7.082  46.538  1.00  0.00     0.076 HD
ENDBRANCH  27  28
ENDBRANCH   5  27
TORSDOF 4
ENDMDL
MODEL 4
REMARK VINA RESULT:      -7.6      2.112      2.885
REMARK  4 active torsions:
REMARK  status: ('A' for Active; 'I' for Inactive)
REMARK       I    between atoms: C1_2  and  N1_3 
REMARK       I    between atoms: C1_2  and  N3_10 
REMARK    1  A    between atoms: N1_3  and  C2_4 
REMARK    2  A    between atoms: N3_10  and  C7_11 
REMARK    3  A    between atoms: C10_15  and  C11_16 
REMARK    4  A    between atoms: C11_16  and  P1_17 
ROOT
HETATM    1  C7  UNL     1      23.049   1.683  52.100  1.00  0.00     0.116 C 
HETATM    2  C8  UNL     1      21.662   1.253  52.445  1.00  0.00     0.047 C 
HETATM    3  C9  UNL     1      20.845   1.825  51.277  1.00  0.00     0.127 C 
HETATM    4  N4  UNL     1      21.713   2.774  50.641  1.00  0.00    -0.362 N 
HETATM    5  C10 UNL     1      21.557   3.401  49.376  1.00  0.00     0.078 C 
HETATM    6  C12 UNL     1      22.494   4.185  48.522  1.00  0.00     0.046 C 
HETATM    7  C13 UNL     1      23.791   4.272  48.952  1.00  0.00    -0.043 C 
HETATM    8  C14 UNL     1      24.663   3.254  49.646  1.00  0.00     0.035 C 
HETATM    9  C15 UNL     1      24.023   3.639  50.792  1.00  0.00     0.041 C 
HETATM   10  N5  UNL     1      24.481   4.872  51.443  1.00  0.00    -0.332 N 
HETATM   11  S1  UNL     1      25.014   6.151  50.291  1.00  0.00    -0.051 SA
HETATM   12  C16 UNL     1      24.322   5.670  48.647  1.00  0.00     0.136 C 
HETATM   13  C17 UNL     1      22.859   3.025  51.524  1.00  0.00     0.158 C 
HETATM   14  H15 UNL     1      24.445   4.886  52.499  1.00  0.00     0.174 HD
ENDROOT
BRANCH   1  15
HETATM   15  N3  UNL     1      23.979   1.604  53.202  1.00  0.00    -0.336 N 
HETATM   16  C1  UNL     1      25.220   0.926  52.950  1.00  0.00     0.322 C 
HETATM   17  O1  UNL     1      25.486   0.432  51.848  1.00  0.00    -0.247 OA
HETATM   18  N1  UNL     1      26.164   0.827  54.013  1.00  0.00    -0.293 N 
HETATM   19  H1  UNL     1      25.905   1.260  54.942  1.00  0.00     0.172 HD
HETATM   20  H6  UNL     1      23.713   2.035  54.118  1.00  0.00     0.164 HD
BRANCH  18  21
HETATM   21  C2  UNL     1      27.421   0.163  53.826  1.00  0.00     0.131 A 
HETATM   22  C3  UNL     1      28.484   1.068  53.873  1.00  0.00     0.050 A 
HETATM   23  C4  UNL     1      29.785   0.636  53.716  1.00  0.00     0.005 A 
HETATM   24  C5  UNL     1      30.065  -0.703  53.508  1.00  0.00     0.019 A 
HETATM   25  C6  UNL     1      28.955  -1.528  53.476  1.00  0.00     0.119 A 
HETATM   26  N2  UNL     1      27.685  -1.140  53.624  1.00  0.00    -0.243 NA
ENDBRANCH  18  21
ENDBRANCH   1  15
BRANCH   5  27
HETATM   27  C11 UNL     1      20.371   3.280  48.848  1.00  0.00    -0.093 C 
BRANCH  27  28
HETATM   28  P1  UNL     1      19.045   3.381  47.850  1.00  0.00    -0.015 P 
HETATM   29  H12 UNL     1      17.907   4.171  48.354  1.00  0.00     0.076 HD
ENDBRANCH  27  28
ENDBRANCH   5  27
TORSDOF 4
ENDMDL
MODEL 5
REMARK VINA RESULT:      -7.3      5.589      7.454
REMARK  4 active torsions:
REMARK  status: ('A' for Active; 'I' for Inactive)
REMARK       I    between atoms: C1_2  and  N1_3 
REMARK       I    between atoms: C1_2  and  N3_10 
REMARK    1  A    between atoms: N1_3  and  C2_4 
REMARK    2  A    between atoms: N3_10  and  C7_11 
REMARK    3  A    between atoms: C10_15  and  C11_16 
REMARK    4  A    between atoms: C11_16  and  P1_17 
ROOT
HETATM    1  C7  UNL     1      24.580   5.368  49.507  1.00  0.00     0.116 C 
HETATM    2  C8  UNL     1      23.148   5.305  49.095  1.00  0.00     0.047 C 
HETATM    3  C9  UNL     1      23.126   6.208  47.854  1.00  0.00     0.127 C 
HETATM    4  N4  UNL     1      24.358   6.943  47.904  1.00  0.00    -0.362 N 
HETATM    5  C10 UNL     1      24.959   7.726  46.882  1.00  0.00     0.078 C 
HETATM    6  C12 UNL     1      26.323   8.310  46.735  1.00  0.00     0.046 C 
HETATM    7  C13 UNL     1      27.238   7.984  47.700  1.00  0.00    -0.043 C 
HETATM    8  C14 UNL     1      27.450   6.693  48.453  1.00  0.00     0.035 C 
HETATM    9  C15 UNL     1      26.422   7.110  49.253  1.00  0.00     0.041 C 
HETATM   10  N5  UNL     1      26.733   8.087  50.304  1.00  0.00    -0.332 N 
HETATM   11  S1  UNL     1      27.992   9.287  49.834  1.00  0.00    -0.051 SA
HETATM   12  C16 UNL     1      28.107   9.205  47.992  1.00  0.00     0.136 C 
HETATM   13  C17 UNL     1      24.955   6.766  49.233  1.00  0.00     0.158 C 
HETATM   14  H15 UNL     1      26.192   7.992  51.207  1.00  0.00     0.174 HD
ENDROOT
BRANCH   1  15
HETATM   15  N3  UNL     1      24.825   4.911  50.856  1.00  0.00    -0.336 N 
HETATM   16  C1  UNL     1      25.243   3.546  51.007  1.00  0.00     0.322 C 
HETATM   17  O1  UNL     1      25.388   2.792  50.037  1.00  0.00    -0.247 OA
HETATM   18  N1  UNL     1      25.493   3.058  52.322  1.00  0.00    -0.293 N 
HETATM   19  H1  UNL     1      25.358   3.728  53.129  1.00  0.00     0.172 HD
HETATM   20  H6  UNL     1      24.688   5.583  51.648  1.00  0.00     0.164 HD
BRANCH  18  21
HETATM   21  C2  UNL     1      25.913   1.704  52.542  1.00  0.00     0.131 A 
HETATM   22  C3  UNL     1      24.850   0.908  52.976  1.00  0.00     0.050 A 
HETATM   23  C4  UNL     1      25.038  -0.432  53.246  1.00  0.00     0.005 A 
HETATM   24  C5  UNL     1      26.283  -1.016  53.093  1.00  0.00     0.019 A 
HETATM   25  C6  UNL     1      27.276  -0.157  52.660  1.00  0.00     0.119 A 
HETATM   26  N2  UNL     1      27.126   1.144  52.391  1.00  0.00    -0.243 NA
ENDBRANCH  18  21
ENDBRANCH   1  15
BRANCH   5  27
HETATM   27  C11 UNL     1      24.180   8.000  45.873  1.00  0.00    -0.093 C 
BRANCH  27  28
HETATM   28  P1  UNL     1      23.533   8.176  44.351  1.00  0.00    -0.015 P 
HETATM   29  H12 UNL     1      23.932   7.169  43.351  1.00  0.00     0.076 HD
ENDBRANCH  27  28
ENDBRANCH   5  27
TORSDOF 4
ENDMDL
MODEL 6
REMARK VINA RESULT:      -7.1      5.481      7.636
REMARK  4 active torsions:
REMARK  status: ('A' for Active; 'I' for Inactive)
REMARK       I    between atoms: C1_2  and  N1_3 
REMARK       I    between atoms: C1_2  and  N3_10 
REMARK    1  A    between atoms: N1_3  and  C2_4 
REMARK    2  A    between atoms: N3_10  and  C7_11 
REMARK    3  A    between atoms: C10_15  and  C11_16 
REMARK    4  A    between atoms: C11_16  and  P1_17 
ROOT
HETATM    1  C7  UNL     1      23.366   6.666  50.765  1.00  0.00     0.116 C 
HETATM    2  C8  UNL     1      21.995   7.232  50.929  1.00  0.00     0.047 C 
HETATM    3  C9  UNL     1      21.900   8.201  49.742  1.00  0.00     0.127 C 
HETATM    4  N4  UNL     1      23.249   8.367  49.284  1.00  0.00    -0.362 N 
HETATM    5  C10 UNL     1      23.703   8.951  48.071  1.00  0.00     0.078 C 
HETATM    6  C12 UNL     1      25.029   8.947  47.389  1.00  0.00     0.046 C 
HETATM    7  C13 UNL     1      26.008   8.174  47.952  1.00  0.00    -0.043 C 
HETATM    8  C14 UNL     1      25.923   6.832  48.636  1.00  0.00     0.035 C 
HETATM    9  C15 UNL     1      25.531   7.535  49.742  1.00  0.00     0.041 C 
HETATM   10  N5  UNL     1      26.579   8.178  50.544  1.00  0.00    -0.332 N 
HETATM   11  S1  UNL     1      27.956   8.814  49.571  1.00  0.00    -0.051 SA
HETATM   12  C16 UNL     1      27.345   8.900  47.829  1.00  0.00     0.136 C 
HETATM   13  C17 UNL     1      24.159   7.815  50.296  1.00  0.00     0.158 C 
HETATM   14  H15 UNL     1      26.419   8.208  51.588  1.00  0.00     0.174 HD
ENDROOT
BRANCH   1  15
HETATM   15  N3  UNL     1      23.872   6.000  51.943  1.00  0.00    -0.336 N 
HETATM   16  C1  UNL     1      23.905   4.565  51.909  1.00  0.00     0.322 C 
HETATM   17  O1  UNL     1      23.521   3.923  50.923  1.00  0.00    -0.247 OA
HETATM   18  N1  UNL     1      24.396   3.872  53.052  1.00  0.00    -0.293 N 
HETATM   19  H1  UNL     1      24.716   4.451  53.877  1.00  0.00     0.172 HD
HETATM   20  H6  UNL     1      24.185   6.583  52.756  1.00  0.00     0.164 HD
BRANCH  18  21
HETATM   21  C2  UNL     1      24.456   2.440  53.081  1.00  0.00     0.131 A 
HETATM   22  C3  UNL     1      25.776   1.986  53.027  1.00  0.00     0.050 A 
HETATM   23  C4  UNL     1      26.058   0.636  53.044  1.00  0.00     0.005 A 
HETATM   24  C5  UNL     1      25.039  -0.299  53.113  1.00  0.00     0.019 A 
HETATM   25  C6  UNL     1      23.765   0.237  53.163  1.00  0.00     0.119 A 
HETATM   26  N2  UNL     1      23.460   1.538  53.148  1.00  0.00    -0.243 NA
ENDBRANCH  18  21
ENDBRANCH   1  15
BRANCH   5  27
HETATM   27  C11 UNL     1      22.800   9.627  47.418  1.00  0.00    -0.093 C 
BRANCH  27  28
HETATM   28  P1  UNL     1      22.013  10.673  46.392  1.00  0.00    -0.015 P 
HETATM   29  H12 UNL     1      20.618  11.001  46.737  1.00  0.00     0.076 HD
ENDBRANCH  27  28
ENDBRANCH   5  27
TORSDOF 4
ENDMDL
MODEL 7
REMARK VINA RESULT:      -6.8     25.285     26.120
REMARK  4 active torsions:
REMARK  status: ('A' for Active; 'I' for Inactive)
REMARK       I    between atoms: C1_2  and  N1_3 
REMARK       I    between atoms: C1_2  and  N3_10 
REMARK    1  A    between atoms: N1_3  and  C2_4 
REMARK    2  A    between atoms: N3_10  and  C7_11 
REMARK    3  A    between atoms: C10_15  and  C11_16 
REMARK    4  A    between atoms: C11_16  and  P1_17 
ROOT
HETATM    1  C7  UNL     1      44.539   4.237  67.275  1.00  0.00     0.116 C 
HETATM    2  C8  UNL     1      44.427   2.770  67.522  1.00  0.00     0.047 C 
HETATM    3  C9  UNL     1      43.374   2.709  68.639  1.00  0.00     0.127 C 
HETATM    4  N4  UNL     1      43.284   4.049  69.143  1.00  0.00    -0.362 N 
HETATM    5  C10 UNL     1      42.297   4.603  70.001  1.00  0.00     0.078 C 
HETATM    6  C12 UNL     1      41.965   6.007  70.375  1.00  0.00     0.046 C 
HETATM    7  C13 UNL     1      42.657   6.995  69.728  1.00  0.00    -0.043 C 
HETATM    8  C14 UNL     1      43.137   7.080  68.300  1.00  0.00     0.035 C 
HETATM    9  C15 UNL     1      44.187   6.309  68.715  1.00  0.00     0.041 C 
HETATM   10  N5  UNL     1      45.292   6.983  69.409  1.00  0.00    -0.332 N 
HETATM   11  S1  UNL     1      44.767   8.350  70.459  1.00  0.00    -0.051 SA
HETATM   12  C16 UNL     1      42.951   8.122  70.715  1.00  0.00     0.136 C 
HETATM   13  C17 UNL     1      44.417   4.823  68.620  1.00  0.00     0.158 C 
HETATM   14  H15 UNL     1      46.261   6.601  69.230  1.00  0.00     0.174 HD
ENDROOT
BRANCH   1  15
HETATM   15  N3  UNL     1      45.719   4.620  66.534  1.00  0.00    -0.336 N 
HETATM   16  C1  UNL     1      45.521   5.500  65.416  1.00  0.00     0.322 C 
HETATM   17  O1  UNL     1      44.400   5.914  65.097  1.00  0.00    -0.247 OA
HETATM   18  N1  UNL     1      46.661   5.899  64.661  1.00  0.00    -0.293 N 
HETATM   19  H1  UNL     1      47.604   5.527  64.960  1.00  0.00     0.172 HD
HETATM   20  H6  UNL     1      46.648   4.246  66.839  1.00  0.00     0.164 HD
BRANCH  18  21
HETATM   21  C2  UNL     1      46.531   6.776  63.534  1.00  0.00     0.131 A 
HETATM   22  C3  UNL     1      46.359   6.056  62.349  1.00  0.00     0.050 A 
HETATM   23  C4  UNL     1      46.213   6.709  61.142  1.00  0.00     0.005 A 
HETATM   24  C5  UNL     1      46.235   8.091  61.079  1.00  0.00     0.019 A 
HETATM   25  C6  UNL     1      46.410   8.723  62.297  1.00  0.00     0.119 A 
HETATM   26  N2  UNL     1      46.554   8.119  63.480  1.00  0.00    -0.243 NA
ENDBRANCH  18  21
ENDBRANCH   1  15
BRANCH   5  27
HETATM   27  C11 UNL     1      41.526   3.728  70.584  1.00  0.00    -0.093 C 
BRANCH  27  28
HETATM   28  P1  UNL     1      40.268   2.716  70.984  1.00  0.00    -0.015 P 
HETATM   29  H12 UNL     1      39.287   3.243  71.949  1.00  0.00     0.076 HD
ENDBRANCH  27  28
ENDBRANCH   5  27
TORSDOF 4
ENDMDL
MODEL 8
REMARK VINA RESULT:      -6.7      2.734      3.953
REMARK  4 active torsions:
REMARK  status: ('A' for Active; 'I' for Inactive)
REMARK       I    between atoms: C1_2  and  N1_3 
REMARK       I    between atoms: C1_2  and  N3_10 
REMARK    1  A    between atoms: N1_3  and  C2_4 
REMARK    2  A    between atoms: N3_10  and  C7_11 
REMARK    3  A    between atoms: C10_15  and  C11_16 
REMARK    4  A    between atoms: C11_16  and  P1_17 
ROOT
HETATM    1  C7  UNL     1      24.435   3.566  51.608  1.00  0.00     0.116 C 
HETATM    2  C8  UNL     1      25.347   3.889  50.471  1.00  0.00     0.047 C 
HETATM    3  C9  UNL     1      24.373   3.970  49.286  1.00  0.00     0.127 C 
HETATM    4  N4  UNL     1      23.163   3.356  49.753  1.00  0.00    -0.362 N 
HETATM    5  C10 UNL     1      21.874   3.386  49.157  1.00  0.00     0.078 C 
HETATM    6  C12 UNL     1      20.523   3.013  49.667  1.00  0.00     0.046 C 
HETATM    7  C13 UNL     1      20.443   2.649  50.984  1.00  0.00    -0.043 C 
HETATM    8  C14 UNL     1      21.178   3.174  52.192  1.00  0.00     0.035 C 
HETATM    9  C15 UNL     1      22.201   2.356  51.798  1.00  0.00     0.041 C 
HETATM   10  N5  UNL     1      22.103   0.933  52.143  1.00  0.00    -0.332 N 
HETATM   11  S1  UNL     1      20.422   0.285  52.094  1.00  0.00    -0.051 SA
HETATM   12  C16 UNL     1      19.437   1.509  51.123  1.00  0.00     0.136 C 
HETATM   13  C17 UNL     1      23.449   2.650  51.008  1.00  0.00     0.158 C 
HETATM   14  H15 UNL     1      23.010   0.442  52.373  1.00  0.00     0.174 HD
ENDROOT
BRANCH   1  15
HETATM   15  N3  UNL     1      25.113   3.069  52.782  1.00  0.00    -0.336 N 
HETATM   16  C1  UNL     1      26.013   1.967  52.588  1.00  0.00     0.322 C 
HETATM   17  O1  UNL     1      26.204   1.463  51.474  1.00  0.00    -0.247 OA
HETATM   18  N1  UNL     1      26.701   1.448  53.723  1.00  0.00    -0.293 N 
HETATM   19  H1  UNL     1      26.514   1.902  54.660  1.00  0.00     0.172 HD
HETATM   20  H6  UNL     1      24.921   3.524  53.705  1.00  0.00     0.164 HD
BRANCH  18  21
HETATM   21  C2  UNL     1      27.613   0.349  53.597  1.00  0.00     0.131 A 
HETATM   22  C3  UNL     1      28.940   0.782  53.660  1.00  0.00     0.050 A 
HETATM   23  C4  UNL     1      29.980  -0.118  53.560  1.00  0.00     0.005 A 
HETATM   24  C5  UNL     1      29.733  -1.469  53.393  1.00  0.00     0.019 A 
HETATM   25  C6  UNL     1      28.393  -1.810  53.341  1.00  0.00     0.119 A 
HETATM   26  N2  UNL     1      27.364  -0.962  53.435  1.00  0.00    -0.243 NA
ENDBRANCH  18  21
ENDBRANCH   1  15
BRANCH   5  27
HETATM   27  C11 UNL     1      21.849   3.817  47.927  1.00  0.00    -0.093 C 
BRANCH  27  28
HETATM   28  P1  UNL     1      21.558   4.001  46.300  1.00  0.00    -0.015 P 
HETATM   29  H12 UNL     1      21.937   5.298  45.711  1.00  0.00     0.076 HD
ENDBRANCH  27  28
ENDBRANCH   5  27
TORSDOF 4
ENDMDL
MODEL 9
REMARK VINA RESULT:      -6.5      4.753      7.525
REMARK  4 active torsions:
REMARK  status: ('A' for Active; 'I' for Inactive)
REMARK       I    between atoms: C1_2  and  N1_3 
REMARK       I    between atoms: C1_2  and  N3_10 
REMARK    1  A    between atoms: N1_3  and  C2_4 
REMARK    2  A    between atoms: N3_10  and  C7_11 
REMARK    3  A    between atoms: C10_15  and  C11_16 
REMARK    4  A    between atoms: C11_16  and  P1_17 
ROOT
HETATM    1  C7  UNL     1      24.430   4.437  49.830  1.00  0.00     0.116 C 
HETATM    2  C8  UNL     1      25.841   4.400  49.344  1.00  0.00     0.047 C 
HETATM    3  C9  UNL     1      26.127   5.882  49.064  1.00  0.00     0.127 C 
HETATM    4  N4  UNL     1      24.840   6.516  49.049  1.00  0.00    -0.362 N 
HETATM    5  C10 UNL     1      24.541   7.905  49.083  1.00  0.00     0.078 C 
HETATM    6  C12 UNL     1      23.275   8.654  49.325  1.00  0.00     0.046 C 
HETATM    7  C13 UNL     1      22.178   7.911  49.672  1.00  0.00    -0.043 C 
HETATM    8  C14 UNL     1      22.064   6.675  50.530  1.00  0.00     0.035 C 
HETATM    9  C15 UNL     1      22.453   5.988  49.413  1.00  0.00     0.041 C 
HETATM   10  N5  UNL     1      21.430   5.705  48.400  1.00  0.00    -0.332 N 
HETATM   11  S1  UNL     1      20.205   7.014  48.216  1.00  0.00    -0.051 SA
HETATM   12  C16 UNL     1      20.942   8.511  49.007  1.00  0.00     0.136 C 
HETATM   13  C17 UNL     1      23.806   5.475  48.993  1.00  0.00     0.158 C 
HETATM   14  H15 UNL     1      21.518   4.785  47.888  1.00  0.00     0.174 HD
ENDROOT
BRANCH   1  15
HETATM   15  N3  UNL     1      23.772   3.151  49.821  1.00  0.00    -0.336 N 
HETATM   16  C1  UNL     1      23.296   2.662  51.085  1.00  0.00     0.322 C 
HETATM   17  O1  UNL     1      23.439   3.304  52.133  1.00  0.00    -0.247 OA
HETATM   18  N1  UNL     1      22.641   1.397  51.117  1.00  0.00    -0.293 N 
HETATM   19  H1  UNL     1      22.536   0.875  50.204  1.00  0.00     0.172 HD
HETATM   20  H6  UNL     1      23.673   2.641  48.911  1.00  0.00     0.164 HD
BRANCH  18  21
HETATM   21  C2  UNL     1      22.143   0.854  52.347  1.00  0.00     0.131 A 
HETATM   22  C3  UNL     1      23.072  -0.010  52.933  1.00  0.00     0.050 A 
HETATM   23  C4  UNL     1      22.792  -0.642  54.126  1.00  0.00     0.005 A 
HETATM   24  C5  UNL     1      21.583  -0.437  54.769  1.00  0.00     0.019 A 
HETATM   25  C6  UNL     1      20.724   0.432  54.120  1.00  0.00     0.119 A 
HETATM   26  N2  UNL     1      20.967   1.058  52.965  1.00  0.00    -0.243 NA
ENDBRANCH  18  21
ENDBRANCH   1  15
BRANCH   5  27
HETATM   27  C11 UNL     1      25.558   8.689  48.859  1.00  0.00    -0.093 C 
BRANCH  27  28
HETATM   28  P1  UNL     1      26.732   9.861  48.973  1.00  0.00    -0.015 P 
HETATM   29  H12 UNL     1      27.055  10.332  50.332  1.00  0.00     0.076 HD
ENDBRANCH  27  28
ENDBRANCH   5  27
TORSDOF 4
ENDMDL
