MODEL 1
REMARK VINA RESULT:      -8.0      0.000      0.000
REMARK  7 active torsions:
REMARK  status: ('A' for Active; 'I' for Inactive)
REMARK    1  A    between atoms: O1_2  and  C2_3 
REMARK    2  A    between atoms: C3_4  and  C4_5 
REMARK    3  A    between atoms: C4_5  and  C5_6 
REMARK    4  A    between atoms: C6_7  and  C7_8 
REMARK    5  A    between atoms: C10_13  and  N3_14 
REMARK    6  A    between atoms: N3_14  and  C11_15 
REMARK    7  A    between atoms: C11_15  and  C12_16 
ROOT
HETATM    1  C7  UNL     1      26.944   1.542  53.193  1.00  0.00     0.027 A 
HETATM    2  C8  UNL     1      28.075   2.253  53.516  1.00  0.00     0.133 A 
HETATM    3  N1  UNL     1      29.052   1.802  54.293  1.00  0.00    -0.253 NA
HETATM    4  C9  UNL     1      28.939   0.547  54.815  1.00  0.00     0.234 A 
HETATM    5  N2  UNL     1      27.867  -0.172  54.531  1.00  0.00    -0.224 NA
HETATM    6  C10 UNL     1      26.903   0.299  53.752  1.00  0.00     0.136 A 
ENDROOT
BRANCH   6   7
HETATM    7  N3  UNL     1      25.793  -0.550  53.513  1.00  0.00    -0.370 N 
HETATM    8  H12 UNL     1      25.529  -1.111  52.675  1.00  0.00     0.161 HD
BRANCH   7   9
HETATM    9  C11 UNL     1      24.760  -0.806  54.458  1.00  0.00     0.160 C 
BRANCH   9  10
HETATM   10  C12 UNL     1      23.371  -0.631  53.926  1.00  0.00    -0.040 A 
HETATM   11  C13 UNL     1      22.418  -1.073  54.856  1.00  0.00     0.009 A 
HETATM   12  C14 UNL     1      21.071  -1.033  54.609  1.00  0.00     0.001 A 
HETATM   13  C15 UNL     1      20.584  -0.552  53.423  1.00  0.00     0.007 A 
HETATM   14  C16 UNL     1      21.539  -0.120  52.512  1.00  0.00    -0.061 A 
HETATM   15  C17 UNL     1      21.118   0.421  51.193  1.00  0.00     0.048 C 
HETATM   16  C18 UNL     1      22.879  -0.151  52.738  1.00  0.00     0.015 A 
ENDBRANCH   9  10
ENDBRANCH   7   9
ENDBRANCH   6   7
BRANCH   1  17
HETATM   17  C6  UNL     1      25.875   2.016  52.349  1.00  0.00     0.013 C 
HETATM   18  C5  UNL     1      25.810   2.564  51.159  1.00  0.00    -0.022 C 
BRANCH  18  19
HETATM   19  C4  UNL     1      26.546   3.041  49.981  1.00  0.00     0.056 C 
BRANCH  19  20
HETATM   20  C3  UNL     1      26.000   4.345  49.449  1.00  0.00     0.001 C 
HETATM   21  C2  UNL     1      26.776   5.252  48.835  1.00  0.00     0.130 C 
BRANCH  21  22
HETATM   22  O1  UNL     1      28.079   4.753  48.807  1.00  0.00    -0.368 OA
HETATM   23  C1  UNL     1      29.090   5.497  48.171  1.00  0.00     0.208 C 
ENDBRANCH  21  22
ENDBRANCH  19  20
ENDBRANCH  18  19
ENDBRANCH   1  17
TORSDOF 7
ENDMDL
MODEL 2
REMARK VINA RESULT:      -7.9      2.107      2.392
REMARK  7 active torsions:
REMARK  status: ('A' for Active; 'I' for Inactive)
REMARK    1  A    between atoms: O1_2  and  C2_3 
REMARK    2  A    between atoms: C3_4  and  C4_5 
REMARK    3  A    between atoms: C4_5  and  C5_6 
REMARK    4  A    between atoms: C6_7  and  C7_8 
REMARK    5  A    between atoms: C10_13  and  N3_14 
REMARK    6  A    between atoms: N3_14  and  C11_15 
REMARK    7  A    between atoms: C11_15  and  C12_16 
ROOT
HETATM    1  C7  UNL     1      27.066   1.381  53.072  1.00  0.00     0.027 A 
HETATM    2  C8  UNL     1      28.189   2.105  53.397  1.00  0.00     0.133 A 
HETATM    3  N1  UNL     1      29.091   1.733  54.299  1.00  0.00    -0.253 NA
HETATM    4  C9  UNL     1      28.902   0.553  54.956  1.00  0.00     0.234 A 
HETATM    5  N2  UNL     1      27.836  -0.176  54.674  1.00  0.00    -0.224 NA
HETATM    6  C10 UNL     1      26.949   0.215  53.770  1.00  0.00     0.136 A 
ENDROOT
BRANCH   6   7
HETATM    7  N3  UNL     1      25.837  -0.636  53.546  1.00  0.00    -0.370 N 
HETATM    8  H12 UNL     1      25.580  -1.224  52.724  1.00  0.00     0.161 HD
BRANCH   7   9
HETATM    9  C11 UNL     1      24.791  -0.855  54.486  1.00  0.00     0.160 C 
BRANCH   9  10
HETATM   10  C12 UNL     1      23.411  -0.654  53.941  1.00  0.00    -0.040 A 
HETATM   11  C13 UNL     1      22.441  -1.039  54.879  1.00  0.00     0.009 A 
HETATM   12  C14 UNL     1      21.097  -0.965  54.623  1.00  0.00     0.001 A 
HETATM   13  C15 UNL     1      20.630  -0.505  53.421  1.00  0.00     0.007 A 
HETATM   14  C16 UNL     1      21.602  -0.128  52.504  1.00  0.00    -0.061 A 
HETATM   15  C17 UNL     1      21.204   0.386  51.167  1.00  0.00     0.048 C 
HETATM   16  C18 UNL     1      22.940  -0.193  52.738  1.00  0.00     0.015 A 
ENDBRANCH   9  10
ENDBRANCH   7   9
ENDBRANCH   6   7
BRANCH   1  17
HETATM   17  C6  UNL     1      26.079   1.769  52.096  1.00  0.00     0.013 C 
HETATM   18  C5  UNL     1      24.990   2.499  52.123  1.00  0.00    -0.022 C 
BRANCH  18  19
HETATM   19  C4  UNL     1      24.078   3.323  52.928  1.00  0.00     0.056 C 
BRANCH  19  20
HETATM   20  C3  UNL     1      22.809   3.672  52.186  1.00  0.00     0.001 C 
HETATM   21  C2  UNL     1      22.567   4.907  51.718  1.00  0.00     0.130 C 
BRANCH  21  22
HETATM   22  O1  UNL     1      23.659   5.713  52.048  1.00  0.00    -0.368 OA
HETATM   23  C1  UNL     1      24.182   6.594  51.084  1.00  0.00     0.208 C 
ENDBRANCH  21  22
ENDBRANCH  19  20
ENDBRANCH  18  19
ENDBRANCH   1  17
TORSDOF 7
ENDMDL
MODEL 3
REMARK VINA RESULT:      -7.8      2.815      5.397
REMARK  7 active torsions:
REMARK  status: ('A' for Active; 'I' for Inactive)
REMARK    1  A    between atoms: O1_2  and  C2_3 
REMARK    2  A    between atoms: C3_4  and  C4_5 
REMARK    3  A    between atoms: C4_5  and  C5_6 
REMARK    4  A    between atoms: C6_7  and  C7_8 
REMARK    5  A    between atoms: C10_13  and  N3_14 
REMARK    6  A    between atoms: N3_14  and  C11_15 
REMARK    7  A    between atoms: C11_15  and  C12_16 
ROOT
HETATM    1  C7  UNL     1      26.978   0.413  53.317  1.00  0.00     0.027 A 
HETATM    2  C8  UNL     1      27.711   0.293  54.475  1.00  0.00     0.133 A 
HETATM    3  N1  UNL     1      28.678   1.125  54.844  1.00  0.00    -0.253 NA
HETATM    4  C9  UNL     1      28.975   2.176  54.027  1.00  0.00     0.234 A 
HETATM    5  N2  UNL     1      28.296   2.330  52.904  1.00  0.00    -0.224 NA
HETATM    6  C10 UNL     1      27.334   1.486  52.556  1.00  0.00     0.136 A 
ENDROOT
BRANCH   6   7
HETATM    7  N3  UNL     1      26.669   1.737  51.329  1.00  0.00    -0.370 N 
HETATM    8  H12 UNL     1      26.632   1.183  50.446  1.00  0.00     0.161 HD
BRANCH   7   9
HETATM    9  C11 UNL     1      25.868   2.884  51.068  1.00  0.00     0.160 C 
BRANCH   9  10
HETATM   10  C12 UNL     1      24.393   2.653  51.185  1.00  0.00    -0.040 A 
HETATM   11  C13 UNL     1      23.832   3.483  52.168  1.00  0.00     0.009 A 
HETATM   12  C14 UNL     1      22.499   3.459  52.481  1.00  0.00     0.001 A 
HETATM   13  C15 UNL     1      21.637   2.612  51.839  1.00  0.00     0.007 A 
HETATM   14  C16 UNL     1      22.206   1.797  50.869  1.00  0.00    -0.061 A 
HETATM   15  C17 UNL     1      21.359   0.838  50.111  1.00  0.00     0.048 C 
HETATM   16  C18 UNL     1      23.526   1.805  50.544  1.00  0.00     0.015 A 
ENDBRANCH   9  10
ENDBRANCH   7   9
ENDBRANCH   6   7
BRANCH   1  17
HETATM   17  C6  UNL     1      25.924  -0.480  52.903  1.00  0.00     0.013 C 
HETATM   18  C5  UNL     1      24.638  -0.568  53.145  1.00  0.00    -0.022 C 
BRANCH  18  19
HETATM   19  C4  UNL     1      23.475  -0.006  53.845  1.00  0.00     0.056 C 
BRANCH  19  20
HETATM   20  C3  UNL     1      22.776  -1.027  54.712  1.00  0.00     0.001 C 
HETATM   21  C2  UNL     1      21.521  -1.438  54.468  1.00  0.00     0.130 C 
BRANCH  21  22
HETATM   22  O1  UNL     1      21.061  -0.765  53.334  1.00  0.00    -0.368 OA
HETATM   23  C1  UNL     1      19.730  -0.314  53.291  1.00  0.00     0.208 C 
ENDBRANCH  21  22
ENDBRANCH  19  20
ENDBRANCH  18  19
ENDBRANCH   1  17
TORSDOF 7
ENDMDL
MODEL 4
REMARK VINA RESULT:      -7.3      3.661      6.798
REMARK  7 active torsions:
REMARK  status: ('A' for Active; 'I' for Inactive)
REMARK    1  A    between atoms: O1_2  and  C2_3 
REMARK    2  A    between atoms: C3_4  and  C4_5 
REMARK    3  A    between atoms: C4_5  and  C5_6 
REMARK    4  A    between atoms: C6_7  and  C7_8 
REMARK    5  A    between atoms: C10_13  and  N3_14 
REMARK    6  A    between atoms: N3_14  and  C11_15 
REMARK    7  A    between atoms: C11_15  and  C12_16 
ROOT
HETATM    1  C7  UNL     1      23.758   4.478  51.168  1.00  0.00     0.027 A 
HETATM    2  C8  UNL     1      22.734   5.158  50.551  1.00  0.00     0.133 A 
HETATM    3  N1  UNL     1      22.846   5.799  49.394  1.00  0.00    -0.253 NA
HETATM    4  C9  UNL     1      24.055   5.792  48.762  1.00  0.00     0.234 A 
HETATM    5  N2  UNL     1      25.067   5.151  49.320  1.00  0.00    -0.224 NA
HETATM    6  C10 UNL     1      24.933   4.516  50.476  1.00  0.00     0.136 A 
ENDROOT
BRANCH   6   7
HETATM    7  N3  UNL     1      26.081   3.864  50.992  1.00  0.00    -0.370 N 
HETATM    8  H12 UNL     1      26.741   4.139  51.751  1.00  0.00     0.161 HD
BRANCH   7   9
HETATM    9  C11 UNL     1      26.573   2.613  50.523  1.00  0.00     0.160 C 
BRANCH   9  10
HETATM   10  C12 UNL     1      26.760   1.579  51.588  1.00  0.00    -0.040 A 
HETATM   11  C13 UNL     1      27.075   2.177  52.818  1.00  0.00     0.009 A 
HETATM   12  C14 UNL     1      27.308   1.448  53.955  1.00  0.00     0.001 A 
HETATM   13  C15 UNL     1      27.244   0.081  53.945  1.00  0.00     0.007 A 
HETATM   14  C16 UNL     1      26.932  -0.497  52.721  1.00  0.00    -0.061 A 
HETATM   15  C17 UNL     1      26.837  -1.975  52.598  1.00  0.00     0.048 C 
HETATM   16  C18 UNL     1      26.697   0.208  51.582  1.00  0.00     0.015 A 
ENDBRANCH   9  10
ENDBRANCH   7   9
ENDBRANCH   6   7
BRANCH   1  17
HETATM   17  C6  UNL     1      23.654   3.775  52.422  1.00  0.00     0.013 C 
HETATM   18  C5  UNL     1      23.427   2.530  52.768  1.00  0.00    -0.022 C 
BRANCH  18  19
HETATM   19  C4  UNL     1      23.156   1.157  52.322  1.00  0.00     0.056 C 
BRANCH  19  20
HETATM   20  C3  UNL     1      23.393   0.139  53.412  1.00  0.00     0.001 C 
HETATM   21  C2  UNL     1      22.461  -0.757  53.775  1.00  0.00     0.130 C 
BRANCH  21  22
HETATM   22  O1  UNL     1      21.332  -0.546  52.982  1.00  0.00    -0.368 OA
HETATM   23  C1  UNL     1      20.057  -0.572  53.576  1.00  0.00     0.208 C 
ENDBRANCH  21  22
ENDBRANCH  19  20
ENDBRANCH  18  19
ENDBRANCH   1  17
TORSDOF 7
ENDMDL
MODEL 5
REMARK VINA RESULT:      -7.2      3.158      5.275
REMARK  7 active torsions:
REMARK  status: ('A' for Active; 'I' for Inactive)
REMARK    1  A    between atoms: O1_2  and  C2_3 
REMARK    2  A    between atoms: C3_4  and  C4_5 
REMARK    3  A    between atoms: C4_5  and  C5_6 
REMARK    4  A    between atoms: C6_7  and  C7_8 
REMARK    5  A    between atoms: C10_13  and  N3_14 
REMARK    6  A    between atoms: N3_14  and  C11_15 
REMARK    7  A    between atoms: C11_15  and  C12_16 
ROOT
HETATM    1  C7  UNL     1      26.315   3.736  50.069  1.00  0.00     0.027 A 
HETATM    2  C8  UNL     1      27.106   4.268  49.079  1.00  0.00     0.133 A 
HETATM    3  N1  UNL     1      27.000   5.509  48.616  1.00  0.00    -0.253 NA
HETATM    4  C9  UNL     1      26.045   6.322  49.151  1.00  0.00     0.234 A 
HETATM    5  N2  UNL     1      25.262   5.850  50.106  1.00  0.00    -0.224 NA
HETATM    6  C10 UNL     1      25.385   4.608  50.553  1.00  0.00     0.136 A 
ENDROOT
BRANCH   6   7
HETATM    7  N3  UNL     1      24.492   4.199  51.575  1.00  0.00    -0.370 N 
HETATM    8  H12 UNL     1      24.622   4.126  52.608  1.00  0.00     0.161 HD
BRANCH   7   9
HETATM    9  C11 UNL     1      23.150   3.782  51.351  1.00  0.00     0.160 C 
BRANCH   9  10
HETATM   10  C12 UNL     1      22.745   2.553  52.103  1.00  0.00    -0.040 A 
HETATM   11  C13 UNL     1      21.353   2.508  52.277  1.00  0.00     0.009 A 
HETATM   12  C14 UNL     1      20.726   1.489  52.945  1.00  0.00     0.001 A 
HETATM   13  C15 UNL     1      21.438   0.451  53.482  1.00  0.00     0.007 A 
HETATM   14  C16 UNL     1      22.814   0.510  53.302  1.00  0.00    -0.061 A 
HETATM   15  C17 UNL     1      23.683  -0.567  53.846  1.00  0.00     0.048 C 
HETATM   16  C18 UNL     1      23.456   1.511  52.643  1.00  0.00     0.015 A 
ENDBRANCH   9  10
ENDBRANCH   7   9
ENDBRANCH   6   7
BRANCH   1  17
HETATM   17  C6  UNL     1      26.417   2.393  50.585  1.00  0.00     0.013 C 
HETATM   18  C5  UNL     1      26.888   1.859  51.686  1.00  0.00    -0.022 C 
BRANCH  18  19
HETATM   19  C4  UNL     1      27.538   2.084  52.984  1.00  0.00     0.056 C 
BRANCH  19  20
HETATM   20  C3  UNL     1      27.029   1.146  54.054  1.00  0.00     0.001 C 
HETATM   21  C2  UNL     1      27.821   0.242  54.653  1.00  0.00     0.130 C 
BRANCH  21  22
HETATM   22  O1  UNL     1      29.100   0.362  54.107  1.00  0.00    -0.368 OA
HETATM   23  C1  UNL     1      29.780  -0.792  53.679  1.00  0.00     0.208 C 
ENDBRANCH  21  22
ENDBRANCH  19  20
ENDBRANCH  18  19
ENDBRANCH   1  17
TORSDOF 7
ENDMDL
MODEL 6
REMARK VINA RESULT:      -7.0      3.392      6.325
REMARK  7 active torsions:
REMARK  status: ('A' for Active; 'I' for Inactive)
REMARK    1  A    between atoms: O1_2  and  C2_3 
REMARK    2  A    between atoms: C3_4  and  C4_5 
REMARK    3  A    between atoms: C4_5  and  C5_6 
REMARK    4  A    between atoms: C6_7  and  C7_8 
REMARK    5  A    between atoms: C10_13  and  N3_14 
REMARK    6  A    between atoms: N3_14  and  C11_15 
REMARK    7  A    between atoms: C11_15  and  C12_16 
ROOT
HETATM    1  C7  UNL     1      22.744  -0.187  53.625  1.00  0.00     0.027 A 
HETATM    2  C8  UNL     1      22.841  -1.136  54.616  1.00  0.00     0.133 A 
HETATM    3  N1  UNL     1      21.838  -1.907  55.020  1.00  0.00    -0.253 NA
HETATM    4  C9  UNL     1      20.622  -1.758  54.420  1.00  0.00     0.234 A 
HETATM    5  N2  UNL     1      20.485  -0.857  53.463  1.00  0.00    -0.224 NA
HETATM    6  C10 UNL     1      21.500  -0.098  53.075  1.00  0.00     0.136 A 
ENDROOT
BRANCH   6   7
HETATM    7  N3  UNL     1      21.246   0.842  52.044  1.00  0.00    -0.370 N 
HETATM    8  H12 UNL     1      21.018   1.859  52.087  1.00  0.00     0.161 HD
BRANCH   7   9
HETATM    9  C11 UNL     1      21.263   0.535  50.654  1.00  0.00     0.160 C 
BRANCH   9  10
HETATM   10  C12 UNL     1      21.948   1.554  49.799  1.00  0.00    -0.040 A 
HETATM   11  C13 UNL     1      21.382   1.593  48.515  1.00  0.00     0.009 A 
HETATM   12  C14 UNL     1      21.836   2.434  47.534  1.00  0.00     0.001 A 
HETATM   13  C15 UNL     1      22.879   3.291  47.763  1.00  0.00     0.007 A 
HETATM   14  C16 UNL     1      23.429   3.241  49.037  1.00  0.00    -0.061 A 
HETATM   15  C17 UNL     1      24.566   4.130  49.393  1.00  0.00     0.048 C 
HETATM   16  C18 UNL     1      22.993   2.414  50.025  1.00  0.00     0.015 A 
ENDBRANCH   9  10
ENDBRANCH   7   9
ENDBRANCH   6   7
BRANCH   1  17
HETATM   17  C6  UNL     1      23.822   0.657  53.174  1.00  0.00     0.013 C 
HETATM   18  C5  UNL     1      25.131   0.584  53.211  1.00  0.00    -0.022 C 
BRANCH  18  19
HETATM   19  C4  UNL     1      26.311  -0.189  53.622  1.00  0.00     0.056 C 
BRANCH  19  20
HETATM   20  C3  UNL     1      27.152   0.542  54.642  1.00  0.00     0.001 C 
HETATM   21  C2  UNL     1      28.400   0.157  54.954  1.00  0.00     0.130 C 
BRANCH  21  22
HETATM   22  O1  UNL     1      28.706  -0.968  54.187  1.00  0.00    -0.368 OA
HETATM   23  C1  UNL     1      29.957  -1.049  53.547  1.00  0.00     0.208 C 
ENDBRANCH  21  22
ENDBRANCH  19  20
ENDBRANCH  18  19
ENDBRANCH   1  17
TORSDOF 7
ENDMDL
MODEL 7
REMARK VINA RESULT:      -6.9      2.934      5.146
REMARK  7 active torsions:
REMARK  status: ('A' for Active; 'I' for Inactive)
REMARK    1  A    between atoms: O1_2  and  C2_3 
REMARK    2  A    between atoms: C3_4  and  C4_5 
REMARK    3  A    between atoms: C4_5  and  C5_6 
REMARK    4  A    between atoms: C6_7  and  C7_8 
REMARK    5  A    between atoms: C10_13  and  N3_14 
REMARK    6  A    between atoms: N3_14  and  C11_15 
REMARK    7  A    between atoms: C11_15  and  C12_16 
ROOT
HETATM    1  C7  UNL     1      24.900   1.801  51.747  1.00  0.00     0.027 A 
HETATM    2  C8  UNL     1      26.253   2.031  51.665  1.00  0.00     0.133 A 
HETATM    3  N1  UNL     1      26.828   2.838  50.781  1.00  0.00    -0.253 NA
HETATM    4  C9  UNL     1      26.033   3.491  49.885  1.00  0.00     0.234 A 
HETATM    5  N2  UNL     1      24.726   3.299  49.928  1.00  0.00    -0.224 NA
HETATM    6  C10 UNL     1      24.173   2.489  50.820  1.00  0.00     0.136 A 
ENDROOT
BRANCH   6   7
HETATM    7  N3  UNL     1      22.763   2.348  50.778  1.00  0.00    -0.370 N 
HETATM    8  H12 UNL     1      22.009   2.862  51.282  1.00  0.00     0.161 HD
BRANCH   7   9
HETATM    9  C11 UNL     1      22.074   1.400  49.970  1.00  0.00     0.160 C 
BRANCH   9  10
HETATM   10  C12 UNL     1      20.784   0.908  50.549  1.00  0.00    -0.040 A 
HETATM   11  C13 UNL     1      20.977   0.399  51.842  1.00  0.00     0.009 A 
HETATM   12  C14 UNL     1      19.955  -0.126  52.588  1.00  0.00     0.001 A 
HETATM   13  C15 UNL     1      18.677  -0.179  52.100  1.00  0.00     0.007 A 
HETATM   14  C16 UNL     1      18.502   0.328  50.819  1.00  0.00    -0.061 A 
HETATM   15  C17 UNL     1      17.154   0.319  50.193  1.00  0.00     0.048 C 
HETATM   16  C18 UNL     1      19.502   0.853  50.062  1.00  0.00     0.015 A 
ENDBRANCH   9  10
ENDBRANCH   7   9
ENDBRANCH   6   7
BRANCH   1  17
HETATM   17  C6  UNL     1      24.259   0.931  52.701  1.00  0.00     0.013 C 
HETATM   18  C5  UNL     1      24.678   0.026  53.554  1.00  0.00    -0.022 C 
BRANCH  18  19
HETATM   19  C4  UNL     1      25.826  -0.691  54.124  1.00  0.00     0.056 C 
BRANCH  19  20
HETATM   20  C3  UNL     1      26.733   0.215  54.924  1.00  0.00     0.001 C 
HETATM   21  C2  UNL     1      28.071   0.106  54.887  1.00  0.00     0.130 C 
BRANCH  21  22
HETATM   22  O1  UNL     1      28.394  -0.939  54.019  1.00  0.00    -0.368 OA
HETATM   23  C1  UNL     1      29.726  -1.101  53.599  1.00  0.00     0.208 C 
ENDBRANCH  21  22
ENDBRANCH  19  20
ENDBRANCH  18  19
ENDBRANCH   1  17
TORSDOF 7
ENDMDL
MODEL 8
REMARK VINA RESULT:      -6.9      3.103      5.364
REMARK  7 active torsions:
REMARK  status: ('A' for Active; 'I' for Inactive)
REMARK    1  A    between atoms: O1_2  and  C2_3 
REMARK    2  A    between atoms: C3_4  and  C4_5 
REMARK    3  A    between atoms: C4_5  and  C5_6 
REMARK    4  A    between atoms: C6_7  and  C7_8 
REMARK    5  A    between atoms: C10_13  and  N3_14 
REMARK    6  A    between atoms: N3_14  and  C11_15 
REMARK    7  A    between atoms: C11_15  and  C12_16 
ROOT
HETATM    1  C7  UNL     1      24.461   3.348  49.946  1.00  0.00     0.027 A 
HETATM    2  C8  UNL     1      23.609   3.256  48.871  1.00  0.00     0.133 A 
HETATM    3  N1  UNL     1      22.294   3.434  48.935  1.00  0.00    -0.253 NA
HETATM    4  C9  UNL     1      21.737   3.729  50.144  1.00  0.00     0.234 A 
HETATM    5  N2  UNL     1      22.520   3.826  51.205  1.00  0.00    -0.224 NA
HETATM    6  C10 UNL     1      23.830   3.644  51.118  1.00  0.00     0.136 A 
ENDROOT
BRANCH   6   7
HETATM    7  N3  UNL     1      24.579   3.766  52.316  1.00  0.00    -0.370 N 
HETATM    8  H12 UNL     1      25.205   4.527  52.657  1.00  0.00     0.161 HD
BRANCH   7   9
HETATM    9  C11 UNL     1      24.607   2.787  53.349  1.00  0.00     0.160 C 
BRANCH   9  10
HETATM   10  C12 UNL     1      25.746   1.820  53.260  1.00  0.00    -0.040 A 
HETATM   11  C13 UNL     1      25.338   0.616  52.666  1.00  0.00     0.009 A 
HETATM   12  C14 UNL     1      26.189  -0.441  52.479  1.00  0.00     0.001 A 
HETATM   13  C15 UNL     1      27.500  -0.371  52.868  1.00  0.00     0.007 A 
HETATM   14  C16 UNL     1      27.889   0.826  53.455  1.00  0.00    -0.061 A 
HETATM   15  C17 UNL     1      29.291   1.008  53.915  1.00  0.00     0.048 C 
HETATM   16  C18 UNL     1      27.060   1.886  53.650  1.00  0.00     0.015 A 
ENDBRANCH   9  10
ENDBRANCH   7   9
ENDBRANCH   6   7
BRANCH   1  17
HETATM   17  C6  UNL     1      25.889   3.159  49.895  1.00  0.00     0.013 C 
HETATM   18  C5  UNL     1      26.893   3.834  49.386  1.00  0.00    -0.022 C 
BRANCH  18  19
HETATM   19  C4  UNL     1      27.326   5.022  48.639  1.00  0.00     0.056 C 
BRANCH  19  20
HETATM   20  C3  UNL     1      26.513   6.248  48.982  1.00  0.00     0.001 C 
HETATM   21  C2  UNL     1      27.037   7.484  48.973  1.00  0.00     0.130 C 
BRANCH  21  22
HETATM   22  O1  UNL     1      28.380   7.378  48.608  1.00  0.00    -0.368 OA
HETATM   23  C1  UNL     1      28.932   8.323  47.725  1.00  0.00     0.208 C 
ENDBRANCH  21  22
ENDBRANCH  19  20
ENDBRANCH  18  19
ENDBRANCH   1  17
TORSDOF 7
ENDMDL
MODEL 9
REMARK VINA RESULT:      -6.9      3.183      6.022
REMARK  7 active torsions:
REMARK  status: ('A' for Active; 'I' for Inactive)
REMARK    1  A    between atoms: O1_2  and  C2_3 
REMARK    2  A    between atoms: C3_4  and  C4_5 
REMARK    3  A    between atoms: C4_5  and  C5_6 
REMARK    4  A    between atoms: C6_7  and  C7_8 
REMARK    5  A    between atoms: C10_13  and  N3_14 
REMARK    6  A    between atoms: N3_14  and  C11_15 
REMARK    7  A    between atoms: C11_15  and  C12_16 
ROOT
HETATM    1  C7  UNL     1      25.002   0.702  53.071  1.00  0.00     0.027 A 
HETATM    2  C8  UNL     1      25.204  -0.605  53.448  1.00  0.00     0.133 A 
HETATM    3  N1  UNL     1      26.385  -1.211  53.459  1.00  0.00    -0.253 NA
HETATM    4  C9  UNL     1      27.483  -0.501  53.072  1.00  0.00     0.234 A 
HETATM    5  N2  UNL     1      27.335   0.759  52.701  1.00  0.00    -0.224 NA
HETATM    6  C10 UNL     1      26.146   1.345  52.698  1.00  0.00     0.136 A 
ENDROOT
BRANCH   6   7
HETATM    7  N3  UNL     1      26.094   2.698  52.278  1.00  0.00    -0.370 N 
HETATM    8  H12 UNL     1      26.032   3.582  52.826  1.00  0.00     0.161 HD
BRANCH   7   9
HETATM    9  C11 UNL     1      26.121   3.118  50.918  1.00  0.00     0.160 C 
BRANCH   9  10
HETATM   10  C12 UNL     1      24.772   3.293  50.292  1.00  0.00    -0.040 A 
HETATM   11  C13 UNL     1      24.063   4.333  50.912  1.00  0.00     0.009 A 
HETATM   12  C14 UNL     1      22.795   4.689  50.534  1.00  0.00     0.001 A 
HETATM   13  C15 UNL     1      22.150   4.036  49.519  1.00  0.00     0.007 A 
HETATM   14  C16 UNL     1      22.864   3.009  48.916  1.00  0.00    -0.061 A 
HETATM   15  C17 UNL     1      22.257   2.234  47.802  1.00  0.00     0.048 C 
HETATM   16  C18 UNL     1      24.123   2.640  49.275  1.00  0.00     0.015 A 
ENDBRANCH   9  10
ENDBRANCH   7   9
ENDBRANCH   6   7
BRANCH   1  17
HETATM   17  C6  UNL     1      23.728   1.376  53.054  1.00  0.00     0.013 C 
HETATM   18  C5  UNL     1      22.574   1.157  52.471  1.00  0.00    -0.022 C 
BRANCH  18  19
HETATM   19  C4  UNL     1      21.787   0.292  51.582  1.00  0.00     0.056 C 
BRANCH  19  20
HETATM   20  C3  UNL     1      20.572   0.992  51.022  1.00  0.00     0.001 C 
HETATM   21  C2  UNL     1      19.321   0.663  51.384  1.00  0.00     0.130 C 
BRANCH  21  22
HETATM   22  O1  UNL     1      19.403  -0.378  52.310  1.00  0.00    -0.368 OA
HETATM   23  C1  UNL     1      18.224  -0.881  52.889  1.00  0.00     0.208 C 
ENDBRANCH  21  22
ENDBRANCH  19  20
ENDBRANCH  18  19
ENDBRANCH   1  17
TORSDOF 7
ENDMDL
