MODEL 1
REMARK VINA RESULT:      -8.6      0.000      0.000
REMARK  4 active torsions:
REMARK  status: ('A' for Active; 'I' for Inactive)
REMARK    1  A    between atoms: C5_6  and  C6_7 
REMARK    2  A    between atoms: C6_7  and  N1_8 
REMARK    3  A    between atoms: C9_15  and  N6_16 
REMARK    4  A    between atoms: N6_16  and  C10_17 
ROOT
HETATM    1  N1  UNL     1      27.311   1.749  53.118  1.00  0.00     0.140 N 
HETATM    2  C7  UNL     1      28.529   2.495  53.405  1.00  0.00     0.388 C 
HETATM    3  N2  UNL     1      29.009   1.903  54.675  1.00  0.00    -0.191 NA
HETATM    4  N3  UNL     1      28.950   0.539  54.259  1.00  0.00    -0.188 N 
HETATM    5  N4  UNL     1      29.801  -0.584  54.147  1.00  0.00    -0.152 NA
HETATM    6  C8  UNL     1      29.322  -1.666  53.593  1.00  0.00     0.258 A 
HETATM    7  N5  UNL     1      27.983  -1.719  53.122  1.00  0.00    -0.223 NA
HETATM    8  C9  UNL     1      27.152  -0.712  53.215  1.00  0.00     0.162 A 
HETATM    9  C16 UNL     1      27.535   0.529  53.864  1.00  0.00     0.429 A 
HETATM   10  H8  UNL     1      28.244   2.025  55.393  1.00  0.00     0.150 HD
ENDROOT
BRANCH   8  11
HETATM   11  N6  UNL     1      25.865  -0.959  52.681  1.00  0.00    -0.341 N 
HETATM   12  H10 UNL     1      25.809  -1.196  51.658  1.00  0.00     0.167 HD
BRANCH  11  13
HETATM   13  C10 UNL     1      24.654  -0.908  53.414  1.00  0.00     0.035 A 
HETATM   14  C11 UNL     1      24.629  -1.188  54.768  1.00  0.00     0.029 A 
HETATM   15  C12 UNL     1      23.482  -1.159  55.532  1.00  0.00     0.004 A 
HETATM   16  C13 UNL     1      22.269  -0.837  54.959  1.00  0.00     0.024 A 
HETATM   17  C14 UNL     1      22.241  -0.550  53.611  1.00  0.00     0.036 A 
HETATM   18 CL2  UNL     1      20.722  -0.138  52.845  1.00  0.00    -0.084 Cl
HETATM   19  C15 UNL     1      23.419  -0.595  52.897  1.00  0.00     0.053 A 
ENDBRANCH  11  13
ENDBRANCH   8  11
BRANCH   1  20
HETATM   20  C6  UNL     1      26.129   2.447  53.590  1.00  0.00     0.316 C 
BRANCH  20  21
HETATM   21  C5  UNL     1      25.080   2.636  52.598  1.00  0.00    -0.028 A 
HETATM   22  C4  UNL     1      25.228   2.540  51.230  1.00  0.00     0.009 A 
HETATM   23  C3  UNL     1      24.201   2.717  50.311  1.00  0.00     0.002 A 
HETATM   24  C2  UNL     1      22.938   3.011  50.780  1.00  0.00     0.024 A 
HETATM   25  C1  UNL     1      22.735   3.120  52.142  1.00  0.00     0.034 A 
HETATM   26 CL1  UNL     1      21.108   3.495  52.678  1.00  0.00    -0.084 Cl
HETATM   27  C17 UNL     1      23.795   2.933  53.010  1.00  0.00     0.032 A 
ENDBRANCH  20  21
ENDBRANCH   1  20
TORSDOF 4
ENDMDL
MODEL 2
REMARK VINA RESULT:      -8.4      1.504      4.168
REMARK  4 active torsions:
REMARK  status: ('A' for Active; 'I' for Inactive)
REMARK    1  A    between atoms: C5_6  and  C6_7 
REMARK    2  A    between atoms: C6_7  and  N1_8 
REMARK    3  A    between atoms: C9_15  and  N6_16 
REMARK    4  A    between atoms: N6_16  and  C10_17 
ROOT
HETATM    1  N1  UNL     1      25.619   0.382  54.003  1.00  0.00     0.140 N 
HETATM    2  C7  UNL     1      26.035   0.095  55.370  1.00  0.00     0.388 C 
HETATM    3  N2  UNL     1      27.421  -0.402  55.214  1.00  0.00    -0.191 NA
HETATM    4  N3  UNL     1      27.899   0.675  54.410  1.00  0.00    -0.188 N 
HETATM    5  N4  UNL     1      28.923   1.650  54.424  1.00  0.00    -0.152 NA
HETATM    6  C8  UNL     1      28.928   2.549  53.476  1.00  0.00     0.258 A 
HETATM    7  N5  UNL     1      27.941   2.547  52.455  1.00  0.00    -0.223 NA
HETATM    8  C9  UNL     1      26.982   1.659  52.391  1.00  0.00     0.162 A 
HETATM    9  C16 UNL     1      26.894   0.568  53.345  1.00  0.00     0.429 A 
HETATM   10  H8  UNL     1      27.387  -1.249  54.583  1.00  0.00     0.150 HD
ENDROOT
BRANCH   8  11
HETATM   11  N6  UNL     1      26.092   1.831  51.304  1.00  0.00    -0.341 N 
HETATM   12  H10 UNL     1      26.342   1.352  50.401  1.00  0.00     0.167 HD
BRANCH  11  13
HETATM   13  C10 UNL     1      24.901   2.598  51.338  1.00  0.00     0.035 A 
HETATM   14  C11 UNL     1      24.426   3.123  52.525  1.00  0.00     0.029 A 
HETATM   15  C12 UNL     1      23.272   3.871  52.621  1.00  0.00     0.004 A 
HETATM   16  C13 UNL     1      22.517   4.138  51.498  1.00  0.00     0.024 A 
HETATM   17  C14 UNL     1      22.949   3.636  50.288  1.00  0.00     0.036 A 
HETATM   18 CL2  UNL     1      22.019   3.950  48.839  1.00  0.00    -0.084 Cl
HETATM   19  C15 UNL     1      24.110   2.893  50.253  1.00  0.00     0.053 A 
ENDBRANCH  11  13
ENDBRANCH   8  11
BRANCH   1  20
HETATM   20  C6  UNL     1      24.880  -0.725  53.423  1.00  0.00     0.316 C 
BRANCH  20  21
HETATM   21  C5  UNL     1      23.431  -0.616  53.502  1.00  0.00    -0.028 A 
HETATM   22  C4  UNL     1      22.635  -1.081  54.529  1.00  0.00     0.009 A 
HETATM   23  C3  UNL     1      21.253  -0.950  54.576  1.00  0.00     0.002 A 
HETATM   24  C2  UNL     1      20.612  -0.315  53.534  1.00  0.00     0.024 A 
HETATM   25  C1  UNL     1      21.362   0.169  52.479  1.00  0.00     0.034 A 
HETATM   26 CL1  UNL     1      20.492   0.966  51.181  1.00  0.00    -0.084 Cl
HETATM   27  C17 UNL     1      22.735   0.010  52.485  1.00  0.00     0.032 A 
ENDBRANCH  20  21
ENDBRANCH   1  20
TORSDOF 4
ENDMDL
MODEL 3
REMARK VINA RESULT:      -8.4      2.770      5.562
REMARK  4 active torsions:
REMARK  status: ('A' for Active; 'I' for Inactive)
REMARK    1  A    between atoms: C5_6  and  C6_7 
REMARK    2  A    between atoms: C6_7  and  N1_8 
REMARK    3  A    between atoms: C9_15  and  N6_16 
REMARK    4  A    between atoms: N6_16  and  C10_17 
ROOT
HETATM    1  N1  UNL     1      23.621   1.853  51.513  1.00  0.00     0.140 N 
HETATM    2  C7  UNL     1      22.795   1.894  50.313  1.00  0.00     0.388 C 
HETATM    3  N2  UNL     1      22.881   3.307  49.881  1.00  0.00    -0.191 NA
HETATM    4  N3  UNL     1      24.303   3.409  49.912  1.00  0.00    -0.188 N 
HETATM    5  N4  UNL     1      25.373   3.739  49.049  1.00  0.00    -0.152 NA
HETATM    6  C8  UNL     1      26.591   3.596  49.498  1.00  0.00     0.258 A 
HETATM    7  N5  UNL     1      26.840   3.130  50.816  1.00  0.00    -0.223 NA
HETATM    8  C9  UNL     1      25.885   2.825  51.658  1.00  0.00     0.162 A 
HETATM    9  C16 UNL     1      24.485   2.996  51.310  1.00  0.00     0.429 A 
HETATM   10  H8  UNL     1      22.524   3.906  50.675  1.00  0.00     0.150 HD
ENDROOT
BRANCH   8  11
HETATM   11  N6  UNL     1      26.335   2.372  52.920  1.00  0.00    -0.341 N 
HETATM   12  H10 UNL     1      25.953   2.862  53.769  1.00  0.00     0.167 HD
BRANCH  11  13
HETATM   13  C10 UNL     1      27.258   1.317  53.126  1.00  0.00     0.035 A 
HETATM   14  C11 UNL     1      28.514   1.563  53.649  1.00  0.00     0.029 A 
HETATM   15  C12 UNL     1      29.456   0.580  53.868  1.00  0.00     0.004 A 
HETATM   16  C13 UNL     1      29.175  -0.736  53.564  1.00  0.00     0.024 A 
HETATM   17  C14 UNL     1      27.935  -1.033  53.039  1.00  0.00     0.036 A 
HETATM   18 CL2  UNL     1      27.539  -2.691  52.639  1.00  0.00    -0.084 Cl
HETATM   19  C15 UNL     1      27.034  -0.009  52.842  1.00  0.00     0.053 A 
ENDBRANCH  11  13
ENDBRANCH   8  11
BRANCH   1  20
HETATM   20  C6  UNL     1      22.825   2.000  52.719  1.00  0.00     0.316 C 
BRANCH  20  21
HETATM   21  C5  UNL     1      22.266   0.766  53.251  1.00  0.00    -0.028 A 
HETATM   22  C4  UNL     1      22.956  -0.204  53.950  1.00  0.00     0.009 A 
HETATM   23  C3  UNL     1      22.387  -1.367  54.453  1.00  0.00     0.002 A 
HETATM   24  C2  UNL     1      21.041  -1.587  54.251  1.00  0.00     0.024 A 
HETATM   25  C1  UNL     1      20.304  -0.648  53.556  1.00  0.00     0.034 A 
HETATM   26 CL1  UNL     1      18.597  -0.982  53.329  1.00  0.00    -0.084 Cl
HETATM   27  C17 UNL     1      20.923   0.492  53.077  1.00  0.00     0.032 A 
ENDBRANCH  20  21
ENDBRANCH   1  20
TORSDOF 4
ENDMDL
MODEL 4
REMARK VINA RESULT:      -8.1      3.143      5.401
REMARK  4 active torsions:
REMARK  status: ('A' for Active; 'I' for Inactive)
REMARK    1  A    between atoms: C5_6  and  C6_7 
REMARK    2  A    between atoms: C6_7  and  N1_8 
REMARK    3  A    between atoms: C9_15  and  N6_16 
REMARK    4  A    between atoms: N6_16  and  C10_17 
ROOT
HETATM    1  N1  UNL     1      22.100   0.513  52.879  1.00  0.00     0.140 N 
HETATM    2  C7  UNL     1      20.849   0.432  53.621  1.00  0.00     0.388 C 
HETATM    3  N2  UNL     1      20.734  -1.006  53.952  1.00  0.00    -0.191 NA
HETATM    4  N3  UNL     1      22.039  -1.158  54.508  1.00  0.00    -0.188 N 
HETATM    5  N4  UNL     1      22.648  -1.577  55.713  1.00  0.00    -0.152 NA
HETATM    6  C8  UNL     1      23.944  -1.452  55.823  1.00  0.00     0.258 A 
HETATM    7  N5  UNL     1      24.724  -0.920  54.762  1.00  0.00    -0.223 NA
HETATM    8  C9  UNL     1      24.209  -0.531  53.623  1.00  0.00     0.162 A 
HETATM    9  C16 UNL     1      22.791  -0.670  53.345  1.00  0.00     0.429 A 
HETATM   10  H8  UNL     1      20.736  -1.544  53.043  1.00  0.00     0.150 HD
ENDROOT
BRANCH   8  11
HETATM   11  N6  UNL     1      25.149  -0.021  52.696  1.00  0.00    -0.341 N 
HETATM   12  H10 UNL     1      24.849   0.030  51.689  1.00  0.00     0.167 HD
BRANCH  11  13
HETATM   13  C10 UNL     1      26.457   0.419  53.019  1.00  0.00     0.035 A 
HETATM   14  C11 UNL     1      26.740   1.765  53.161  1.00  0.00     0.029 A 
HETATM   15  C12 UNL     1      27.992   2.253  53.469  1.00  0.00     0.004 A 
HETATM   16  C13 UNL     1      29.052   1.390  53.655  1.00  0.00     0.024 A 
HETATM   17  C14 UNL     1      28.821   0.037  53.524  1.00  0.00     0.036 A 
HETATM   18 CL2  UNL     1      30.139  -1.093  53.751  1.00  0.00    -0.084 Cl
HETATM   19  C15 UNL     1      27.548  -0.393  53.214  1.00  0.00     0.053 A 
ENDBRANCH  11  13
ENDBRANCH   8  11
BRANCH   1  20
HETATM   20  C6  UNL     1      21.879   0.466  51.445  1.00  0.00     0.316 C 
BRANCH  20  21
HETATM   21  C5  UNL     1      22.510   1.533  50.682  1.00  0.00    -0.028 A 
HETATM   22  C4  UNL     1      23.480   2.399  51.144  1.00  0.00     0.009 A 
HETATM   23  C3  UNL     1      24.069   3.402  50.383  1.00  0.00     0.002 A 
HETATM   24  C2  UNL     1      23.670   3.559  49.073  1.00  0.00     0.024 A 
HETATM   25  C1  UNL     1      22.702   2.718  48.560  1.00  0.00     0.034 A 
HETATM   26 CL1  UNL     1      22.235   2.965  46.888  1.00  0.00    -0.084 Cl
HETATM   27  C17 UNL     1      22.150   1.737  49.364  1.00  0.00     0.032 A 
ENDBRANCH  20  21
ENDBRANCH   1  20
TORSDOF 4
ENDMDL
MODEL 5
REMARK VINA RESULT:      -8.1      2.423      4.799
REMARK  4 active torsions:
REMARK  status: ('A' for Active; 'I' for Inactive)
REMARK    1  A    between atoms: C5_6  and  C6_7 
REMARK    2  A    between atoms: C6_7  and  N1_8 
REMARK    3  A    between atoms: C9_15  and  N6_16 
REMARK    4  A    between atoms: N6_16  and  C10_17 
ROOT
HETATM    1  N1  UNL     1      22.399  -0.027  53.734  1.00  0.00     0.140 N 
HETATM    2  C7  UNL     1      21.866  -0.501  55.005  1.00  0.00     0.388 C 
HETATM    3  N2  UNL     1      22.664  -1.717  55.284  1.00  0.00    -0.191 NA
HETATM    4  N3  UNL     1      23.948  -1.126  55.091  1.00  0.00    -0.188 N 
HETATM    5  N4  UNL     1      25.158  -0.937  55.798  1.00  0.00    -0.152 NA
HETATM    6  C8  UNL     1      26.090  -0.213  55.238  1.00  0.00     0.258 A 
HETATM    7  N5  UNL     1      25.903   0.362  53.954  1.00  0.00    -0.223 NA
HETATM    8  C9  UNL     1      24.808   0.205  53.253  1.00  0.00     0.162 A 
HETATM    9  C16 UNL     1      23.716  -0.626  53.730  1.00  0.00     0.429 A 
HETATM   10  H8  UNL     1      22.522  -2.384  54.477  1.00  0.00     0.150 HD
ENDROOT
BRANCH   8  11
HETATM   11  N6  UNL     1      24.810   0.864  52.002  1.00  0.00    -0.341 N 
HETATM   12  H10 UNL     1      25.139   0.310  51.170  1.00  0.00     0.167 HD
BRANCH  11  13
HETATM   13  C10 UNL     1      24.410   2.206  51.785  1.00  0.00     0.035 A 
HETATM   14  C11 UNL     1      24.017   3.011  52.838  1.00  0.00     0.029 A 
HETATM   15  C12 UNL     1      23.613   4.320  52.689  1.00  0.00     0.004 A 
HETATM   16  C13 UNL     1      23.583   4.904  51.439  1.00  0.00     0.024 A 
HETATM   17  C14 UNL     1      23.965   4.142  50.355  1.00  0.00     0.036 A 
HETATM   18 CL2  UNL     1      23.939   4.844  48.751  1.00  0.00    -0.084 Cl
HETATM   19  C15 UNL     1      24.359   2.838  50.565  1.00  0.00     0.053 A 
ENDBRANCH  11  13
ENDBRANCH   8  11
BRANCH   1  20
HETATM   20  C6  UNL     1      21.604  -0.492  52.612  1.00  0.00     0.316 C 
BRANCH  20  21
HETATM   21  C5  UNL     1      21.325   0.507  51.590  1.00  0.00    -0.028 A 
HETATM   22  C4  UNL     1      21.522   0.357  50.232  1.00  0.00     0.009 A 
HETATM   23  C3  UNL     1      21.234   1.330  49.283  1.00  0.00     0.002 A 
HETATM   24  C2  UNL     1      20.715   2.535  49.705  1.00  0.00     0.024 A 
HETATM   25  C1  UNL     1      20.500   2.737  51.055  1.00  0.00     0.034 A 
HETATM   26 CL1  UNL     1      19.839   4.289  51.534  1.00  0.00    -0.084 Cl
HETATM   27  C17 UNL     1      20.805   1.733  51.956  1.00  0.00     0.032 A 
ENDBRANCH  20  21
ENDBRANCH   1  20
TORSDOF 4
ENDMDL
MODEL 6
REMARK VINA RESULT:      -7.9      3.315      5.506
REMARK  4 active torsions:
REMARK  status: ('A' for Active; 'I' for Inactive)
REMARK    1  A    between atoms: C5_6  and  C6_7 
REMARK    2  A    between atoms: C6_7  and  N1_8 
REMARK    3  A    between atoms: C9_15  and  N6_16 
REMARK    4  A    between atoms: N6_16  and  C10_17 
ROOT
HETATM    1  N1  UNL     1      23.781   4.027  50.929  1.00  0.00     0.140 N 
HETATM    2  C7  UNL     1      23.305   5.355  50.562  1.00  0.00     0.388 C 
HETATM    3  N2  UNL     1      24.429   6.242  50.939  1.00  0.00    -0.191 NA
HETATM    4  N3  UNL     1      25.454   5.514  50.265  1.00  0.00    -0.188 N 
HETATM    5  N4  UNL     1      26.448   5.723  49.281  1.00  0.00    -0.152 NA
HETATM    6  C8  UNL     1      27.138   4.691  48.876  1.00  0.00     0.258 A 
HETATM    7  N5  UNL     1      26.908   3.396  49.410  1.00  0.00    -0.223 NA
HETATM    8  C9  UNL     1      26.010   3.153  50.332  1.00  0.00     0.162 A 
HETATM    9  C16 UNL     1      25.215   4.219  50.916  1.00  0.00     0.429 A 
HETATM   10  H8  UNL     1      24.606   6.113  51.972  1.00  0.00     0.150 HD
ENDROOT
BRANCH   8  11
HETATM   11  N6  UNL     1      25.926   1.797  50.728  1.00  0.00    -0.341 N 
HETATM   12  H10 UNL     1      25.219   1.196  50.232  1.00  0.00     0.167 HD
BRANCH  11  13
HETATM   13  C10 UNL     1      26.714   1.192  51.739  1.00  0.00     0.035 A 
HETATM   14  C11 UNL     1      26.645  -0.168  51.976  1.00  0.00     0.029 A 
HETATM   15  C12 UNL     1      27.382  -0.811  52.948  1.00  0.00     0.004 A 
HETATM   16  C13 UNL     1      28.250  -0.101  53.752  1.00  0.00     0.024 A 
HETATM   17  C14 UNL     1      28.354   1.260  53.555  1.00  0.00     0.036 A 
HETATM   18 CL2  UNL     1      29.442   2.199  54.554  1.00  0.00    -0.084 Cl
HETATM   19  C15 UNL     1      27.591   1.849  52.569  1.00  0.00     0.053 A 
ENDBRANCH  11  13
ENDBRANCH   8  11
BRANCH   1  20
HETATM   20  C6  UNL     1      23.313   3.632  52.244  1.00  0.00     0.316 C 
BRANCH  20  21
HETATM   21  C5  UNL     1      22.901   2.241  52.368  1.00  0.00    -0.028 A 
HETATM   22  C4  UNL     1      21.893   1.625  51.655  1.00  0.00     0.009 A 
HETATM   23  C3  UNL     1      21.533   0.290  51.791  1.00  0.00     0.002 A 
HETATM   24  C2  UNL     1      22.220  -0.491  52.695  1.00  0.00     0.024 A 
HETATM   25  C1  UNL     1      23.239   0.076  53.436  1.00  0.00     0.034 A 
HETATM   26 CL1  UNL     1      24.075  -0.966  54.571  1.00  0.00    -0.084 Cl
HETATM   27  C17 UNL     1      23.554   1.411  53.259  1.00  0.00     0.032 A 
ENDBRANCH  20  21
ENDBRANCH   1  20
TORSDOF 4
ENDMDL
MODEL 7
REMARK VINA RESULT:      -7.7      3.974      6.878
REMARK  4 active torsions:
REMARK  status: ('A' for Active; 'I' for Inactive)
REMARK    1  A    between atoms: C5_6  and  C6_7 
REMARK    2  A    between atoms: C6_7  and  N1_8 
REMARK    3  A    between atoms: C9_15  and  N6_16 
REMARK    4  A    between atoms: N6_16  and  C10_17 
ROOT
HETATM    1  N1  UNL     1      21.857  -0.256  53.045  1.00  0.00     0.140 N 
HETATM    2  C7  UNL     1      21.891  -1.618  53.562  1.00  0.00     0.388 C 
HETATM    3  N2  UNL     1      20.832  -1.624  54.597  1.00  0.00    -0.191 NA
HETATM    4  N3  UNL     1      19.798  -1.071  53.785  1.00  0.00    -0.188 N 
HETATM    5  N4  UNL     1      18.492  -1.391  53.348  1.00  0.00    -0.152 NA
HETATM    6  C8  UNL     1      17.920  -0.595  52.485  1.00  0.00     0.258 A 
HETATM    7  N5  UNL     1      18.583   0.565  52.002  1.00  0.00    -0.223 NA
HETATM    8  C9  UNL     1      19.785   0.912  52.386  1.00  0.00     0.162 A 
HETATM    9  C16 UNL     1      20.511   0.150  53.388  1.00  0.00     0.429 A 
HETATM   10  H8  UNL     1      21.077  -0.882  55.308  1.00  0.00     0.150 HD
ENDROOT
BRANCH   8  11
HETATM   11  N6  UNL     1      20.276   2.095  51.786  1.00  0.00    -0.341 N 
HETATM   12  H10 UNL     1      20.042   3.005  52.260  1.00  0.00     0.167 HD
BRANCH  11  13
HETATM   13  C10 UNL     1      21.050   2.148  50.600  1.00  0.00     0.035 A 
HETATM   14  C11 UNL     1      20.981   1.137  49.660  1.00  0.00     0.029 A 
HETATM   15  C12 UNL     1      21.713   1.131  48.492  1.00  0.00     0.004 A 
HETATM   16  C13 UNL     1      22.574   2.169  48.201  1.00  0.00     0.024 A 
HETATM   17  C14 UNL     1      22.679   3.202  49.108  1.00  0.00     0.036 A 
HETATM   18 CL2  UNL     1      23.760   4.538  48.778  1.00  0.00    -0.084 Cl
HETATM   19  C15 UNL     1      21.923   3.154  50.260  1.00  0.00     0.053 A 
ENDBRANCH  11  13
ENDBRANCH   8  11
BRANCH   1  20
HETATM   20  C6  UNL     1      22.844   0.590  53.692  1.00  0.00     0.316 C 
BRANCH  20  21
HETATM   21  C5  UNL     1      24.180   0.540  53.115  1.00  0.00    -0.028 A 
HETATM   22  C4  UNL     1      25.141  -0.415  53.374  1.00  0.00     0.009 A 
HETATM   23  C3  UNL     1      26.405  -0.438  52.797  1.00  0.00     0.002 A 
HETATM   24  C2  UNL     1      26.741   0.553  51.901  1.00  0.00     0.024 A 
HETATM   25  C1  UNL     1      25.816   1.535  51.607  1.00  0.00     0.034 A 
HETATM   26 CL1  UNL     1      26.300   2.771  50.461  1.00  0.00    -0.084 Cl
HETATM   27  C17 UNL     1      24.572   1.509  52.212  1.00  0.00     0.032 A 
ENDBRANCH  20  21
ENDBRANCH   1  20
TORSDOF 4
ENDMDL
MODEL 8
REMARK VINA RESULT:      -7.7      3.301      5.437
REMARK  4 active torsions:
REMARK  status: ('A' for Active; 'I' for Inactive)
REMARK    1  A    between atoms: C5_6  and  C6_7 
REMARK    2  A    between atoms: C6_7  and  N1_8 
REMARK    3  A    between atoms: C9_15  and  N6_16 
REMARK    4  A    between atoms: N6_16  and  C10_17 
ROOT
HETATM    1  N1  UNL     1      22.922   1.969  52.017  1.00  0.00     0.140 N 
HETATM    2  C7  UNL     1      21.714   2.672  52.428  1.00  0.00     0.388 C 
HETATM    3  N2  UNL     1      20.697   1.598  52.508  1.00  0.00    -0.191 NA
HETATM    4  N3  UNL     1      21.455   0.707  53.323  1.00  0.00    -0.188 N 
HETATM    5  N4  UNL     1      21.348   0.033  54.561  1.00  0.00    -0.152 NA
HETATM    6  C8  UNL     1      22.382  -0.643  54.985  1.00  0.00     0.258 A 
HETATM    7  N5  UNL     1      23.580  -0.709  54.225  1.00  0.00    -0.223 NA
HETATM    8  C9  UNL     1      23.725  -0.115  53.068  1.00  0.00     0.162 A 
HETATM    9  C16 UNL     1      22.634   0.619  52.450  1.00  0.00     0.429 A 
HETATM   10  H8  UNL     1      20.634   1.147  51.555  1.00  0.00     0.150 HD
ENDROOT
BRANCH   8  11
HETATM   11  N6  UNL     1      24.995  -0.292  52.470  1.00  0.00    -0.341 N 
HETATM   12  H10 UNL     1      25.038  -0.896  51.609  1.00  0.00     0.167 HD
BRANCH  11  13
HETATM   13  C10 UNL     1      26.205   0.275  52.941  1.00  0.00     0.035 A 
HETATM   14  C11 UNL     1      26.261   1.594  53.350  1.00  0.00     0.029 A 
HETATM   15  C12 UNL     1      27.409   2.202  53.812  1.00  0.00     0.004 A 
HETATM   16  C13 UNL     1      28.591   1.495  53.890  1.00  0.00     0.024 A 
HETATM   17  C14 UNL     1      28.587   0.174  53.494  1.00  0.00     0.036 A 
HETATM   18 CL2  UNL     1      30.066  -0.759  53.576  1.00  0.00    -0.084 Cl
HETATM   19  C15 UNL     1      27.409  -0.380  53.039  1.00  0.00     0.053 A 
ENDBRANCH  11  13
ENDBRANCH   8  11
BRANCH   1  20
HETATM   20  C6  UNL     1      23.118   2.032  50.580  1.00  0.00     0.316 C 
BRANCH  20  21
HETATM   21  C5  UNL     1      24.114   2.993  50.128  1.00  0.00    -0.028 A 
HETATM   22  C4  UNL     1      25.479   2.889  50.297  1.00  0.00     0.009 A 
HETATM   23  C3  UNL     1      26.403   3.822  49.843  1.00  0.00     0.002 A 
HETATM   24  C2  UNL     1      25.944   4.937  49.175  1.00  0.00     0.024 A 
HETATM   25  C1  UNL     1      24.585   5.091  48.980  1.00  0.00     0.034 A 
HETATM   26 CL1  UNL     1      24.060   6.530  48.126  1.00  0.00    -0.084 Cl
HETATM   27  C17 UNL     1      23.711   4.130  49.454  1.00  0.00     0.032 A 
ENDBRANCH  20  21
ENDBRANCH   1  20
TORSDOF 4
ENDMDL
MODEL 9
REMARK VINA RESULT:      -7.5      3.265      5.476
REMARK  4 active torsions:
REMARK  status: ('A' for Active; 'I' for Inactive)
REMARK    1  A    between atoms: C5_6  and  C6_7 
REMARK    2  A    between atoms: C6_7  and  N1_8 
REMARK    3  A    between atoms: C9_15  and  N6_16 
REMARK    4  A    between atoms: N6_16  and  C10_17 
ROOT
HETATM    1  N1  UNL     1      25.945   3.366  50.928  1.00  0.00     0.140 N 
HETATM    2  C7  UNL     1      26.494   4.235  49.895  1.00  0.00     0.388 C 
HETATM    3  N2  UNL     1      25.340   4.480  48.999  1.00  0.00    -0.191 NA
HETATM    4  N3  UNL     1      24.419   4.877  50.013  1.00  0.00    -0.188 N 
HETATM    5  N4  UNL     1      23.592   5.977  50.338  1.00  0.00    -0.152 NA
HETATM    6  C8  UNL     1      22.955   5.951  51.478  1.00  0.00     0.258 A 
HETATM    7  N5  UNL     1      23.079   4.849  52.365  1.00  0.00    -0.223 NA
HETATM    8  C9  UNL     1      23.820   3.802  52.104  1.00  0.00     0.162 A 
HETATM    9  C16 UNL     1      24.533   3.673  50.846  1.00  0.00     0.429 A 
HETATM   10  H8  UNL     1      25.005   3.542  48.646  1.00  0.00     0.150 HD
ENDROOT
BRANCH   8  11
HETATM   11  N6  UNL     1      23.819   2.814  53.116  1.00  0.00    -0.341 N 
HETATM   12  H10 UNL     1      24.387   3.012  53.979  1.00  0.00     0.167 HD
BRANCH  11  13
HETATM   13  C10 UNL     1      23.120   1.583  53.055  1.00  0.00     0.035 A 
HETATM   14  C11 UNL     1      23.688   0.417  53.532  1.00  0.00     0.029 A 
HETATM   15  C12 UNL     1      23.059  -0.810  53.495  1.00  0.00     0.004 A 
HETATM   16  C13 UNL     1      21.792  -0.929  52.962  1.00  0.00     0.024 A 
HETATM   17  C14 UNL     1      21.182   0.206  52.472  1.00  0.00     0.036 A 
HETATM   18 CL2  UNL     1      19.575   0.098  51.786  1.00  0.00    -0.084 Cl
HETATM   19  C15 UNL     1      21.860   1.405  52.535  1.00  0.00     0.053 A 
ENDBRANCH  11  13
ENDBRANCH   8  11
BRANCH   1  20
HETATM   20  C6  UNL     1      26.199   1.966  50.644  1.00  0.00     0.316 C 
BRANCH  20  21
HETATM   21  C5  UNL     1      26.842   1.219  51.717  1.00  0.00    -0.028 A 
HETATM   22  C4  UNL     1      26.683  -0.126  51.978  1.00  0.00     0.009 A 
HETATM   23  C3  UNL     1      27.322  -0.810  53.006  1.00  0.00     0.002 A 
HETATM   24  C2  UNL     1      28.176  -0.113  53.833  1.00  0.00     0.024 A 
HETATM   25  C1  UNL     1      28.370   1.237  53.616  1.00  0.00     0.034 A 
HETATM   26 CL1  UNL     1      29.467   2.071  54.700  1.00  0.00    -0.084 Cl
HETATM   27  C17 UNL     1      27.708   1.866  52.577  1.00  0.00     0.032 A 
ENDBRANCH  20  21
ENDBRANCH   1  20
TORSDOF 4
ENDMDL
