MODEL 1
REMARK VINA RESULT:      -8.5      0.000      0.000
REMARK  5 active torsions:
REMARK  status: ('A' for Active; 'I' for Inactive)
REMARK    1  A    between atoms: C1_2  and  C2_3 
REMARK       I    between atoms: C1_2  and  N1_10 
REMARK    2  A    between atoms: C2_3  and  C3_4 
REMARK    3  A    between atoms: N1_10  and  C9_11 
REMARK    4  A    between atoms: C15_17  and  C16_18 
REMARK    5  A    between atoms: C16_18  and  N2_19 
ROOT
HETATM    1  C9  UNL     1      24.120   1.988  52.230  1.00  0.00     0.044 A 
HETATM    2  C10 UNL     1      23.373   0.948  52.733  1.00  0.00     0.030 A 
HETATM    3  C11 UNL     1      21.981   1.004  52.859  1.00  0.00     0.003 A 
HETATM    4  C12 UNL     1      21.340   2.182  52.449  1.00  0.00     0.012 A 
HETATM    5  C13 UNL     1      22.152   3.181  51.956  1.00  0.00    -0.023 A 
HETATM    6  C14 UNL     1      23.522   3.154  51.816  1.00  0.00     0.003 A 
HETATM    7  C15 UNL     1      24.342   4.220  51.198  1.00  0.00     0.141 C 
HETATM    8  N3  UNL     1      23.468   5.418  51.097  1.00  0.00    -0.340 N 
HETATM    9  C17 UNL     1      24.093   6.597  50.684  1.00  0.00     0.100 A 
HETATM   10  C18 UNL     1      23.329   7.653  50.500  1.00  0.00     0.069 A 
HETATM   11  S1  UNL     1      21.607   7.186  50.853  1.00  0.00    -0.083 SA
HETATM   12  C19 UNL     1      22.064   5.487  51.290  1.00  0.00     0.077 A 
HETATM   13  C20 UNL     1      21.420   4.409  51.676  1.00  0.00     0.049 C 
ENDROOT
BRANCH   1  14
HETATM   14  N1  UNL     1      25.526   1.852  52.192  1.00  0.00    -0.326 N 
HETATM   15  C1  UNL     1      26.483   2.002  53.204  1.00  0.00     0.226 C 
HETATM   16  O1  UNL     1      26.179   2.302  54.362  1.00  0.00    -0.273 OA
HETATM   17  H8  UNL     1      26.082   1.633  51.319  1.00  0.00     0.169 HD
BRANCH  15  18
HETATM   18  C2  UNL     1      27.957   1.858  53.149  1.00  0.00     0.141 C 
BRANCH  18  19
HETATM   19  C3  UNL     1      28.266   0.413  53.169  1.00  0.00    -0.050 A 
HETATM   20  C4  UNL     1      27.400  -0.619  52.821  1.00  0.00     0.007 A 
HETATM   21  C5  UNL     1      27.807  -1.935  52.881  1.00  0.00     0.001 A 
HETATM   22  C6  UNL     1      29.092  -2.277  53.290  1.00  0.00     0.000 A 
HETATM   23  C7  UNL     1      29.974  -1.290  53.641  1.00  0.00     0.001 A 
HETATM   24  C8  UNL     1      29.536   0.024  53.570  1.00  0.00     0.007 A 
ENDBRANCH  18  19
ENDBRANCH  15  18
ENDBRANCH   1  14
BRANCH   7  25
HETATM   25  C16 UNL     1      24.569   3.834  49.712  1.00  0.00     0.153 C 
BRANCH  25  26
HETATM   26  N2  UNL     1      25.868   3.410  49.378  1.00  0.00    -0.161 NA
HETATM   27  F1  UNL     1      26.598   4.467  48.860  1.00  0.00    -0.136 F 
HETATM   28  H15 UNL     1      26.399   3.241  50.298  1.00  0.00     0.159 HD
ENDBRANCH  25  26
ENDBRANCH   7  25
TORSDOF 5
ENDMDL
MODEL 2
REMARK VINA RESULT:      -8.3      3.345      6.379
REMARK  5 active torsions:
REMARK  status: ('A' for Active; 'I' for Inactive)
REMARK    1  A    between atoms: C1_2  and  C2_3 
REMARK       I    between atoms: C1_2  and  N1_10 
REMARK    2  A    between atoms: C2_3  and  C3_4 
REMARK    3  A    between atoms: N1_10  and  C9_11 
REMARK    4  A    between atoms: C15_17  and  C16_18 
REMARK    5  A    between atoms: C16_18  and  N2_19 
ROOT
HETATM    1  C9  UNL     1      22.599   1.280  52.055  1.00  0.00     0.044 A 
HETATM    2  C10 UNL     1      21.503   0.478  52.277  1.00  0.00     0.030 A 
HETATM    3  C11 UNL     1      21.538  -0.640  53.116  1.00  0.00     0.003 A 
HETATM    4  C12 UNL     1      22.754  -0.939  53.748  1.00  0.00     0.012 A 
HETATM    5  C13 UNL     1      23.807  -0.091  53.479  1.00  0.00    -0.023 A 
HETATM    6  C14 UNL     1      23.803   1.018  52.662  1.00  0.00     0.003 A 
HETATM    7  C15 UNL     1      24.938   1.949  52.474  1.00  0.00     0.141 C 
HETATM    8  N3  UNL     1      26.135   1.270  53.035  1.00  0.00    -0.340 N 
HETATM    9  C17 UNL     1      27.358   1.910  52.817  1.00  0.00     0.100 A 
HETATM   10  C18 UNL     1      28.425   1.381  53.377  1.00  0.00     0.069 A 
HETATM   11  S1  UNL     1      27.912  -0.090  54.316  1.00  0.00    -0.083 SA
HETATM   12  C19 UNL     1      26.175   0.097  53.832  1.00  0.00     0.077 A 
HETATM   13  C20 UNL     1      25.056  -0.547  54.073  1.00  0.00     0.049 C 
ENDROOT
BRANCH   1  14
HETATM   14  N1  UNL     1      22.474   2.357  51.149  1.00  0.00    -0.326 N 
HETATM   15  C1  UNL     1      22.315   2.362  49.756  1.00  0.00     0.226 C 
HETATM   16  O1  UNL     1      22.260   1.321  49.094  1.00  0.00    -0.273 OA
HETATM   17  H8  UNL     1      22.520   3.378  51.423  1.00  0.00     0.169 HD
BRANCH  15  18
HETATM   18  C2  UNL     1      22.187   3.501  48.817  1.00  0.00     0.141 C 
BRANCH  18  19
HETATM   19  C3  UNL     1      23.451   4.263  48.864  1.00  0.00    -0.050 A 
HETATM   20  C4  UNL     1      24.681   3.793  49.314  1.00  0.00     0.007 A 
HETATM   21  C5  UNL     1      25.795   4.605  49.308  1.00  0.00     0.001 A 
HETATM   22  C6  UNL     1      25.731   5.918  48.854  1.00  0.00     0.000 A 
HETATM   23  C7  UNL     1      24.539   6.419  48.403  1.00  0.00     0.001 A 
HETATM   24  C8  UNL     1      23.436   5.578  48.421  1.00  0.00     0.007 A 
ENDBRANCH  18  19
ENDBRANCH  15  18
ENDBRANCH   1  14
BRANCH   7  25
HETATM   25  C16 UNL     1      24.732   3.141  53.446  1.00  0.00     0.153 C 
BRANCH  25  26
HETATM   26  N2  UNL     1      24.192   4.310  52.880  1.00  0.00    -0.161 NA
HETATM   27  F1  UNL     1      23.795   5.185  53.877  1.00  0.00    -0.136 F 
HETATM   28  H15 UNL     1      25.006   4.865  52.448  1.00  0.00     0.159 HD
ENDBRANCH  25  26
ENDBRANCH   7  25
TORSDOF 5
ENDMDL
MODEL 3
REMARK VINA RESULT:      -8.2      3.364      6.285
REMARK  5 active torsions:
REMARK  status: ('A' for Active; 'I' for Inactive)
REMARK    1  A    between atoms: C1_2  and  C2_3 
REMARK       I    between atoms: C1_2  and  N1_10 
REMARK    2  A    between atoms: C2_3  and  C3_4 
REMARK    3  A    between atoms: N1_10  and  C9_11 
REMARK    4  A    between atoms: C15_17  and  C16_18 
REMARK    5  A    between atoms: C16_18  and  N2_19 
ROOT
HETATM    1  C9  UNL     1      25.762   2.106  52.037  1.00  0.00     0.044 A 
HETATM    2  C10 UNL     1      27.067   1.685  52.141  1.00  0.00     0.030 A 
HETATM    3  C11 UNL     1      27.428   0.464  52.721  1.00  0.00     0.003 A 
HETATM    4  C12 UNL     1      26.397  -0.349  53.212  1.00  0.00     0.012 A 
HETATM    5  C13 UNL     1      25.115   0.138  53.073  1.00  0.00    -0.023 A 
HETATM    6  C14 UNL     1      24.728   1.331  52.504  1.00  0.00     0.003 A 
HETATM    7  C15 UNL     1      23.330   1.771  52.299  1.00  0.00     0.141 C 
HETATM    8  N3  UNL     1      22.481   0.870  53.122  1.00  0.00    -0.340 N 
HETATM    9  C17 UNL     1      21.128   1.209  53.201  1.00  0.00     0.100 A 
HETATM   10  C18 UNL     1      20.335   0.382  53.847  1.00  0.00     0.069 A 
HETATM   11  S1  UNL     1      21.328  -1.020  54.444  1.00  0.00    -0.083 SA
HETATM   12  C19 UNL     1      22.864  -0.336  53.765  1.00  0.00     0.077 A 
HETATM   13  C20 UNL     1      24.122  -0.709  53.722  1.00  0.00     0.049 C 
ENDROOT
BRANCH   1  14
HETATM   14  N1  UNL     1      25.507   3.380  51.481  1.00  0.00    -0.326 N 
HETATM   15  C1  UNL     1      25.439   3.794  50.144  1.00  0.00     0.226 C 
HETATM   16  O1  UNL     1      25.612   3.015  49.202  1.00  0.00    -0.273 OA
HETATM   17  H8  UNL     1      25.354   4.260  52.048  1.00  0.00     0.169 HD
BRANCH  15  18
HETATM   18  C2  UNL     1      25.173   5.136  49.575  1.00  0.00     0.141 C 
BRANCH  18  19
HETATM   19  C3  UNL     1      26.420   5.608  48.940  1.00  0.00    -0.050 A 
HETATM   20  C4  UNL     1      27.618   4.906  48.854  1.00  0.00     0.007 A 
HETATM   21  C5  UNL     1      28.719   5.456  48.233  1.00  0.00     0.001 A 
HETATM   22  C6  UNL     1      28.673   6.728  47.672  1.00  0.00     0.000 A 
HETATM   23  C7  UNL     1      27.512   7.452  47.736  1.00  0.00     0.001 A 
HETATM   24  C8  UNL     1      26.421   6.872  48.366  1.00  0.00     0.007 A 
ENDBRANCH  18  19
ENDBRANCH  15  18
ENDBRANCH   1  14
BRANCH   7  25
HETATM   25  C16 UNL     1      22.928   1.394  50.849  1.00  0.00     0.153 C 
BRANCH  25  26
HETATM   26  N2  UNL     1      22.602   2.468  50.002  1.00  0.00    -0.161 NA
HETATM   27  F1  UNL     1      21.523   3.170  50.513  1.00  0.00    -0.136 F 
HETATM   28  H15 UNL     1      23.378   3.206  50.103  1.00  0.00     0.159 HD
ENDBRANCH  25  26
ENDBRANCH   7  25
TORSDOF 5
ENDMDL
MODEL 4
REMARK VINA RESULT:      -8.1      2.276      3.297
REMARK  5 active torsions:
REMARK  status: ('A' for Active; 'I' for Inactive)
REMARK    1  A    between atoms: C1_2  and  C2_3 
REMARK       I    between atoms: C1_2  and  N1_10 
REMARK    2  A    between atoms: C2_3  and  C3_4 
REMARK    3  A    between atoms: N1_10  and  C9_11 
REMARK    4  A    between atoms: C15_17  and  C16_18 
REMARK    5  A    between atoms: C16_18  and  N2_19 
ROOT
HETATM    1  C9  UNL     1      23.278   2.586  50.086  1.00  0.00     0.044 A 
HETATM    2  C10 UNL     1      22.400   1.794  49.383  1.00  0.00     0.030 A 
HETATM    3  C11 UNL     1      21.845   2.177  48.158  1.00  0.00     0.003 A 
HETATM    4  C12 UNL     1      22.213   3.428  47.642  1.00  0.00     0.012 A 
HETATM    5  C13 UNL     1      23.096   4.166  48.401  1.00  0.00    -0.023 A 
HETATM    6  C14 UNL     1      23.662   3.815  49.607  1.00  0.00     0.003 A 
HETATM    7  C15 UNL     1      24.674   4.606  50.342  1.00  0.00     0.141 C 
HETATM    8  N3  UNL     1      24.682   5.957  49.723  1.00  0.00    -0.340 N 
HETATM    9  C17 UNL     1      25.460   6.921  50.371  1.00  0.00     0.100 A 
HETATM   10  C18 UNL     1      25.559   8.101  49.798  1.00  0.00     0.069 A 
HETATM   11  S1  UNL     1      24.601   8.074  48.252  1.00  0.00    -0.083 SA
HETATM   12  C19 UNL     1      24.063   6.361  48.512  1.00  0.00     0.077 A 
HETATM   13  C20 UNL     1      23.322   5.498  47.856  1.00  0.00     0.049 C 
ENDROOT
BRANCH   1  14
HETATM   14  N1  UNL     1      23.742   2.130  51.340  1.00  0.00    -0.326 N 
HETATM   15  C1  UNL     1      23.243   1.132  52.188  1.00  0.00     0.226 C 
HETATM   16  O1  UNL     1      22.239   0.468  51.909  1.00  0.00    -0.273 OA
HETATM   17  H8  UNL     1      24.571   2.538  51.855  1.00  0.00     0.169 HD
BRANCH  15  18
HETATM   18  C2  UNL     1      23.740   0.665  53.504  1.00  0.00     0.141 C 
BRANCH  18  19
HETATM   19  C3  UNL     1      25.208   0.529  53.405  1.00  0.00    -0.050 A 
HETATM   20  C4  UNL     1      26.153   1.388  53.956  1.00  0.00     0.007 A 
HETATM   21  C5  UNL     1      27.502   1.154  53.795  1.00  0.00     0.001 A 
HETATM   22  C6  UNL     1      27.965   0.054  53.079  1.00  0.00     0.000 A 
HETATM   23  C7  UNL     1      27.065  -0.815  52.520  1.00  0.00     0.001 A 
HETATM   24  C8  UNL     1      25.715  -0.553  52.700  1.00  0.00     0.007 A 
ENDBRANCH  18  19
ENDBRANCH  15  18
ENDBRANCH   1  14
BRANCH   7  25
HETATM   25  C16 UNL     1      26.071   4.046  49.962  1.00  0.00     0.153 C 
BRANCH  25  26
HETATM   26  N2  UNL     1      26.742   3.331  50.971  1.00  0.00    -0.161 NA
HETATM   27  F1  UNL     1      26.828   1.991  50.632  1.00  0.00    -0.136 F 
HETATM   28  H15 UNL     1      27.780   3.608  50.928  1.00  0.00     0.159 HD
ENDBRANCH  25  26
ENDBRANCH   7  25
TORSDOF 5
ENDMDL
MODEL 5
REMARK VINA RESULT:      -7.9      2.713      6.422
REMARK  5 active torsions:
REMARK  status: ('A' for Active; 'I' for Inactive)
REMARK    1  A    between atoms: C1_2  and  C2_3 
REMARK       I    between atoms: C1_2  and  N1_10 
REMARK    2  A    between atoms: C2_3  and  C3_4 
REMARK    3  A    between atoms: N1_10  and  C9_11 
REMARK    4  A    between atoms: C15_17  and  C16_18 
REMARK    5  A    between atoms: C16_18  and  N2_19 
ROOT
HETATM    1  C9  UNL     1      25.875   1.955  52.060  1.00  0.00     0.044 A 
HETATM    2  C10 UNL     1      27.144   1.442  52.197  1.00  0.00     0.030 A 
HETATM    3  C11 UNL     1      27.400   0.190  52.765  1.00  0.00     0.003 A 
HETATM    4  C12 UNL     1      26.300  -0.559  53.207  1.00  0.00     0.012 A 
HETATM    5  C13 UNL     1      25.060   0.019  53.037  1.00  0.00    -0.023 A 
HETATM    6  C14 UNL     1      24.776   1.247  52.480  1.00  0.00     0.003 A 
HETATM    7  C15 UNL     1      23.419   1.786  52.239  1.00  0.00     0.141 C 
HETATM    8  N3  UNL     1      22.483   0.932  53.016  1.00  0.00    -0.340 N 
HETATM    9  C17 UNL     1      21.155   1.364  53.059  1.00  0.00     0.100 A 
HETATM   10  C18 UNL     1      20.285   0.583  53.664  1.00  0.00     0.069 A 
HETATM   11  S1  UNL     1      21.159  -0.894  54.265  1.00  0.00    -0.083 SA
HETATM   12  C19 UNL     1      22.760  -0.308  53.648  1.00  0.00     0.077 A 
HETATM   13  C20 UNL     1      23.990  -0.767  53.638  1.00  0.00     0.049 C 
ENDROOT
BRANCH   1  14
HETATM   14  N1  UNL     1      25.728   3.253  51.521  1.00  0.00    -0.326 N 
HETATM   15  C1  UNL     1      26.043   3.753  50.251  1.00  0.00     0.226 C 
HETATM   16  O1  UNL     1      26.535   3.046  49.366  1.00  0.00    -0.273 OA
HETATM   17  H8  UNL     1      25.361   4.086  52.061  1.00  0.00     0.169 HD
BRANCH  15  18
HETATM   18  C2  UNL     1      25.884   5.119  49.699  1.00  0.00     0.141 C 
BRANCH  18  19
HETATM   19  C3  UNL     1      24.465   5.501  49.851  1.00  0.00    -0.050 A 
HETATM   20  C4  UNL     1      23.791   5.708  51.050  1.00  0.00     0.007 A 
HETATM   21  C5  UNL     1      22.458   6.063  51.062  1.00  0.00     0.001 A 
HETATM   22  C6  UNL     1      21.743   6.227  49.880  1.00  0.00     0.000 A 
HETATM   23  C7  UNL     1      22.370   6.031  48.678  1.00  0.00     0.001 A 
HETATM   24  C8  UNL     1      23.711   5.675  48.699  1.00  0.00     0.007 A 
ENDBRANCH  18  19
ENDBRANCH  15  18
ENDBRANCH   1  14
BRANCH   7  25
HETATM   25  C16 UNL     1      23.040   1.462  50.770  1.00  0.00     0.153 C 
BRANCH  25  26
HETATM   26  N2  UNL     1      22.670   2.561  49.973  1.00  0.00    -0.161 NA
HETATM   27  F1  UNL     1      23.306   2.498  48.745  1.00  0.00    -0.136 F 
HETATM   28  H15 UNL     1      21.649   2.411  49.671  1.00  0.00     0.159 HD
ENDBRANCH  25  26
ENDBRANCH   7  25
TORSDOF 5
ENDMDL
MODEL 6
REMARK VINA RESULT:      -7.9      2.537      3.802
REMARK  5 active torsions:
REMARK  status: ('A' for Active; 'I' for Inactive)
REMARK    1  A    between atoms: C1_2  and  C2_3 
REMARK       I    between atoms: C1_2  and  N1_10 
REMARK    2  A    between atoms: C2_3  and  C3_4 
REMARK    3  A    between atoms: N1_10  and  C9_11 
REMARK    4  A    between atoms: C15_17  and  C16_18 
REMARK    5  A    between atoms: C16_18  and  N2_19 
ROOT
HETATM    1  C9  UNL     1      25.222   2.750  50.607  1.00  0.00     0.044 A 
HETATM    2  C10 UNL     1      26.379   3.474  50.432  1.00  0.00     0.030 A 
HETATM    3  C11 UNL     1      26.452   4.602  49.609  1.00  0.00     0.003 A 
HETATM    4  C12 UNL     1      25.282   4.995  48.942  1.00  0.00     0.012 A 
HETATM    5  C13 UNL     1      24.163   4.222  49.166  1.00  0.00    -0.023 A 
HETATM    6  C14 UNL     1      24.059   3.110  49.971  1.00  0.00     0.003 A 
HETATM    7  C15 UNL     1      22.810   2.365  50.248  1.00  0.00     0.141 C 
HETATM    8  N3  UNL     1      21.817   2.822  49.241  1.00  0.00    -0.340 N 
HETATM    9  C17 UNL     1      20.605   2.125  49.219  1.00  0.00     0.100 A 
HETATM   10  C18 UNL     1      19.672   2.563  48.401  1.00  0.00     0.069 A 
HETATM   11  S1  UNL     1      20.310   4.027  47.531  1.00  0.00    -0.083 SA
HETATM   12  C19 UNL     1      21.919   3.929  48.360  1.00  0.00     0.077 A 
HETATM   13  C20 UNL     1      23.033   4.624  48.338  1.00  0.00     0.049 C 
ENDROOT
BRANCH   1  14
HETATM   14  N1  UNL     1      25.266   1.594  51.419  1.00  0.00    -0.326 N 
HETATM   15  C1  UNL     1      25.244   1.460  52.814  1.00  0.00     0.226 C 
HETATM   16  O1  UNL     1      25.176   2.433  53.570  1.00  0.00    -0.273 OA
HETATM   17  H8  UNL     1      25.362   0.608  51.050  1.00  0.00     0.169 HD
BRANCH  15  18
HETATM   18  C2  UNL     1      25.293   0.240  53.653  1.00  0.00     0.141 C 
BRANCH  18  19
HETATM   19  C3  UNL     1      26.676  -0.278  53.609  1.00  0.00    -0.050 A 
HETATM   20  C4  UNL     1      27.123  -1.372  52.874  1.00  0.00     0.007 A 
HETATM   21  C5  UNL     1      28.445  -1.760  52.915  1.00  0.00     0.001 A 
HETATM   22  C6  UNL     1      29.377  -1.075  53.688  1.00  0.00     0.000 A 
HETATM   23  C7  UNL     1      28.976   0.008  54.427  1.00  0.00     0.001 A 
HETATM   24  C8  UNL     1      27.640   0.373  54.365  1.00  0.00     0.007 A 
ENDBRANCH  18  19
ENDBRANCH  15  18
ENDBRANCH   1  14
BRANCH   7  25
HETATM   25  C16 UNL     1      22.226   2.908  51.579  1.00  0.00     0.153 C 
BRANCH  25  26
HETATM   26  N2  UNL     1      22.048   1.961  52.604  1.00  0.00    -0.161 NA
HETATM   27  F1  UNL     1      22.127   0.678  52.089  1.00  0.00    -0.136 F 
HETATM   28  H15 UNL     1      22.931   1.979  53.217  1.00  0.00     0.159 HD
ENDBRANCH  25  26
ENDBRANCH   7  25
TORSDOF 5
ENDMDL
MODEL 7
REMARK VINA RESULT:      -7.7      2.799      4.817
REMARK  5 active torsions:
REMARK  status: ('A' for Active; 'I' for Inactive)
REMARK    1  A    between atoms: C1_2  and  C2_3 
REMARK       I    between atoms: C1_2  and  N1_10 
REMARK    2  A    between atoms: C2_3  and  C3_4 
REMARK    3  A    between atoms: N1_10  and  C9_11 
REMARK    4  A    between atoms: C15_17  and  C16_18 
REMARK    5  A    between atoms: C16_18  and  N2_19 
ROOT
HETATM    1  C9  UNL     1      25.574   5.481  49.584  1.00  0.00     0.044 A 
HETATM    2  C10 UNL     1      26.582   6.146  48.925  1.00  0.00     0.030 A 
HETATM    3  C11 UNL     1      26.342   7.070  47.904  1.00  0.00     0.003 A 
HETATM    4  C12 UNL     1      25.007   7.314  47.551  1.00  0.00     0.012 A 
HETATM    5  C13 UNL     1      24.051   6.613  48.254  1.00  0.00    -0.023 A 
HETATM    6  C14 UNL     1      24.256   5.701  49.265  1.00  0.00     0.003 A 
HETATM    7  C15 UNL     1      23.191   5.037  50.051  1.00  0.00     0.141 C 
HETATM    8  N3  UNL     1      21.920   5.270  49.316  1.00  0.00    -0.340 N 
HETATM    9  C17 UNL     1      20.800   4.590  49.801  1.00  0.00     0.100 A 
HETATM   10  C18 UNL     1      19.643   4.844  49.228  1.00  0.00     0.069 A 
HETATM   11  S1  UNL     1      19.907   6.084  47.924  1.00  0.00    -0.083 SA
HETATM   12  C19 UNL     1      21.692   6.161  48.235  1.00  0.00     0.077 A 
HETATM   13  C20 UNL     1      22.706   6.831  47.738  1.00  0.00     0.049 C 
ENDROOT
BRANCH   1  14
HETATM   14  N1  UNL     1      25.924   4.528  50.566  1.00  0.00    -0.326 N 
HETATM   15  C1  UNL     1      26.431   3.228  50.434  1.00  0.00     0.226 C 
HETATM   16  O1  UNL     1      26.652   2.713  49.333  1.00  0.00    -0.273 OA
HETATM   17  H8  UNL     1      25.809   4.672  51.607  1.00  0.00     0.169 HD
BRANCH  15  18
HETATM   18  C2  UNL     1      26.792   2.237  51.475  1.00  0.00     0.141 C 
BRANCH  18  19
HETATM   19  C3  UNL     1      25.543   1.593  51.933  1.00  0.00    -0.050 A 
HETATM   20  C4  UNL     1      24.265   1.829  51.435  1.00  0.00     0.007 A 
HETATM   21  C5  UNL     1      23.172   1.163  51.947  1.00  0.00     0.001 A 
HETATM   22  C6  UNL     1      23.306   0.234  52.974  1.00  0.00     0.000 A 
HETATM   23  C7  UNL     1      24.548  -0.026  53.492  1.00  0.00     0.001 A 
HETATM   24  C8  UNL     1      25.628   0.660  52.956  1.00  0.00     0.007 A 
ENDBRANCH  18  19
ENDBRANCH  15  18
ENDBRANCH   1  14
BRANCH   7  25
HETATM   25  C16 UNL     1      22.990   5.856  51.353  1.00  0.00     0.153 C 
BRANCH  25  26
HETATM   26  N2  UNL     1      23.903   5.595  52.391  1.00  0.00    -0.161 NA
HETATM   27  F1  UNL     1      23.547   4.436  53.060  1.00  0.00    -0.136 F 
HETATM   28  H15 UNL     1      24.826   5.281  51.937  1.00  0.00     0.159 HD
ENDBRANCH  25  26
ENDBRANCH   7  25
TORSDOF 5
ENDMDL
MODEL 8
REMARK VINA RESULT:      -7.5      3.872      6.703
REMARK  5 active torsions:
REMARK  status: ('A' for Active; 'I' for Inactive)
REMARK    1  A    between atoms: C1_2  and  C2_3 
REMARK       I    between atoms: C1_2  and  N1_10 
REMARK    2  A    between atoms: C2_3  and  C3_4 
REMARK    3  A    between atoms: N1_10  and  C9_11 
REMARK    4  A    between atoms: C15_17  and  C16_18 
REMARK    5  A    between atoms: C16_18  and  N2_19 
ROOT
HETATM    1  C9  UNL     1      20.742   0.632  51.015  1.00  0.00     0.044 A 
HETATM    2  C10 UNL     1      19.378   0.457  50.963  1.00  0.00     0.030 A 
HETATM    3  C11 UNL     1      18.642  -0.094  52.017  1.00  0.00     0.003 A 
HETATM    4  C12 UNL     1      19.346  -0.478  53.167  1.00  0.00     0.012 A 
HETATM    5  C13 UNL     1      20.708  -0.273  53.148  1.00  0.00    -0.023 A 
HETATM    6  C14 UNL     1      21.460   0.270  52.129  1.00  0.00     0.003 A 
HETATM    7  C15 UNL     1      22.911   0.552  52.189  1.00  0.00     0.141 C 
HETATM    8  N3  UNL     1      23.430  -0.171  53.380  1.00  0.00    -0.340 N 
HETATM    9  C17 UNL     1      24.819  -0.172  53.537  1.00  0.00     0.100 A 
HETATM   10  C18 UNL     1      25.303  -0.726  54.628  1.00  0.00     0.069 A 
HETATM   11  S1  UNL     1      23.912  -1.330  55.633  1.00  0.00    -0.083 SA
HETATM   12  C19 UNL     1      22.682  -0.787  54.416  1.00  0.00     0.077 A 
HETATM   13  C20 UNL     1      21.372  -0.816  54.326  1.00  0.00     0.049 C 
ENDROOT
BRANCH   1  14
HETATM   14  N1  UNL     1      21.399   1.149  49.876  1.00  0.00    -0.326 N 
HETATM   15  C1  UNL     1      21.310   2.408  49.267  1.00  0.00     0.226 C 
HETATM   16  O1  UNL     1      20.573   3.300  49.697  1.00  0.00    -0.273 OA
HETATM   17  H8  UNL     1      22.070   0.599  49.272  1.00  0.00     0.169 HD
BRANCH  15  18
HETATM   18  C2  UNL     1      22.005   2.937  48.069  1.00  0.00     0.141 C 
BRANCH  18  19
HETATM   19  C3  UNL     1      23.151   3.743  48.538  1.00  0.00    -0.050 A 
HETATM   20  C4  UNL     1      24.232   3.284  49.284  1.00  0.00     0.007 A 
HETATM   21  C5  UNL     1      25.246   4.138  49.662  1.00  0.00     0.001 A 
HETATM   22  C6  UNL     1      25.226   5.484  49.313  1.00  0.00     0.000 A 
HETATM   23  C7  UNL     1      24.179   5.976  48.579  1.00  0.00     0.001 A 
HETATM   24  C8  UNL     1      23.174   5.092  48.213  1.00  0.00     0.007 A 
ENDBRANCH  18  19
ENDBRANCH  15  18
ENDBRANCH   1  14
BRANCH   7  25
HETATM   25  C16 UNL     1      23.083   2.041  52.590  1.00  0.00     0.153 C 
BRANCH  25  26
HETATM   26  N2  UNL     1      21.940   2.849  52.456  1.00  0.00    -0.161 NA
HETATM   27  F1  UNL     1      22.306   4.151  52.159  1.00  0.00    -0.136 F 
HETATM   28  H15 UNL     1      21.453   2.571  51.539  1.00  0.00     0.159 HD
ENDBRANCH  25  26
ENDBRANCH   7  25
TORSDOF 5
ENDMDL
MODEL 9
REMARK VINA RESULT:      -7.5      3.262      6.580
REMARK  5 active torsions:
REMARK  status: ('A' for Active; 'I' for Inactive)
REMARK    1  A    between atoms: C1_2  and  C2_3 
REMARK       I    between atoms: C1_2  and  N1_10 
REMARK    2  A    between atoms: C2_3  and  C3_4 
REMARK    3  A    between atoms: N1_10  and  C9_11 
REMARK    4  A    between atoms: C15_17  and  C16_18 
REMARK    5  A    between atoms: C16_18  and  N2_19 
ROOT
HETATM    1  C9  UNL     1      22.281   1.920  50.415  1.00  0.00     0.044 A 
HETATM    2  C10 UNL     1      20.995   1.522  50.131  1.00  0.00     0.030 A 
HETATM    3  C11 UNL     1      20.315   0.559  50.883  1.00  0.00     0.003 A 
HETATM    4  C12 UNL     1      20.992  -0.014  51.969  1.00  0.00     0.012 A 
HETATM    5  C13 UNL     1      22.277   0.433  52.192  1.00  0.00    -0.023 A 
HETATM    6  C14 UNL     1      22.971   1.381  51.474  1.00  0.00     0.003 A 
HETATM    7  C15 UNL     1      24.320   1.892  51.807  1.00  0.00     0.141 C 
HETATM    8  N3  UNL     1      24.887   0.956  52.813  1.00  0.00    -0.340 N 
HETATM    9  C17 UNL     1      26.227   1.162  53.152  1.00  0.00     0.100 A 
HETATM   10  C18 UNL     1      26.732   0.408  54.104  1.00  0.00     0.069 A 
HETATM   11  S1  UNL     1      25.429  -0.710  54.704  1.00  0.00    -0.083 SA
HETATM   12  C19 UNL     1      24.210  -0.065  53.528  1.00  0.00     0.077 A 
HETATM   13  C20 UNL     1      22.948  -0.304  53.255  1.00  0.00     0.049 C 
ENDROOT
BRANCH   1  14
HETATM   14  N1  UNL     1      22.899   2.862  49.563  1.00  0.00    -0.326 N 
HETATM   15  C1  UNL     1      22.358   3.947  48.860  1.00  0.00     0.226 C 
HETATM   16  O1  UNL     1      21.158   4.234  48.909  1.00  0.00    -0.273 OA
HETATM   17  H8  UNL     1      23.924   2.850  49.300  1.00  0.00     0.169 HD
BRANCH  15  18
HETATM   18  C2  UNL     1      23.018   4.928  47.967  1.00  0.00     0.141 C 
BRANCH  18  19
HETATM   19  C3  UNL     1      23.736   5.897  48.820  1.00  0.00    -0.050 A 
HETATM   20  C4  UNL     1      23.160   6.906  49.586  1.00  0.00     0.007 A 
HETATM   21  C5  UNL     1      23.939   7.752  50.346  1.00  0.00     0.001 A 
HETATM   22  C6  UNL     1      25.324   7.629  50.374  1.00  0.00     0.000 A 
HETATM   23  C7  UNL     1      25.931   6.649  49.633  1.00  0.00     0.001 A 
HETATM   24  C8  UNL     1      25.120   5.813  48.880  1.00  0.00     0.007 A 
ENDBRANCH  18  19
ENDBRANCH  15  18
ENDBRANCH   1  14
BRANCH   7  25
HETATM   25  C16 UNL     1      24.137   3.201  52.620  1.00  0.00     0.153 C 
BRANCH  25  26
HETATM   26  N2  UNL     1      24.462   4.393  51.949  1.00  0.00    -0.161 NA
HETATM   27  F1  UNL     1      23.788   5.462  52.516  1.00  0.00    -0.136 F 
HETATM   28  H15 UNL     1      25.475   4.644  52.208  1.00  0.00     0.159 HD
ENDBRANCH  25  26
ENDBRANCH   7  25
TORSDOF 5
ENDMDL
