MODEL 1
REMARK VINA RESULT:      -7.8      0.000      0.000
REMARK  5 active torsions:
REMARK  status: ('A' for Active; 'I' for Inactive)
REMARK    1  A    between atoms: C1_2  and  N1_3 
REMARK    2  A    between atoms: N1_3  and  C2_4 
REMARK    3  A    between atoms: C7_10  and  N2_11 
REMARK    4  A    between atoms: N2_11  and  S1_12 
REMARK    5  A    between atoms: S1_12  and  C8_15 
ROOT
HETATM    1  N2  UNL     1      25.330   1.377  52.180  1.00  0.00    -0.203 NA
HETATM    2  H6  UNL     1      25.340   0.565  51.525  1.00  0.00     0.140 HD
ENDROOT
BRANCH   1   3
HETATM    3  C7  UNL     1      24.166   1.362  53.016  1.00  0.00     0.144 A 
HETATM    4  C2  UNL     1      23.586  -0.033  53.006  1.00  0.00     0.159 A 
HETATM    5  C3  UNL     1      22.165  -0.019  52.566  1.00  0.00     0.002 A 
HETATM    6  C4  UNL     1      21.330   0.904  52.195  1.00  0.00    -0.000 A 
HETATM    7  C5  UNL     1      21.875   2.254  52.198  1.00  0.00     0.021 A 
HETATM    8  C6  UNL     1      23.137   2.331  52.578  1.00  0.00     0.033 A 
HETATM    9 CL1  UNL     1      23.864   3.941  52.605  1.00  0.00    -0.087 Cl
BRANCH   4  10
HETATM   10  N1  UNL     1      23.727  -0.686  54.300  1.00  0.00    -0.236 NA
BRANCH  10  11
HETATM   11  C1  UNL     1      22.709  -1.213  54.884  1.00  0.00     0.332 C 
HETATM   12  O1  UNL     1      21.775  -1.931  55.247  1.00  0.00    -0.260 OA
ENDBRANCH  10  11
ENDBRANCH   4  10
ENDBRANCH   1   3
BRANCH   1  13
HETATM   13  S1  UNL     1      26.810   1.512  53.024  1.00  0.00     0.242 S 
HETATM   14  O2  UNL     1      27.697   2.442  52.224  1.00  0.00    -0.206 OA
HETATM   15  O3  UNL     1      26.680   2.101  54.374  1.00  0.00    -0.206 OA
BRANCH  13  16
HETATM   16  C8  UNL     1      27.643  -0.025  53.079  1.00  0.00     0.074 A 
HETATM   17  C9  UNL     1      28.966  -0.098  53.509  1.00  0.00     0.025 A 
HETATM   18  C10 UNL     1      29.578  -1.335  53.534  1.00  0.00     0.002 A 
HETATM   19  C11 UNL     1      28.963  -2.511  53.159  1.00  0.00     0.000 A 
HETATM   20  C12 UNL     1      27.635  -2.452  52.725  1.00  0.00     0.002 A 
HETATM   21  C13 UNL     1      27.030  -1.207  52.703  1.00  0.00     0.025 A 
ENDBRANCH  13  16
ENDBRANCH   1  13
TORSDOF 5
ENDMDL
MODEL 2
REMARK VINA RESULT:      -7.5      4.026      6.029
REMARK  5 active torsions:
REMARK  status: ('A' for Active; 'I' for Inactive)
REMARK    1  A    between atoms: C1_2  and  N1_3 
REMARK    2  A    between atoms: N1_3  and  C2_4 
REMARK    3  A    between atoms: C7_10  and  N2_11 
REMARK    4  A    between atoms: N2_11  and  S1_12 
REMARK    5  A    between atoms: S1_12  and  C8_15 
ROOT
HETATM    1  N2  UNL     1      24.794   2.270  50.806  1.00  0.00    -0.203 NA
HETATM    2  H6  UNL     1      25.374   1.929  50.009  1.00  0.00     0.140 HD
ENDROOT
BRANCH   1   3
HETATM    3  C7  UNL     1      25.392   1.946  52.068  1.00  0.00     0.144 A 
HETATM    4  C2  UNL     1      26.805   1.474  51.821  1.00  0.00     0.159 A 
HETATM    5  C3  UNL     1      27.024   0.117  52.389  1.00  0.00     0.002 A 
HETATM    6  C4  UNL     1      26.287  -0.736  53.034  1.00  0.00    -0.000 A 
HETATM    7  C5  UNL     1      24.920  -0.295  53.278  1.00  0.00     0.021 A 
HETATM    8  C6  UNL     1      24.642   0.904  52.804  1.00  0.00     0.033 A 
HETATM    9 CL1  UNL     1      23.000   1.503  53.064  1.00  0.00    -0.087 Cl
BRANCH   4  10
HETATM   10  N1  UNL     1      27.788   2.420  52.333  1.00  0.00    -0.236 NA
BRANCH  10  11
HETATM   11  C1  UNL     1      28.302   2.265  53.502  1.00  0.00     0.332 C 
HETATM   12  O1  UNL     1      28.948   2.354  54.547  1.00  0.00    -0.260 OA
ENDBRANCH  10  11
ENDBRANCH   4  10
ENDBRANCH   1   3
BRANCH   1  13
HETATM   13  S1  UNL     1      24.384   3.918  50.615  1.00  0.00     0.242 S 
HETATM   14  O2  UNL     1      23.139   3.972  49.757  1.00  0.00    -0.206 OA
HETATM   15  O3  UNL     1      24.060   4.607  51.883  1.00  0.00    -0.206 OA
BRANCH  13  16
HETATM   16  C8  UNL     1      25.624   4.774  49.726  1.00  0.00     0.074 A 
HETATM   17  C9  UNL     1      26.782   4.117  49.317  1.00  0.00     0.025 A 
HETATM   18  C10 UNL     1      27.730   4.837  48.618  1.00  0.00     0.002 A 
HETATM   19  C11 UNL     1      27.607   6.172  48.297  1.00  0.00     0.000 A 
HETATM   20  C12 UNL     1      26.449   6.844  48.703  1.00  0.00     0.002 A 
HETATM   21  C13 UNL     1      25.504   6.114  49.402  1.00  0.00     0.025 A 
ENDBRANCH  13  16
ENDBRANCH   1  13
TORSDOF 5
ENDMDL
MODEL 3
REMARK VINA RESULT:      -6.9      2.435      3.538
REMARK  5 active torsions:
REMARK  status: ('A' for Active; 'I' for Inactive)
REMARK    1  A    between atoms: C1_2  and  N1_3 
REMARK    2  A    between atoms: N1_3  and  C2_4 
REMARK    3  A    between atoms: C7_10  and  N2_11 
REMARK    4  A    between atoms: N2_11  and  S1_12 
REMARK    5  A    between atoms: S1_12  and  C8_15 
ROOT
HETATM    1  N2  UNL     1      25.724   1.901  53.659  1.00  0.00    -0.203 NA
HETATM    2  H6  UNL     1      25.489   2.734  54.241  1.00  0.00     0.140 HD
ENDROOT
BRANCH   1   3
HETATM    3  C7  UNL     1      24.849   1.786  52.529  1.00  0.00     0.144 A 
HETATM    4  C2  UNL     1      24.461   3.174  52.080  1.00  0.00     0.159 A 
HETATM    5  C3  UNL     1      22.983   3.341  52.068  1.00  0.00     0.002 A 
HETATM    6  C4  UNL     1      21.973   2.576  52.355  1.00  0.00    -0.000 A 
HETATM    7  C5  UNL     1      22.331   1.234  52.792  1.00  0.00     0.021 A 
HETATM    8  C6  UNL     1      23.630   1.003  52.831  1.00  0.00     0.033 A 
HETATM    9 CL1  UNL     1      24.137  -0.608  53.354  1.00  0.00    -0.087 Cl
BRANCH   4  10
HETATM   10  N1  UNL     1      25.034   3.501  50.781  1.00  0.00    -0.236 NA
BRANCH  10  11
HETATM   11  C1  UNL     1      25.110   4.722  50.384  1.00  0.00     0.332 C 
HETATM   12  O1  UNL     1      24.973   5.933  50.205  1.00  0.00    -0.260 OA
ENDBRANCH  10  11
ENDBRANCH   4  10
ENDBRANCH   1   3
BRANCH   1  13
HETATM   13  S1  UNL     1      27.389   1.861  53.276  1.00  0.00     0.242 S 
HETATM   14  O2  UNL     1      27.538   2.404  51.872  1.00  0.00    -0.206 OA
HETATM   15  O3  UNL     1      28.228   2.706  54.152  1.00  0.00    -0.206 OA
BRANCH  13  16
HETATM   16  C8  UNL     1      27.981   0.215  53.226  1.00  0.00     0.074 A 
HETATM   17  C9  UNL     1      29.266  -0.088  53.666  1.00  0.00     0.025 A 
HETATM   18  C10 UNL     1      29.686  -1.402  53.606  1.00  0.00     0.002 A 
HETATM   19  C11 UNL     1      28.911  -2.441  53.134  1.00  0.00     0.000 A 
HETATM   20  C12 UNL     1      27.618  -2.150  52.688  1.00  0.00     0.002 A 
HETATM   21  C13 UNL     1      27.207  -0.830  52.752  1.00  0.00     0.025 A 
ENDBRANCH  13  16
ENDBRANCH   1  13
TORSDOF 5
ENDMDL
MODEL 4
REMARK VINA RESULT:      -6.7      3.775      5.690
REMARK  5 active torsions:
REMARK  status: ('A' for Active; 'I' for Inactive)
REMARK    1  A    between atoms: C1_2  and  N1_3 
REMARK    2  A    between atoms: N1_3  and  C2_4 
REMARK    3  A    between atoms: C7_10  and  N2_11 
REMARK    4  A    between atoms: N2_11  and  S1_12 
REMARK    5  A    between atoms: S1_12  and  C8_15 
ROOT
HETATM    1  N2  UNL     1      24.108   2.198  51.438  1.00  0.00    -0.203 NA
HETATM    2  H6  UNL     1      24.816   1.798  50.784  1.00  0.00     0.140 HD
ENDROOT
BRANCH   1   3
HETATM    3  C7  UNL     1      24.373   1.817  52.795  1.00  0.00     0.144 A 
HETATM    4  C2  UNL     1      25.839   1.473  52.918  1.00  0.00     0.159 A 
HETATM    5  C3  UNL     1      26.022   0.093  53.444  1.00  0.00     0.002 A 
HETATM    6  C4  UNL     1      25.222  -0.862  53.811  1.00  0.00    -0.000 A 
HETATM    7  C5  UNL     1      23.806  -0.545  53.695  1.00  0.00     0.021 A 
HETATM    8  C6  UNL     1      23.554   0.666  53.234  1.00  0.00     0.033 A 
HETATM    9 CL1  UNL     1      21.853   1.118  53.067  1.00  0.00    -0.087 Cl
BRANCH   4  10
HETATM   10  N1  UNL     1      26.555   2.443  53.735  1.00  0.00    -0.236 NA
BRANCH  10  11
HETATM   11  C1  UNL     1      27.832   2.372  53.872  1.00  0.00     0.332 C 
HETATM   12  O1  UNL     1      29.013   2.531  54.184  1.00  0.00    -0.260 OA
ENDBRANCH  10  11
ENDBRANCH   4  10
ENDBRANCH   1   3
BRANCH   1  13
HETATM   13  S1  UNL     1      23.918   3.878  51.195  1.00  0.00     0.242 S 
HETATM   14  O2  UNL     1      22.643   4.074  50.403  1.00  0.00    -0.206 OA
HETATM   15  O3  UNL     1      23.767   4.653  52.446  1.00  0.00    -0.206 OA
BRANCH  13  16
HETATM   16  C8  UNL     1      25.209   4.519  50.203  1.00  0.00     0.074 A 
HETATM   17  C9  UNL     1      26.260   3.701  49.796  1.00  0.00     0.025 A 
HETATM   18  C10 UNL     1      27.254   4.255  49.014  1.00  0.00     0.002 A 
HETATM   19  C11 UNL     1      27.276   5.572  48.607  1.00  0.00     0.000 A 
HETATM   20  C12 UNL     1      26.226   6.404  49.010  1.00  0.00     0.002 A 
HETATM   21  C13 UNL     1      25.234   5.840  49.794  1.00  0.00     0.025 A 
ENDBRANCH  13  16
ENDBRANCH   1  13
TORSDOF 5
ENDMDL
MODEL 5
REMARK VINA RESULT:      -6.7      2.447      3.161
REMARK  5 active torsions:
REMARK  status: ('A' for Active; 'I' for Inactive)
REMARK    1  A    between atoms: C1_2  and  N1_3 
REMARK    2  A    between atoms: N1_3  and  C2_4 
REMARK    3  A    between atoms: C7_10  and  N2_11 
REMARK    4  A    between atoms: N2_11  and  S1_12 
REMARK    5  A    between atoms: S1_12  and  C8_15 
ROOT
HETATM    1  N2  UNL     1      25.284   1.163  51.584  1.00  0.00    -0.203 NA
HETATM    2  H6  UNL     1      24.830   0.342  51.127  1.00  0.00     0.140 HD
ENDROOT
BRANCH   1   3
HETATM    3  C7  UNL     1      24.509   2.357  51.408  1.00  0.00     0.144 A 
HETATM    4  C2  UNL     1      23.051   1.974  51.328  1.00  0.00     0.159 A 
HETATM    5  C3  UNL     1      22.436   2.467  50.066  1.00  0.00     0.002 A 
HETATM    6  C4  UNL     1      22.865   3.137  49.039  1.00  0.00    -0.000 A 
HETATM    7  C5  UNL     1      24.270   3.511  49.101  1.00  0.00     0.021 A 
HETATM    8  C6  UNL     1      24.893   3.110  50.194  1.00  0.00     0.033 A 
HETATM    9 CL1  UNL     1      26.604   3.530  50.336  1.00  0.00    -0.087 Cl
BRANCH   4  10
HETATM   10  N1  UNL     1      22.305   2.440  52.489  1.00  0.00    -0.236 NA
BRANCH  10  11
HETATM   11  C1  UNL     1      21.051   2.710  52.400  1.00  0.00     0.332 C 
HETATM   12  O1  UNL     1      19.862   2.959  52.607  1.00  0.00    -0.260 OA
ENDBRANCH  10  11
ENDBRANCH   4  10
ENDBRANCH   1   3
BRANCH   1  13
HETATM   13  S1  UNL     1      25.701   0.819  53.205  1.00  0.00     0.242 S 
HETATM   14  O2  UNL     1      25.763   2.140  53.941  1.00  0.00    -0.206 OA
HETATM   15  O3  UNL     1      24.712  -0.020  53.915  1.00  0.00    -0.206 OA
BRANCH  13  16
HETATM   16  C8  UNL     1      27.307   0.131  53.307  1.00  0.00     0.074 A 
HETATM   17  C9  UNL     1      27.509  -1.228  53.081  1.00  0.00     0.025 A 
HETATM   18  C10 UNL     1      28.795  -1.722  53.173  1.00  0.00     0.002 A 
HETATM   19  C11 UNL     1      29.899  -0.953  53.476  1.00  0.00     0.000 A 
HETATM   20  C12 UNL     1      29.710   0.413  53.705  1.00  0.00     0.002 A 
HETATM   21  C13 UNL     1      28.417   0.899  53.610  1.00  0.00     0.025 A 
ENDBRANCH  13  16
ENDBRANCH   1  13
TORSDOF 5
ENDMDL
MODEL 6
REMARK VINA RESULT:      -6.6      3.101      7.005
REMARK  5 active torsions:
REMARK  status: ('A' for Active; 'I' for Inactive)
REMARK    1  A    between atoms: C1_2  and  N1_3 
REMARK    2  A    between atoms: N1_3  and  C2_4 
REMARK    3  A    between atoms: C7_10  and  N2_11 
REMARK    4  A    between atoms: N2_11  and  S1_12 
REMARK    5  A    between atoms: S1_12  and  C8_15 
ROOT
HETATM    1  N2  UNL     1      22.510  -0.729  53.116  1.00  0.00    -0.203 NA
HETATM    2  H6  UNL     1      22.312  -0.753  52.092  1.00  0.00     0.140 HD
ENDROOT
BRANCH   1   3
HETATM    3  C7  UNL     1      23.471   0.283  53.441  1.00  0.00     0.144 A 
HETATM    4  C2  UNL     1      23.679   1.154  52.225  1.00  0.00     0.159 A 
HETATM    5  C3  UNL     1      25.113   1.191  51.830  1.00  0.00     0.002 A 
HETATM    6  C4  UNL     1      26.203   0.651  52.287  1.00  0.00    -0.000 A 
HETATM    7  C5  UNL     1      26.017  -0.194  53.458  1.00  0.00     0.021 A 
HETATM    8  C6  UNL     1      24.769  -0.281  53.875  1.00  0.00     0.033 A 
HETATM    9 CL1  UNL     1      24.471  -1.291  55.294  1.00  0.00    -0.087 Cl
BRANCH   4  10
HETATM   10  N1  UNL     1      23.159   2.500  52.429  1.00  0.00    -0.236 NA
BRANCH  10  11
HETATM   11  C1  UNL     1      23.759   3.520  51.925  1.00  0.00     0.332 C 
HETATM   12  O1  UNL     1      24.068   4.618  51.460  1.00  0.00    -0.260 OA
ENDBRANCH  10  11
ENDBRANCH   4  10
ENDBRANCH   1   3
BRANCH   1  13
HETATM   13  S1  UNL     1      21.066  -0.658  54.027  1.00  0.00     0.242 S 
HETATM   14  O2  UNL     1      20.919  -1.986  54.737  1.00  0.00    -0.206 OA
HETATM   15  O3  UNL     1      21.066   0.389  55.072  1.00  0.00    -0.206 OA
BRANCH  13  16
HETATM   16  C8  UNL     1      19.671  -0.510  52.981  1.00  0.00     0.074 A 
HETATM   17  C9  UNL     1      19.738   0.251  51.817  1.00  0.00     0.025 A 
HETATM   18  C10 UNL     1      18.610   0.335  51.026  1.00  0.00     0.002 A 
HETATM   19  C11 UNL     1      17.414  -0.287  51.313  1.00  0.00     0.000 A 
HETATM   20  C12 UNL     1      17.333  -1.055  52.480  1.00  0.00     0.002 A 
HETATM   21  C13 UNL     1      18.469  -1.133  53.267  1.00  0.00     0.025 A 
ENDBRANCH  13  16
ENDBRANCH   1  13
TORSDOF 5
ENDMDL
MODEL 7
REMARK VINA RESULT:      -6.6      3.488      6.583
REMARK  5 active torsions:
REMARK  status: ('A' for Active; 'I' for Inactive)
REMARK    1  A    between atoms: C1_2  and  N1_3 
REMARK    2  A    between atoms: N1_3  and  C2_4 
REMARK    3  A    between atoms: C7_10  and  N2_11 
REMARK    4  A    between atoms: N2_11  and  S1_12 
REMARK    5  A    between atoms: S1_12  and  C8_15 
ROOT
HETATM    1  N2  UNL     1      24.300   1.858  50.910  1.00  0.00    -0.203 NA
HETATM    2  H6  UNL     1      24.725   1.390  50.081  1.00  0.00     0.140 HD
ENDROOT
BRANCH   1   3
HETATM    3  C7  UNL     1      25.072   1.628  52.096  1.00  0.00     0.144 A 
HETATM    4  C2  UNL     1      26.485   1.284  51.688  1.00  0.00     0.159 A 
HETATM    5  C3  UNL     1      26.900  -0.030  52.249  1.00  0.00     0.002 A 
HETATM    6  C4  UNL     1      26.330  -0.930  52.992  1.00  0.00    -0.000 A 
HETATM    7  C5  UNL     1      24.966  -0.613  53.391  1.00  0.00     0.021 A 
HETATM    8  C6  UNL     1      24.519   0.541  52.935  1.00  0.00     0.033 A 
HETATM    9 CL1  UNL     1      22.869   0.989  53.381  1.00  0.00    -0.087 Cl
BRANCH   4  10
HETATM   10  N1  UNL     1      27.425   2.332  52.062  1.00  0.00    -0.236 NA
BRANCH  10  11
HETATM   11  C1  UNL     1      27.997   2.321  53.215  1.00  0.00     0.332 C 
HETATM   12  O1  UNL     1      28.672   2.555  54.218  1.00  0.00    -0.260 OA
ENDBRANCH  10  11
ENDBRANCH   4  10
ENDBRANCH   1   3
BRANCH   1  13
HETATM   13  S1  UNL     1      23.960   3.502  50.590  1.00  0.00     0.242 S 
HETATM   14  O2  UNL     1      22.944   3.956  51.615  1.00  0.00    -0.206 OA
HETATM   15  O3  UNL     1      25.132   4.394  50.725  1.00  0.00    -0.206 OA
BRANCH  13  16
HETATM   16  C8  UNL     1      23.194   3.691  49.029  1.00  0.00     0.074 A 
HETATM   17  C9  UNL     1      22.672   2.588  48.359  1.00  0.00     0.025 A 
HETATM   18  C10 UNL     1      22.077   2.791  47.130  1.00  0.00     0.002 A 
HETATM   19  C11 UNL     1      21.964   4.021  46.518  1.00  0.00     0.000 A 
HETATM   20  C12 UNL     1      22.484   5.138  47.180  1.00  0.00     0.002 A 
HETATM   21  C13 UNL     1      23.079   4.924  48.412  1.00  0.00     0.025 A 
ENDBRANCH  13  16
ENDBRANCH   1  13
TORSDOF 5
ENDMDL
MODEL 8
REMARK VINA RESULT:      -6.5      2.727      5.286
REMARK  5 active torsions:
REMARK  status: ('A' for Active; 'I' for Inactive)
REMARK    1  A    between atoms: C1_2  and  N1_3 
REMARK    2  A    between atoms: N1_3  and  C2_4 
REMARK    3  A    between atoms: C7_10  and  N2_11 
REMARK    4  A    between atoms: N2_11  and  S1_12 
REMARK    5  A    between atoms: S1_12  and  C8_15 
ROOT
HETATM    1  N2  UNL     1      24.404   2.645  52.832  1.00  0.00    -0.203 NA
HETATM    2  H6  UNL     1      24.022   2.647  53.802  1.00  0.00     0.140 HD
ENDROOT
BRANCH   1   3
HETATM    3  C7  UNL     1      24.583   1.309  52.341  1.00  0.00     0.144 A 
HETATM    4  C2  UNL     1      24.138   0.342  53.413  1.00  0.00     0.159 A 
HETATM    5  C3  UNL     1      25.230  -0.605  53.766  1.00  0.00     0.002 A 
HETATM    6  C4  UNL     1      26.454  -0.782  53.368  1.00  0.00    -0.000 A 
HETATM    7  C5  UNL     1      26.897   0.145  52.336  1.00  0.00     0.021 A 
HETATM    8  C6  UNL     1      25.985   1.023  51.964  1.00  0.00     0.033 A 
HETATM    9 CL1  UNL     1      26.455   2.181  50.714  1.00  0.00    -0.087 Cl
BRANCH   4  10
HETATM   10  N1  UNL     1      22.929  -0.373  53.027  1.00  0.00    -0.236 NA
BRANCH  10  11
HETATM   11  C1  UNL     1      22.257  -1.043  53.896  1.00  0.00     0.332 C 
HETATM   12  O1  UNL     1      21.823  -1.593  54.909  1.00  0.00    -0.260 OA
ENDBRANCH  10  11
ENDBRANCH   4  10
ENDBRANCH   1   3
BRANCH   1  13
HETATM   13  S1  UNL     1      23.496   3.664  51.804  1.00  0.00     0.242 S 
HETATM   14  O2  UNL     1      22.343   4.208  52.619  1.00  0.00    -0.206 OA
HETATM   15  O3  UNL     1      24.250   4.832  51.297  1.00  0.00    -0.206 OA
BRANCH  13  16
HETATM   16  C8  UNL     1      22.778   2.755  50.493  1.00  0.00     0.074 A 
HETATM   17  C9  UNL     1      23.245   2.903  49.190  1.00  0.00     0.025 A 
HETATM   18  C10 UNL     1      22.644   2.163  48.192  1.00  0.00     0.002 A 
HETATM   19  C11 UNL     1      21.606   1.280  48.401  1.00  0.00     0.000 A 
HETATM   20  C12 UNL     1      21.127   1.122  49.705  1.00  0.00     0.002 A 
HETATM   21  C13 UNL     1      21.735   1.869  50.699  1.00  0.00     0.025 A 
ENDBRANCH  13  16
ENDBRANCH   1  13
TORSDOF 5
ENDMDL
MODEL 9
REMARK VINA RESULT:      -6.4      5.424      7.729
REMARK  5 active torsions:
REMARK  status: ('A' for Active; 'I' for Inactive)
REMARK    1  A    between atoms: C1_2  and  N1_3 
REMARK    2  A    between atoms: N1_3  and  C2_4 
REMARK    3  A    between atoms: C7_10  and  N2_11 
REMARK    4  A    between atoms: N2_11  and  S1_12 
REMARK    5  A    between atoms: S1_12  and  C8_15 
ROOT
HETATM    1  N2  UNL     1      24.466   5.019  48.989  1.00  0.00    -0.203 NA
HETATM    2  H6  UNL     1      24.172   5.603  48.176  1.00  0.00     0.140 HD
ENDROOT
BRANCH   1   3
HETATM    3  C7  UNL     1      25.703   5.482  49.548  1.00  0.00     0.144 A 
HETATM    4  C2  UNL     1      25.935   6.902  49.087  1.00  0.00     0.159 A 
HETATM    5  C3  UNL     1      27.242   7.031  48.389  1.00  0.00     0.002 A 
HETATM    6  C4  UNL     1      28.207   6.214  48.093  1.00  0.00    -0.000 A 
HETATM    7  C5  UNL     1      27.996   4.841  48.529  1.00  0.00     0.021 A 
HETATM    8  C6  UNL     1      26.855   4.639  49.159  1.00  0.00     0.033 A 
HETATM    9 CL1  UNL     1      26.533   2.993  49.716  1.00  0.00    -0.087 Cl
BRANCH   4  10
HETATM   10  N1  UNL     1      25.833   7.850  50.188  1.00  0.00    -0.236 NA
BRANCH  10  11
HETATM   11  C1  UNL     1      26.637   8.851  50.270  1.00  0.00     0.332 C 
HETATM   12  O1  UNL     1      27.500   9.670  50.589  1.00  0.00    -0.260 OA
ENDBRANCH  10  11
ENDBRANCH   4  10
ENDBRANCH   1   3
BRANCH   1  13
HETATM   13  S1  UNL     1      23.196   4.843  50.119  1.00  0.00     0.242 S 
HETATM   14  O2  UNL     1      23.221   6.064  51.012  1.00  0.00    -0.206 OA
HETATM   15  O3  UNL     1      21.851   4.788  49.507  1.00  0.00    -0.206 OA
BRANCH  13  16
HETATM   16  C8  UNL     1      23.475   3.469  51.166  1.00  0.00     0.074 A 
HETATM   17  C9  UNL     1      23.006   2.206  50.815  1.00  0.00     0.025 A 
HETATM   18  C10 UNL     1      23.252   1.155  51.676  1.00  0.00     0.002 A 
HETATM   19  C11 UNL     1      23.935   1.274  52.867  1.00  0.00     0.000 A 
HETATM   20  C12 UNL     1      24.412   2.537  53.232  1.00  0.00     0.002 A 
HETATM   21  C13 UNL     1      24.160   3.585  52.363  1.00  0.00     0.025 A 
ENDBRANCH  13  16
ENDBRANCH   1  13
TORSDOF 5
ENDMDL
