MODEL 1
REMARK VINA RESULT:      -7.3      0.000      0.000
REMARK  1 active torsions:
REMARK  status: ('A' for Active; 'I' for Inactive)
REMARK    1  A    between atoms: C8_11  and  O1_12 
ROOT
HETATM    1  C1  UNL     1      18.634   3.599  51.445  1.00  0.00     0.036 C 
HETATM    2  C2  UNL     1      20.097   3.648  51.068  1.00  0.00     0.102 C 
HETATM    3  C3  UNL     1      20.899   2.961  52.106  1.00  0.00     0.017 C 
HETATM    4  C4  UNL     1      21.540   1.849  51.853  1.00  0.00     0.010 C 
HETATM    5 BR1  UNL     1      21.475   1.038  50.106  1.00  0.00    -0.051 Br
HETATM    6  C5  UNL     1      22.333   1.197  52.889  1.00  0.00     0.036 C 
HETATM    7  C6  UNL     1      22.993   0.056  52.631  1.00  0.00     0.090 C 
HETATM    8  N1  UNL     1      23.763  -0.568  53.653  1.00  0.00    -0.360 N 
HETATM    9  C7  UNL     1      24.976   0.184  53.474  1.00  0.00     0.209 C 
HETATM   10  N2  UNL     1      25.264   1.428  53.434  1.00  0.00    -0.220 NA
HETATM   11  C8  UNL     1      26.546   1.987  53.242  1.00  0.00     0.169 C 
HETATM   12  C9  UNL     1      27.067   2.359  52.085  1.00  0.00     0.105 C 
HETATM   13  S1  UNL     1      26.171   2.190  50.558  1.00  0.00    -0.111 SA
HETATM   14  C10 UNL     1      26.468   3.568  49.442  1.00  0.00     0.254 C 
HETATM   15  O2  UNL     1      25.942   4.782  49.956  1.00  0.00    -0.341 OA
HETATM   16  C11 UNL     1      24.569   4.854  50.205  1.00  0.00     0.070 A 
HETATM   17  C12 UNL     1      24.111   5.365  51.404  1.00  0.00     0.039 A 
HETATM   18  C13 UNL     1      22.751   5.425  51.630  1.00  0.00     0.032 A 
HETATM   19  C14 UNL     1      21.865   4.980  50.671  1.00  0.00     0.028 A 
HETATM   20  C15 UNL     1      22.329   4.471  49.476  1.00  0.00     0.032 A 
HETATM   21  C16 UNL     1      23.690   4.407  49.238  1.00  0.00     0.039 A 
HETATM   22  N3  UNL     1      20.475   5.050  50.949  1.00  0.00    -0.382 N 
HETATM   23  H8  UNL     1      23.706  -1.306  54.385  1.00  0.00     0.166 HD
HETATM   24  H18 UNL     1      19.888   5.914  51.041  1.00  0.00     0.160 HD
ENDROOT
BRANCH  11  25
HETATM   25  O1  UNL     1      27.234   2.114  54.437  1.00  0.00    -0.344 OA
HETATM   26  H10 UNL     1      27.637   1.326  54.937  1.00  0.00     0.219 HD
ENDBRANCH  11  25
TORSDOF 1
ENDMDL
MODEL 2
REMARK VINA RESULT:      -7.0      3.697      5.616
REMARK  1 active torsions:
REMARK  status: ('A' for Active; 'I' for Inactive)
REMARK    1  A    between atoms: C8_11  and  O1_12 
ROOT
HETATM    1  C1  UNL     1      21.851   0.047  53.867  1.00  0.00     0.036 C 
HETATM    2  C2  UNL     1      21.783   0.690  52.500  1.00  0.00     0.102 C 
HETATM    3  C3  UNL     1      21.836   2.162  52.643  1.00  0.00     0.017 C 
HETATM    4  C4  UNL     1      22.853   2.857  52.203  1.00  0.00     0.010 C 
HETATM    5 BR1  UNL     1      24.348   1.999  51.343  1.00  0.00    -0.051 Br
HETATM    6  C5  UNL     1      22.876   4.308  52.344  1.00  0.00     0.036 C 
HETATM    7  C6  UNL     1      23.919   5.025  51.893  1.00  0.00     0.090 C 
HETATM    8  N1  UNL     1      23.927   6.442  52.039  1.00  0.00    -0.360 N 
HETATM    9  C7  UNL     1      23.180   6.766  50.853  1.00  0.00     0.209 C 
HETATM   10  N2  UNL     1      22.054   6.401  50.373  1.00  0.00    -0.220 NA
HETATM   11  C8  UNL     1      21.475   6.841  49.163  1.00  0.00     0.169 C 
HETATM   12  C9  UNL     1      21.584   6.246  47.987  1.00  0.00     0.105 C 
HETATM   13  S1  UNL     1      22.520   4.747  47.781  1.00  0.00    -0.111 SA
HETATM   14  C10 UNL     1      21.745   3.619  46.613  1.00  0.00     0.254 C 
HETATM   15  O2  UNL     1      20.507   3.126  47.103  1.00  0.00    -0.341 OA
HETATM   16  C11 UNL     1      20.512   2.405  48.300  1.00  0.00     0.070 A 
HETATM   17  C12 UNL     1      19.591   2.699  49.287  1.00  0.00     0.039 A 
HETATM   18  C13 UNL     1      19.613   1.976  50.462  1.00  0.00     0.032 A 
HETATM   19  C14 UNL     1      20.544   0.974  50.645  1.00  0.00     0.028 A 
HETATM   20  C15 UNL     1      21.461   0.685  49.656  1.00  0.00     0.032 A 
HETATM   21  C16 UNL     1      21.447   1.403  48.474  1.00  0.00     0.039 A 
HETATM   22  N3  UNL     1      20.539   0.262  51.873  1.00  0.00    -0.382 N 
HETATM   23  H8  UNL     1      24.270   7.197  52.667  1.00  0.00     0.166 HD
HETATM   24  H18 UNL     1      19.806  -0.403  52.219  1.00  0.00     0.160 HD
ENDROOT
BRANCH  11  25
HETATM   25  O1  UNL     1      20.749   8.008  49.335  1.00  0.00    -0.344 OA
HETATM   26  H10 UNL     1      19.736   8.051  49.265  1.00  0.00     0.219 HD
ENDBRANCH  11  25
TORSDOF 1
ENDMDL
MODEL 3
REMARK VINA RESULT:      -6.9      2.692      5.369
REMARK  1 active torsions:
REMARK  status: ('A' for Active; 'I' for Inactive)
REMARK    1  A    between atoms: C8_11  and  O1_12 
ROOT
HETATM    1  C1  UNL     1      22.262  -1.124  53.560  1.00  0.00     0.036 C 
HETATM    2  C2  UNL     1      22.552   0.241  52.978  1.00  0.00     0.102 C 
HETATM    3  C3  UNL     1      22.000   0.322  51.607  1.00  0.00     0.017 C 
HETATM    4  C4  UNL     1      21.010   1.124  51.313  1.00  0.00     0.010 C 
HETATM    5 BR1  UNL     1      20.208   2.250  52.655  1.00  0.00    -0.051 Br
HETATM    6  C5  UNL     1      20.491   1.195  49.952  1.00  0.00     0.036 C 
HETATM    7  C6  UNL     1      19.475   2.019  49.647  1.00  0.00     0.090 C 
HETATM    8  N1  UNL     1      18.979   2.076  48.313  1.00  0.00    -0.360 N 
HETATM    9  C7  UNL     1      19.921   3.031  47.794  1.00  0.00     0.209 C 
HETATM   10  N2  UNL     1      21.196   3.116  47.771  1.00  0.00    -0.220 NA
HETATM   11  C8  UNL     1      21.958   4.158  47.201  1.00  0.00     0.169 C 
HETATM   12  C9  UNL     1      22.416   5.223  47.837  1.00  0.00     0.105 C 
HETATM   13  S1  UNL     1      22.110   5.482  49.570  1.00  0.00    -0.111 SA
HETATM   14  C10 UNL     1      23.525   6.214  50.406  1.00  0.00     0.254 C 
HETATM   15  O2  UNL     1      24.634   5.329  50.434  1.00  0.00    -0.341 OA
HETATM   16  C11 UNL     1      24.478   4.096  51.073  1.00  0.00     0.070 A 
HETATM   17  C12 UNL     1      24.901   2.937  50.452  1.00  0.00     0.039 A 
HETATM   18  C13 UNL     1      24.737   1.730  51.100  1.00  0.00     0.032 A 
HETATM   19  C14 UNL     1      24.158   1.686  52.352  1.00  0.00     0.028 A 
HETATM   20  C15 UNL     1      23.738   2.847  52.967  1.00  0.00     0.032 A 
HETATM   21  C16 UNL     1      23.898   4.061  52.327  1.00  0.00     0.039 A 
HETATM   22  N3  UNL     1      23.998   0.422  52.979  1.00  0.00    -0.382 N 
HETATM   23  H8  UNL     1      18.239   1.681  47.698  1.00  0.00     0.166 HD
HETATM   24  H18 UNL     1      24.753  -0.206  53.344  1.00  0.00     0.160 HD
ENDROOT
BRANCH  11  25
HETATM   25  O1  UNL     1      22.190   3.947  45.853  1.00  0.00    -0.344 OA
HETATM   26  H10 UNL     1      22.527   3.065  45.475  1.00  0.00     0.219 HD
ENDBRANCH  11  25
TORSDOF 1
ENDMDL
MODEL 4
REMARK VINA RESULT:      -6.9      2.763      4.114
REMARK  1 active torsions:
REMARK  status: ('A' for Active; 'I' for Inactive)
REMARK    1  A    between atoms: C8_11  and  O1_12 
ROOT
HETATM    1  C1  UNL     1      21.668   5.846  48.066  1.00  0.00     0.036 C 
HETATM    2  C2  UNL     1      22.337   4.847  48.983  1.00  0.00     0.102 C 
HETATM    3  C3  UNL     1      21.312   4.174  49.812  1.00  0.00     0.017 C 
HETATM    4  C4  UNL     1      21.052   2.898  49.680  1.00  0.00     0.010 C 
HETATM    5 BR1  UNL     1      21.993   1.820  48.390  1.00  0.00    -0.051 Br
HETATM    6  C5  UNL     1      20.047   2.255  50.517  1.00  0.00     0.036 C 
HETATM    7  C6  UNL     1      19.779   0.945  50.384  1.00  0.00     0.090 C 
HETATM    8  N1  UNL     1      18.793   0.332  51.209  1.00  0.00    -0.360 N 
HETATM    9  C7  UNL     1      19.632   0.054  52.344  1.00  0.00     0.209 C 
HETATM   10  N2  UNL     1      20.415   0.750  53.075  1.00  0.00    -0.220 NA
HETATM   11  C8  UNL     1      21.173   0.287  54.171  1.00  0.00     0.169 C 
HETATM   12  C9  UNL     1      22.427  -0.131  54.129  1.00  0.00     0.105 C 
HETATM   13  S1  UNL     1      23.351  -0.162  52.610  1.00  0.00    -0.111 SA
HETATM   14  C10 UNL     1      25.074   0.292  52.856  1.00  0.00     0.254 C 
HETATM   15  O2  UNL     1      25.207   1.649  53.252  1.00  0.00    -0.341 OA
HETATM   16  C11 UNL     1      24.728   2.638  52.389  1.00  0.00     0.070 A 
HETATM   17  C12 UNL     1      23.941   3.661  52.880  1.00  0.00     0.039 A 
HETATM   18  C13 UNL     1      23.478   4.627  52.011  1.00  0.00     0.032 A 
HETATM   19  C14 UNL     1      23.798   4.568  50.670  1.00  0.00     0.028 A 
HETATM   20  C15 UNL     1      24.584   3.544  50.185  1.00  0.00     0.032 A 
HETATM   21  C16 UNL     1      25.055   2.571  51.048  1.00  0.00     0.039 A 
HETATM   22  N3  UNL     1      23.291   5.576  49.808  1.00  0.00    -0.382 N 
HETATM   23  H8  UNL     1      17.788   0.066  51.221  1.00  0.00     0.166 HD
HETATM   24  H18 UNL     1      23.556   6.590  49.792  1.00  0.00     0.160 HD
ENDROOT
BRANCH  11  25
HETATM   25  O1  UNL     1      20.443   0.315  55.348  1.00  0.00    -0.344 OA
HETATM   26  H10 UNL     1      19.930  -0.485  55.707  1.00  0.00     0.219 HD
ENDBRANCH  11  25
TORSDOF 1
ENDMDL
MODEL 5
REMARK VINA RESULT:      -6.8      8.523     11.834
REMARK  1 active torsions:
REMARK  status: ('A' for Active; 'I' for Inactive)
REMARK    1  A    between atoms: C8_11  and  O1_12 
ROOT
HETATM    1  C1  UNL     1      35.285   9.513  45.165  1.00  0.00     0.036 C 
HETATM    2  C2  UNL     1      34.136   8.731  45.761  1.00  0.00     0.102 C 
HETATM    3  C3  UNL     1      33.143   9.668  46.333  1.00  0.00     0.017 C 
HETATM    4  C4  UNL     1      31.944   9.791  45.825  1.00  0.00     0.010 C 
HETATM    5 BR1  UNL     1      31.400   8.755  44.295  1.00  0.00    -0.051 Br
HETATM    6  C5  UNL     1      30.980  10.713  46.414  1.00  0.00     0.036 C 
HETATM    7  C6  UNL     1      29.747  10.840  45.895  1.00  0.00     0.090 C 
HETATM    8  N1  UNL     1      28.817  11.745  46.482  1.00  0.00    -0.360 N 
HETATM    9  C7  UNL     1      28.307  10.869  47.502  1.00  0.00     0.209 C 
HETATM   10  N2  UNL     1      28.834  10.157  48.422  1.00  0.00    -0.220 NA
HETATM   11  C8  UNL     1      28.151   9.341  49.349  1.00  0.00     0.169 C 
HETATM   12  C9  UNL     1      27.899   8.051  49.212  1.00  0.00     0.105 C 
HETATM   13  S1  UNL     1      28.416   7.145  47.771  1.00  0.00    -0.111 SA
HETATM   14  C10 UNL     1      28.957   5.478  48.176  1.00  0.00     0.254 C 
HETATM   15  O2  UNL     1      30.142   5.487  48.957  1.00  0.00    -0.341 OA
HETATM   16  C11 UNL     1      31.285   6.079  48.414  1.00  0.00     0.070 A 
HETATM   17  C12 UNL     1      32.029   6.965  49.168  1.00  0.00     0.039 A 
HETATM   18  C13 UNL     1      33.154   7.539  48.613  1.00  0.00     0.032 A 
HETATM   19  C14 UNL     1      33.528   7.230  47.321  1.00  0.00     0.028 A 
HETATM   20  C15 UNL     1      32.781   6.343  46.573  1.00  0.00     0.032 A 
HETATM   21  C16 UNL     1      31.652   5.762  47.120  1.00  0.00     0.039 A 
HETATM   22  N3  UNL     1      34.685   7.851  46.784  1.00  0.00    -0.382 N 
HETATM   23  H8  UNL     1      28.455  12.716  46.394  1.00  0.00     0.166 HD
HETATM   24  H18 UNL     1      35.681   7.697  47.073  1.00  0.00     0.160 HD
ENDROOT
BRANCH  11  25
HETATM   25  O1  UNL     1      27.753  10.056  50.466  1.00  0.00    -0.344 OA
HETATM   26  H10 UNL     1      26.792  10.343  50.634  1.00  0.00     0.219 HD
ENDBRANCH  11  25
TORSDOF 1
ENDMDL
MODEL 6
REMARK VINA RESULT:      -6.4      9.687     11.552
REMARK  1 active torsions:
REMARK  status: ('A' for Active; 'I' for Inactive)
REMARK    1  A    between atoms: C8_11  and  O1_12 
ROOT
HETATM    1  C1  UNL     1      29.354  12.749  48.960  1.00  0.00     0.036 C 
HETATM    2  C2  UNL     1      29.980  11.830  47.935  1.00  0.00     0.102 C 
HETATM    3  C3  UNL     1      30.732  10.758  48.627  1.00  0.00     0.017 C 
HETATM    4  C4  UNL     1      30.355   9.507  48.564  1.00  0.00     0.010 C 
HETATM    5 BR1  UNL     1      28.791   8.987  47.565  1.00  0.00    -0.051 Br
HETATM    6  C5  UNL     1      31.118   8.467  49.244  1.00  0.00     0.036 C 
HETATM    7  C6  UNL     1      30.734   7.181  49.180  1.00  0.00     0.090 C 
HETATM    8  N1  UNL     1      31.490   6.177  49.850  1.00  0.00    -0.360 N 
HETATM    9  C7  UNL     1      32.466   5.946  48.819  1.00  0.00     0.209 C 
HETATM   10  N2  UNL     1      33.260   6.690  48.149  1.00  0.00    -0.220 NA
HETATM   11  C8  UNL     1      34.166   6.268  47.153  1.00  0.00     0.169 C 
HETATM   12  C9  UNL     1      33.931   6.233  45.852  1.00  0.00     0.105 C 
HETATM   13  S1  UNL     1      32.367   6.738  45.170  1.00  0.00    -0.111 SA
HETATM   14  C10 UNL     1      32.558   7.605  43.606  1.00  0.00     0.254 C 
HETATM   15  O2  UNL     1      33.219   8.850  43.774  1.00  0.00    -0.341 OA
HETATM   16  C11 UNL     1      32.628   9.804  44.607  1.00  0.00     0.070 A 
HETATM   17  C12 UNL     1      33.389  10.459  45.555  1.00  0.00     0.039 A 
HETATM   18  C13 UNL     1      32.786  11.396  46.368  1.00  0.00     0.032 A 
HETATM   19  C14 UNL     1      31.441  11.673  46.233  1.00  0.00     0.028 A 
HETATM   20  C15 UNL     1      30.686  11.015  45.284  1.00  0.00     0.032 A 
HETATM   21  C16 UNL     1      31.281  10.075  44.463  1.00  0.00     0.039 A 
HETATM   22  N3  UNL     1      30.857  12.636  47.097  1.00  0.00    -0.382 N 
HETATM   23  H8  UNL     1      31.531   5.643  50.741  1.00  0.00     0.166 HD
HETATM   24  H18 UNL     1      31.034  13.669  47.108  1.00  0.00     0.160 HD
ENDROOT
BRANCH  11  25
HETATM   25  O1  UNL     1      35.379   5.878  47.694  1.00  0.00    -0.344 OA
HETATM   26  H10 UNL     1      36.041   5.278  47.208  1.00  0.00     0.219 HD
ENDBRANCH  11  25
TORSDOF 1
ENDMDL
MODEL 7
REMARK VINA RESULT:      -6.2      9.337     11.641
REMARK  1 active torsions:
REMARK  status: ('A' for Active; 'I' for Inactive)
REMARK    1  A    between atoms: C8_11  and  O1_12 
ROOT
HETATM    1  C1  UNL     1      28.506  11.770  47.188  1.00  0.00     0.036 C 
HETATM    2  C2  UNL     1      29.436  10.630  47.539  1.00  0.00     0.102 C 
HETATM    3  C3  UNL     1      29.898   9.969  46.298  1.00  0.00     0.017 C 
HETATM    4  C4  UNL     1      31.150  10.016  45.922  1.00  0.00     0.010 C 
HETATM    5 BR1  UNL     1      32.469  10.954  46.966  1.00  0.00    -0.051 Br
HETATM    6  C5  UNL     1      31.583   9.346  44.701  1.00  0.00     0.036 C 
HETATM    7  C6  UNL     1      32.869   9.391  44.313  1.00  0.00     0.090 C 
HETATM    8  N1  UNL     1      33.276   8.732  43.118  1.00  0.00    -0.360 N 
HETATM    9  C7  UNL     1      33.482   7.422  43.676  1.00  0.00     0.209 C 
HETATM   10  N2  UNL     1      32.772   6.621  44.375  1.00  0.00    -0.220 NA
HETATM   11  C8  UNL     1      33.158   5.346  44.840  1.00  0.00     0.169 C 
HETATM   12  C9  UNL     1      33.693   5.077  46.019  1.00  0.00     0.105 C 
HETATM   13  S1  UNL     1      34.006   6.355  47.217  1.00  0.00    -0.111 SA
HETATM   14  C10 UNL     1      33.686   5.801  48.898  1.00  0.00     0.254 C 
HETATM   15  O2  UNL     1      32.308   5.534  49.109  1.00  0.00    -0.341 OA
HETATM   16  C11 UNL     1      31.398   6.580  48.930  1.00  0.00     0.070 A 
HETATM   17  C12 UNL     1      30.252   6.378  48.187  1.00  0.00     0.039 A 
HETATM   18  C13 UNL     1      29.367   7.425  48.022  1.00  0.00     0.032 A 
HETATM   19  C14 UNL     1      29.628   8.654  48.593  1.00  0.00     0.028 A 
HETATM   20  C15 UNL     1      30.776   8.848  49.334  1.00  0.00     0.032 A 
HETATM   21  C16 UNL     1      31.668   7.806  49.506  1.00  0.00     0.039 A 
HETATM   22  N3  UNL     1      28.698   9.706  48.389  1.00  0.00    -0.382 N 
HETATM   23  H8  UNL     1      33.443   8.904  42.106  1.00  0.00     0.166 HD
HETATM   24  H18 UNL     1      27.723   9.774  48.770  1.00  0.00     0.160 HD
ENDROOT
BRANCH  11  25
HETATM   25  O1  UNL     1      32.910   4.360  43.900  1.00  0.00    -0.344 OA
HETATM   26  H10 UNL     1      33.594   3.655  43.636  1.00  0.00     0.219 HD
ENDBRANCH  11  25
TORSDOF 1
ENDMDL
MODEL 8
REMARK VINA RESULT:      -5.9      3.109      5.103
REMARK  1 active torsions:
REMARK  status: ('A' for Active; 'I' for Inactive)
REMARK    1  A    between atoms: C8_11  and  O1_12 
ROOT
HETATM    1  C1  UNL     1      18.331   4.452  46.748  1.00  0.00     0.036 C 
HETATM    2  C2  UNL     1      19.223   3.985  47.876  1.00  0.00     0.102 C 
HETATM    3  C3  UNL     1      20.628   4.343  47.577  1.00  0.00     0.017 C 
HETATM    4  C4  UNL     1      21.279   5.222  48.294  1.00  0.00     0.010 C 
HETATM    5 BR1  UNL     1      20.440   6.107  49.787  1.00  0.00    -0.051 Br
HETATM    6  C5  UNL     1      22.666   5.550  47.987  1.00  0.00     0.036 C 
HETATM    7  C6  UNL     1      23.337   6.452  48.723  1.00  0.00     0.090 C 
HETATM    8  N1  UNL     1      24.692   6.761  48.410  1.00  0.00    -0.360 N 
HETATM    9  C7  UNL     1      25.312   5.689  49.142  1.00  0.00     0.209 C 
HETATM   10  N2  UNL     1      25.169   4.420  49.172  1.00  0.00    -0.220 NA
HETATM   11  C8  UNL     1      25.888   3.513  49.979  1.00  0.00     0.169 C 
HETATM   12  C9  UNL     1      25.516   3.063  51.165  1.00  0.00     0.105 C 
HETATM   13  S1  UNL     1      23.990   3.575  51.923  1.00  0.00    -0.111 SA
HETATM   14  C10 UNL     1      23.193   2.232  52.816  1.00  0.00     0.254 C 
HETATM   15  O2  UNL     1      22.755   1.207  51.938  1.00  0.00    -0.341 OA
HETATM   16  C11 UNL     1      21.825   1.538  50.949  1.00  0.00     0.070 A 
HETATM   17  C12 UNL     1      22.027   1.126  49.646  1.00  0.00     0.039 A 
HETATM   18  C13 UNL     1      21.098   1.465  48.684  1.00  0.00     0.032 A 
HETATM   19  C14 UNL     1      19.984   2.206  49.022  1.00  0.00     0.028 A 
HETATM   20  C15 UNL     1      19.788   2.615  50.325  1.00  0.00     0.032 A 
HETATM   21  C16 UNL     1      20.713   2.280  51.297  1.00  0.00     0.039 A 
HETATM   22  N3  UNL     1      19.059   2.542  48.000  1.00  0.00    -0.382 N 
HETATM   23  H8  UNL     1      25.274   7.441  47.881  1.00  0.00     0.166 HD
HETATM   24  H18 UNL     1      18.424   1.891  47.478  1.00  0.00     0.160 HD
ENDROOT
BRANCH  11  25
HETATM   25  O1  UNL     1      27.074   3.121  49.379  1.00  0.00    -0.344 OA
HETATM   26  H10 UNL     1      27.119   2.684  48.463  1.00  0.00     0.219 HD
ENDBRANCH  11  25
TORSDOF 1
ENDMDL
MODEL 9
REMARK VINA RESULT:      -5.9     10.312     12.313
REMARK  1 active torsions:
REMARK  status: ('A' for Active; 'I' for Inactive)
REMARK    1  A    between atoms: C8_11  and  O1_12 
ROOT
HETATM    1  C1  UNL     1      30.990  11.168  48.695  1.00  0.00     0.036 C 
HETATM    2  C2  UNL     1      31.459  10.463  47.441  1.00  0.00     0.102 C 
HETATM    3  C3  UNL     1      31.988   9.126  47.794  1.00  0.00     0.017 C 
HETATM    4  C4  UNL     1      31.390   8.029  47.407  1.00  0.00     0.010 C 
HETATM    5 BR1  UNL     1      29.778   8.091  46.353  1.00  0.00    -0.051 Br
HETATM    6  C5  UNL     1      31.937   6.723  47.757  1.00  0.00     0.036 C 
HETATM    7  C6  UNL     1      31.326   5.594  47.360  1.00  0.00     0.090 C 
HETATM    8  N1  UNL     1      31.873   4.327  47.710  1.00  0.00    -0.360 N 
HETATM    9  C7  UNL     1      32.811   4.211  46.625  1.00  0.00     0.209 C 
HETATM   10  N2  UNL     1      33.740   4.953  46.157  1.00  0.00    -0.220 NA
HETATM   11  C8  UNL     1      34.574   4.660  45.057  1.00  0.00     0.169 C 
HETATM   12  C9  UNL     1      34.363   5.023  43.803  1.00  0.00     0.105 C 
HETATM   13  S1  UNL     1      32.931   5.967  43.331  1.00  0.00    -0.111 SA
HETATM   14  C10 UNL     1      33.309   7.177  42.055  1.00  0.00     0.254 C 
HETATM   15  O2  UNL     1      34.183   8.189  42.533  1.00  0.00    -0.341 OA
HETATM   16  C11 UNL     1      33.759   8.971  43.610  1.00  0.00     0.070 A 
HETATM   17  C12 UNL     1      34.607   9.195  44.676  1.00  0.00     0.039 A 
HETATM   18  C13 UNL     1      34.169   9.970  45.731  1.00  0.00     0.032 A 
HETATM   19  C14 UNL     1      32.900  10.512  45.716  1.00  0.00     0.028 A 
HETATM   20  C15 UNL     1      32.057  10.284  44.648  1.00  0.00     0.032 A 
HETATM   21  C16 UNL     1      32.487   9.510  43.586  1.00  0.00     0.039 A 
HETATM   22  N3  UNL     1      32.485  11.294  46.826  1.00  0.00    -0.382 N 
HETATM   23  H8  UNL     1      31.797   3.572  48.422  1.00  0.00     0.166 HD
HETATM   24  H18 UNL     1      32.847  12.236  47.110  1.00  0.00     0.160 HD
ENDROOT
BRANCH  11  25
HETATM   25  O1  UNL     1      35.684   3.924  45.436  1.00  0.00    -0.344 OA
HETATM   26  H10 UNL     1      35.639   2.949  45.721  1.00  0.00     0.219 HD
ENDBRANCH  11  25
TORSDOF 1
ENDMDL
