MODEL 1
REMARK VINA RESULT:      -6.8      0.000      0.000
REMARK  3 active torsions:
REMARK  status: ('A' for Active; 'I' for Inactive)
REMARK    1  A    between atoms: C2_2  and  N1_3 
REMARK    2  A    between atoms: C4_5  and  C5_6 
REMARK    3  A    between atoms: C16_20  and  O2_21 
ROOT
HETATM    1  N1  UNL     1      33.242   6.326  47.864  1.00  0.00    -0.409 N 
HETATM    2  C3  UNL     1      32.892   4.940  47.807  1.00  0.00     0.123 C 
HETATM    3  C4  UNL     1      33.287   4.531  46.344  1.00  0.00    -0.017 C 
HETATM    4  C6  UNL     1      33.754   4.914  45.098  1.00  0.00     0.041 C 
HETATM    5  C7  UNL     1      34.197   4.857  43.690  1.00  0.00     0.016 C 
HETATM    6  C8  UNL     1      34.427   6.163  43.634  1.00  0.00     0.084 C 
HETATM    7  N2  UNL     1      34.143   6.733  44.808  1.00  0.00    -0.274 NA
HETATM    8  C9  UNL     1      33.815   7.976  45.306  1.00  0.00     0.088 A 
HETATM    9  C10 UNL     1      33.465   9.110  45.852  1.00  0.00     0.181 A 
HETATM   10  C11 UNL     1      32.776   9.482  47.147  1.00  0.00    -0.048 C 
HETATM   11  C12 UNL     1      32.585  10.947  47.228  1.00  0.00     0.046 C 
HETATM   12  C13 UNL     1      32.385   8.666  48.130  1.00  0.00    -0.035 C 
HETATM   13  C14 UNL     1      31.664   9.231  49.381  1.00  0.00     0.204 C 
HETATM   14  O1  UNL     1      30.425   8.568  49.393  1.00  0.00    -0.381 OA
HETATM   15  C15 UNL     1      29.686   9.017  48.295  1.00  0.00     0.232 C 
HETATM   16  C16 UNL     1      28.712   7.946  47.914  1.00  0.00     0.075 C 
HETATM   17  C18 UNL     1      28.869   7.521  46.628  1.00  0.00     0.085 C 
HETATM   18  S1  UNL     1      30.136   8.326  45.743  1.00  0.00    -0.094 SA
HETATM   19  C19 UNL     1      31.516   7.364  45.303  1.00  0.00     0.143 C 
HETATM   20  N3  UNL     1      32.391   8.261  45.535  1.00  0.00    -0.328 N 
HETATM   21  C20 UNL     1      32.488   7.246  48.550  1.00  0.00     0.153 C 
HETATM   22  H13 UNL     1      34.127   7.465  44.027  1.00  0.00     0.129 HD
ENDROOT
BRANCH   1  23
HETATM   23  C2  UNL     1      34.658   6.494  47.982  1.00  0.00     0.112 C 
HETATM   24  C1  UNL     1      35.107   5.530  49.093  1.00  0.00     0.026 C 
ENDBRANCH   1  23
BRANCH   3  25
HETATM   25  C5  UNL     1      33.015   3.059  46.300  1.00  0.00     0.121 C 
HETATM   26 CL1  UNL     1      33.181   2.283  47.881  1.00  0.00    -0.130 Cl
ENDBRANCH   3  25
BRANCH  16  27
HETATM   27  O2  UNL     1      27.660   7.132  48.274  1.00  0.00    -0.358 OA
HETATM   28  C17 UNL     1      27.981   5.729  48.390  1.00  0.00     0.209 C 
ENDBRANCH  16  27
TORSDOF 3
ENDMDL
MODEL 2
REMARK VINA RESULT:      -6.5      2.622      4.777
REMARK  3 active torsions:
REMARK  status: ('A' for Active; 'I' for Inactive)
REMARK    1  A    between atoms: C2_2  and  N1_3 
REMARK    2  A    between atoms: C4_5  and  C5_6 
REMARK    3  A    between atoms: C16_20  and  O2_21 
ROOT
HETATM    1  N1  UNL     1      31.878   7.853  45.780  1.00  0.00    -0.409 N 
HETATM    2  C3  UNL     1      32.904   8.799  45.469  1.00  0.00     0.123 C 
HETATM    3  C4  UNL     1      34.075   8.386  46.428  1.00  0.00    -0.017 C 
HETATM    4  C6  UNL     1      34.528   7.575  47.455  1.00  0.00     0.041 C 
HETATM    5  C7  UNL     1      35.405   6.964  48.474  1.00  0.00     0.016 C 
HETATM    6  C8  UNL     1      34.457   6.138  48.899  1.00  0.00     0.084 C 
HETATM    7  N2  UNL     1      33.334   6.326  48.202  1.00  0.00    -0.274 NA
HETATM    8  C9  UNL     1      31.978   6.112  48.340  1.00  0.00     0.088 A 
HETATM    9  C10 UNL     1      30.681   5.977  48.405  1.00  0.00     0.181 A 
HETATM   10  C11 UNL     1      29.520   6.631  47.688  1.00  0.00    -0.048 C 
HETATM   11  C12 UNL     1      28.235   6.117  48.210  1.00  0.00     0.046 C 
HETATM   12  C13 UNL     1      29.570   7.533  46.703  1.00  0.00    -0.035 C 
HETATM   13  C14 UNL     1      28.264   8.116  46.104  1.00  0.00     0.204 C 
HETATM   14  O1  UNL     1      28.372   9.499  46.324  1.00  0.00    -0.381 OA
HETATM   15  C15 UNL     1      28.289   9.724  47.701  1.00  0.00     0.232 C 
HETATM   16  C16 UNL     1      29.005  11.000  48.013  1.00  0.00     0.075 C 
HETATM   17  C18 UNL     1      30.023  10.831  48.904  1.00  0.00     0.085 C 
HETATM   18  S1  UNL     1      30.233   9.197  49.472  1.00  0.00    -0.094 SA
HETATM   19  C19 UNL     1      31.691   8.383  48.989  1.00  0.00     0.143 C 
HETATM   20  N3  UNL     1      31.153   7.246  48.779  1.00  0.00    -0.328 N 
HETATM   21  C20 UNL     1      30.548   8.193  45.802  1.00  0.00     0.153 C 
HETATM   22  H13 UNL     1      33.115   5.851  49.137  1.00  0.00     0.129 HD
ENDROOT
BRANCH   1  23
HETATM   23  C2  UNL     1      32.167   6.575  45.206  1.00  0.00     0.112 C 
HETATM   24  C1  UNL     1      32.303   6.811  43.693  1.00  0.00     0.026 C 
ENDBRANCH   1  23
BRANCH   3  25
HETATM   25  C5  UNL     1      35.192   9.309  46.046  1.00  0.00     0.121 C 
HETATM   26 CL1  UNL     1      35.194   9.705  44.322  1.00  0.00    -0.130 Cl
ENDBRANCH   3  25
BRANCH  16  27
HETATM   27  O2  UNL     1      29.130  12.358  47.812  1.00  0.00    -0.358 OA
HETATM   28  C17 UNL     1      28.358  13.185  48.710  1.00  0.00     0.209 C 
ENDBRANCH  16  27
TORSDOF 3
ENDMDL
MODEL 3
REMARK VINA RESULT:      -6.1      7.360     10.573
REMARK  3 active torsions:
REMARK  status: ('A' for Active; 'I' for Inactive)
REMARK    1  A    between atoms: C2_2  and  N1_3 
REMARK    2  A    between atoms: C4_5  and  C5_6 
REMARK    3  A    between atoms: C16_20  and  O2_21 
ROOT
HETATM    1  N1  UNL     1      24.466   3.962  49.718  1.00  0.00    -0.409 N 
HETATM    2  C3  UNL     1      25.579   4.321  48.895  1.00  0.00     0.123 C 
HETATM    3  C4  UNL     1      25.813   5.832  49.248  1.00  0.00    -0.017 C 
HETATM    4  C6  UNL     1      25.399   6.960  49.936  1.00  0.00     0.041 C 
HETATM    5  C7  UNL     1      25.342   8.341  50.457  1.00  0.00     0.016 C 
HETATM    6  C8  UNL     1      24.234   8.111  51.151  1.00  0.00     0.084 C 
HETATM    7  N2  UNL     1      23.840   6.847  50.986  1.00  0.00    -0.274 NA
HETATM    8  C9  UNL     1      22.687   6.096  51.087  1.00  0.00     0.088 A 
HETATM    9  C10 UNL     1      21.635   5.323  51.124  1.00  0.00     0.181 A 
HETATM   10  C11 UNL     1      21.291   3.988  50.501  1.00  0.00    -0.048 C 
HETATM   11  C12 UNL     1      19.908   3.596  50.849  1.00  0.00     0.046 C 
HETATM   12  C13 UNL     1      22.076   3.209  49.750  1.00  0.00    -0.035 C 
HETATM   13  C14 UNL     1      21.537   1.876  49.171  1.00  0.00     0.204 C 
HETATM   14  O1  UNL     1      21.676   2.024  47.780  1.00  0.00    -0.381 OA
HETATM   15  C15 UNL     1      20.777   3.009  47.361  1.00  0.00     0.232 C 
HETATM   16  C16 UNL     1      21.308   3.625  46.105  1.00  0.00     0.075 C 
HETATM   17  C18 UNL     1      21.502   4.970  46.215  1.00  0.00     0.085 C 
HETATM   18  S1  UNL     1      21.075   5.644  47.764  1.00  0.00    -0.094 SA
HETATM   19  C19 UNL     1      22.379   6.262  48.734  1.00  0.00     0.143 C 
HETATM   20  N3  UNL     1      21.940   5.830  49.850  1.00  0.00    -0.328 N 
HETATM   21  C20 UNL     1      23.483   3.104  49.290  1.00  0.00     0.153 C 
HETATM   22  H13 UNL     1      23.018   7.451  51.310  1.00  0.00     0.129 HD
ENDROOT
BRANCH   1  23
HETATM   23  C2  UNL     1      24.868   3.791  51.080  1.00  0.00     0.112 C 
HETATM   24  C1  UNL     1      25.758   2.537  51.105  1.00  0.00     0.026 C 
ENDBRANCH   1  23
BRANCH   3  25
HETATM   25  C5  UNL     1      27.037   6.196  48.465  1.00  0.00     0.121 C 
HETATM   26 CL1  UNL     1      28.256   4.914  48.461  1.00  0.00    -0.130 Cl
ENDBRANCH   3  25
BRANCH  16  27
HETATM   27  O2  UNL     1      21.721   3.463  44.799  1.00  0.00    -0.358 OA
HETATM   28  C17 UNL     1      20.816   3.981  43.800  1.00  0.00     0.209 C 
ENDBRANCH  16  27
TORSDOF 3
ENDMDL
MODEL 4
REMARK VINA RESULT:      -6.1      3.074      5.909
REMARK  3 active torsions:
REMARK  status: ('A' for Active; 'I' for Inactive)
REMARK    1  A    between atoms: C2_2  and  N1_3 
REMARK    2  A    between atoms: C4_5  and  C5_6 
REMARK    3  A    between atoms: C16_20  and  O2_21 
ROOT
HETATM    1  N1  UNL     1      29.876   8.858  45.720  1.00  0.00    -0.409 N 
HETATM    2  C3  UNL     1      28.650   8.123  45.756  1.00  0.00     0.123 C 
HETATM    3  C4  UNL     1      27.756   8.964  46.733  1.00  0.00    -0.017 C 
HETATM    4  C6  UNL     1      27.644  10.039  47.600  1.00  0.00     0.041 C 
HETATM    5  C7  UNL     1      27.083  11.016  48.554  1.00  0.00     0.016 C 
HETATM    6  C8  UNL     1      28.228  11.675  48.665  1.00  0.00     0.084 C 
HETATM    7  N2  UNL     1      29.163  11.110  47.898  1.00  0.00    -0.274 NA
HETATM    8  C9  UNL     1      30.538  11.039  47.818  1.00  0.00     0.088 A 
HETATM    9  C10 UNL     1      31.830  10.891  47.694  1.00  0.00     0.181 A 
HETATM   10  C11 UNL     1      32.708   9.869  47.006  1.00  0.00    -0.048 C 
HETATM   11  C12 UNL     1      34.136  10.174  47.240  1.00  0.00     0.046 C 
HETATM   12  C13 UNL     1      32.323   8.828  46.262  1.00  0.00    -0.035 C 
HETATM   13  C14 UNL     1      33.374   7.864  45.654  1.00  0.00     0.204 C 
HETATM   14  O1  UNL     1      33.040   6.609  46.190  1.00  0.00    -0.381 OA
HETATM   15  C15 UNL     1      33.306   6.642  47.562  1.00  0.00     0.232 C 
HETATM   16  C16 UNL     1      32.420   5.642  48.236  1.00  0.00     0.075 C 
HETATM   17  C18 UNL     1      31.615   6.203  49.183  1.00  0.00     0.085 C 
HETATM   18  S1  UNL     1      31.821   7.921  49.392  1.00  0.00    -0.094 SA
HETATM   19  C19 UNL     1      30.487   8.931  48.920  1.00  0.00     0.143 C 
HETATM   20  N3  UNL     1      31.191   9.856  48.397  1.00  0.00    -0.328 N 
HETATM   21  C20 UNL     1      31.101   8.241  45.656  1.00  0.00     0.153 C 
HETATM   22  H13 UNL     1      29.621  11.696  48.669  1.00  0.00     0.129 HD
ENDROOT
BRANCH   1  23
HETATM   23  C2  UNL     1      29.747  10.034  44.915  1.00  0.00     0.112 C 
HETATM   24  C1  UNL     1      30.214   9.634  43.505  1.00  0.00     0.026 C 
ENDBRANCH   1  23
BRANCH   3  25
HETATM   25  C5  UNL     1      26.435   8.258  46.705  1.00  0.00     0.121 C 
HETATM   26 CL1  UNL     1      26.277   7.049  47.987  1.00  0.00    -0.130 Cl
ENDBRANCH   3  25
BRANCH  16  27
HETATM   27  O2  UNL     1      32.005   4.334  48.361  1.00  0.00    -0.358 OA
HETATM   28  C17 UNL     1      32.832   3.361  47.685  1.00  0.00     0.209 C 
ENDBRANCH  16  27
TORSDOF 3
ENDMDL
MODEL 5
REMARK VINA RESULT:      -6.0      8.000     11.333
REMARK  3 active torsions:
REMARK  status: ('A' for Active; 'I' for Inactive)
REMARK    1  A    between atoms: C2_2  and  N1_3 
REMARK    2  A    between atoms: C4_5  and  C5_6 
REMARK    3  A    between atoms: C16_20  and  O2_21 
ROOT
HETATM    1  N1  UNL     1      22.662   3.769  48.815  1.00  0.00    -0.409 N 
HETATM    2  C3  UNL     1      23.541   2.954  49.594  1.00  0.00     0.123 C 
HETATM    3  C4  UNL     1      22.674   2.590  50.850  1.00  0.00    -0.017 C 
HETATM    4  C6  UNL     1      21.491   2.748  51.553  1.00  0.00     0.041 C 
HETATM    5  C7  UNL     1      20.450   2.612  52.591  1.00  0.00     0.016 C 
HETATM    6  C8  UNL     1      19.630   3.460  51.983  1.00  0.00     0.084 C 
HETATM    7  N2  UNL     1      20.186   3.913  50.857  1.00  0.00    -0.274 NA
HETATM    8  C9  UNL     1      20.080   4.996  50.009  1.00  0.00     0.088 A 
HETATM    9  C10 UNL     1      20.068   6.002  49.177  1.00  0.00     0.181 A 
HETATM   10  C11 UNL     1      21.064   6.550  48.178  1.00  0.00    -0.048 C 
HETATM   11  C12 UNL     1      20.529   7.769  47.531  1.00  0.00     0.046 C 
HETATM   12  C13 UNL     1      22.261   6.051  47.858  1.00  0.00    -0.035 C 
HETATM   13  C14 UNL     1      23.162   6.770  46.821  1.00  0.00     0.204 C 
HETATM   14  O1  UNL     1      24.339   7.061  47.532  1.00  0.00    -0.381 OA
HETATM   15  C15 UNL     1      24.032   8.022  48.498  1.00  0.00     0.232 C 
HETATM   16  C16 UNL     1      25.011   7.889  49.622  1.00  0.00     0.075 C 
HETATM   17  C18 UNL     1      24.411   7.640  50.820  1.00  0.00     0.085 C 
HETATM   18  S1  UNL     1      22.671   7.558  50.762  1.00  0.00    -0.094 SA
HETATM   19  C19 UNL     1      21.952   6.006  51.075  1.00  0.00     0.143 C 
HETATM   20  N3  UNL     1      21.043   6.092  50.184  1.00  0.00    -0.328 N 
HETATM   21  C20 UNL     1      23.106   4.854  48.101  1.00  0.00     0.153 C 
HETATM   22  H13 UNL     1      19.418   4.582  51.186  1.00  0.00     0.129 HD
ENDROOT
BRANCH   1  23
HETATM   23  C2  UNL     1      21.673   2.973  48.154  1.00  0.00     0.112 C 
HETATM   24  C1  UNL     1      22.446   1.870  47.411  1.00  0.00     0.026 C 
ENDBRANCH   1  23
BRANCH   3  25
HETATM   25  C5  UNL     1      23.549   1.657  51.630  1.00  0.00     0.121 C 
HETATM   26 CL1  UNL     1      24.159   2.379  53.125  1.00  0.00    -0.130 Cl
ENDBRANCH   3  25
BRANCH  16  27
HETATM   27  O2  UNL     1      26.323   7.899  50.046  1.00  0.00    -0.358 OA
HETATM   28  C17 UNL     1      26.920   9.209  50.165  1.00  0.00     0.209 C 
ENDBRANCH  16  27
TORSDOF 3
ENDMDL
MODEL 6
REMARK VINA RESULT:      -6.0      3.094      5.651
REMARK  3 active torsions:
REMARK  status: ('A' for Active; 'I' for Inactive)
REMARK    1  A    between atoms: C2_2  and  N1_3 
REMARK    2  A    between atoms: C4_5  and  C5_6 
REMARK    3  A    between atoms: C16_20  and  O2_21 
ROOT
HETATM    1  N1  UNL     1      30.794   9.271  47.798  1.00  0.00    -0.409 N 
HETATM    2  C3  UNL     1      29.636   9.632  47.040  1.00  0.00     0.123 C 
HETATM    3  C4  UNL     1      28.663   8.424  47.273  1.00  0.00    -0.017 C 
HETATM    4  C6  UNL     1      28.450   7.170  47.820  1.00  0.00     0.041 C 
HETATM    5  C7  UNL     1      27.797   5.903  48.208  1.00  0.00     0.016 C 
HETATM    6  C8  UNL     1      28.880   5.449  48.826  1.00  0.00     0.084 C 
HETATM    7  N2  UNL     1      29.867   6.344  48.745  1.00  0.00    -0.274 NA
HETATM    8  C9  UNL     1      31.244   6.381  48.819  1.00  0.00     0.088 A 
HETATM    9  C10 UNL     1      32.545   6.497  48.840  1.00  0.00     0.181 A 
HETATM   10  C11 UNL     1      33.515   7.532  48.314  1.00  0.00    -0.048 C 
HETATM   11  C12 UNL     1      34.909   7.117  48.583  1.00  0.00     0.046 C 
HETATM   12  C13 UNL     1      33.229   8.686  47.703  1.00  0.00    -0.035 C 
HETATM   13  C14 UNL     1      34.366   9.615  47.205  1.00  0.00     0.204 C 
HETATM   14  O1  UNL     1      34.138   9.725  45.823  1.00  0.00    -0.381 OA
HETATM   15  C15 UNL     1      34.388   8.478  45.244  1.00  0.00     0.232 C 
HETATM   16  C16 UNL     1      33.586   8.375  43.985  1.00  0.00     0.075 C 
HETATM   17  C18 UNL     1      32.727   7.316  43.989  1.00  0.00     0.085 C 
HETATM   18  S1  UNL     1      32.780   6.339  45.431  1.00  0.00    -0.094 SA
HETATM   19  C19 UNL     1      31.368   6.363  46.444  1.00  0.00     0.143 C 
HETATM   20  N3  UNL     1      31.993   6.374  47.555  1.00  0.00    -0.328 N 
HETATM   21  C20 UNL     1      32.068   9.550  47.370  1.00  0.00     0.153 C 
HETATM   22  H13 UNL     1      30.266   5.370  48.945  1.00  0.00     0.129 HD
ENDROOT
BRANCH   1  23
HETATM   23  C2  UNL     1      30.570   9.459  49.199  1.00  0.00     0.112 C 
HETATM   24  C1  UNL     1      30.542  10.980  49.423  1.00  0.00     0.026 C 
ENDBRANCH   1  23
BRANCH   3  25
HETATM   25  C5  UNL     1      27.410   8.833  46.562  1.00  0.00     0.121 C 
HETATM   26 CL1  UNL     1      27.458   8.481  44.829  1.00  0.00    -0.130 Cl
ENDBRANCH   3  25
BRANCH  16  27
HETATM   27  O2  UNL     1      33.286   8.880  42.737  1.00  0.00    -0.358 OA
HETATM   28  C17 UNL     1      32.123   9.734  42.685  1.00  0.00     0.209 C 
ENDBRANCH  16  27
TORSDOF 3
ENDMDL
MODEL 7
REMARK VINA RESULT:      -6.0      7.114      9.978
REMARK  3 active torsions:
REMARK  status: ('A' for Active; 'I' for Inactive)
REMARK    1  A    between atoms: C2_2  and  N1_3 
REMARK    2  A    between atoms: C4_5  and  C5_6 
REMARK    3  A    between atoms: C16_20  and  O2_21 
ROOT
HETATM    1  N1  UNL     1      23.571   5.347  50.115  1.00  0.00    -0.409 N 
HETATM    2  C3  UNL     1      24.621   4.473  49.692  1.00  0.00     0.123 C 
HETATM    3  C4  UNL     1      25.806   5.456  49.392  1.00  0.00    -0.017 C 
HETATM    4  C6  UNL     1      26.262   6.761  49.298  1.00  0.00     0.041 C 
HETATM    5  C7  UNL     1      27.148   7.923  49.087  1.00  0.00     0.016 C 
HETATM    6  C8  UNL     1      26.184   8.797  49.349  1.00  0.00     0.084 C 
HETATM    7  N2  UNL     1      25.047   8.159  49.634  1.00  0.00    -0.274 NA
HETATM    8  C9  UNL     1      23.689   8.404  49.628  1.00  0.00     0.088 A 
HETATM    9  C10 UNL     1      22.391   8.541  49.617  1.00  0.00     0.181 A 
HETATM   10  C11 UNL     1      21.232   7.569  49.577  1.00  0.00    -0.048 C 
HETATM   11  C12 UNL     1      19.946   8.299  49.529  1.00  0.00     0.046 C 
HETATM   12  C13 UNL     1      21.284   6.234  49.600  1.00  0.00    -0.035 C 
HETATM   13  C14 UNL     1      19.982   5.395  49.524  1.00  0.00     0.204 C 
HETATM   14  O1  UNL     1      20.148   4.606  48.373  1.00  0.00    -0.381 OA
HETATM   15  C15 UNL     1      20.118   5.453  47.262  1.00  0.00     0.232 C 
HETATM   16  C16 UNL     1      20.891   4.805  46.156  1.00  0.00     0.075 C 
HETATM   17  C18 UNL     1      21.931   5.570  45.718  1.00  0.00     0.085 C 
HETATM   18  S1  UNL     1      22.097   7.105  46.526  1.00  0.00    -0.094 SA
HETATM   19  C19 UNL     1      23.508   7.316  47.520  1.00  0.00     0.143 C 
HETATM   20  N3  UNL     1      22.922   7.943  48.462  1.00  0.00    -0.328 N 
HETATM   21  C20 UNL     1      22.256   5.127  49.787  1.00  0.00     0.153 C 
HETATM   22  H13 UNL     1      24.841   9.164  49.327  1.00  0.00     0.129 HD
ENDROOT
BRANCH   1  23
HETATM   23  C2  UNL     1      23.793   5.808  51.451  1.00  0.00     0.112 C 
HETATM   24  C1  UNL     1      23.304   4.680  52.375  1.00  0.00     0.026 C 
ENDBRANCH   1  23
BRANCH   3  25
HETATM   25  C5  UNL     1      26.943   4.547  49.039  1.00  0.00     0.121 C 
HETATM   26 CL1  UNL     1      26.666   2.875  49.544  1.00  0.00    -0.130 Cl
ENDBRANCH   3  25
BRANCH  16  27
HETATM   27  O2  UNL     1      21.060   3.726  45.314  1.00  0.00    -0.358 OA
HETATM   28  C17 UNL     1      20.648   3.944  43.947  1.00  0.00     0.209 C 
ENDBRANCH  16  27
TORSDOF 3
ENDMDL
MODEL 8
REMARK VINA RESULT:      -5.9      8.927     11.671
REMARK  3 active torsions:
REMARK  status: ('A' for Active; 'I' for Inactive)
REMARK    1  A    between atoms: C2_2  and  N1_3 
REMARK    2  A    between atoms: C4_5  and  C5_6 
REMARK    3  A    between atoms: C16_20  and  O2_21 
ROOT
HETATM    1  N1  UNL     1      22.208   4.876  51.195  1.00  0.00    -0.409 N 
HETATM    2  C3  UNL     1      22.593   4.208  52.399  1.00  0.00     0.123 C 
HETATM    3  C4  UNL     1      24.030   3.671  52.069  1.00  0.00    -0.017 C 
HETATM    4  C6  UNL     1      25.043   3.508  51.138  1.00  0.00     0.041 C 
HETATM    5  C7  UNL     1      26.329   3.129  50.520  1.00  0.00     0.016 C 
HETATM    6  C8  UNL     1      25.989   3.621  49.336  1.00  0.00     0.084 C 
HETATM    7  N2  UNL     1      24.760   4.139  49.387  1.00  0.00    -0.274 NA
HETATM    8  C9  UNL     1      23.725   4.445  48.528  1.00  0.00     0.088 A 
HETATM    9  C10 UNL     1      22.686   4.729  47.790  1.00  0.00     0.181 A 
HETATM   10  C11 UNL     1      21.214   4.928  48.080  1.00  0.00    -0.048 C 
HETATM   11  C12 UNL     1      20.471   5.187  46.827  1.00  0.00     0.046 C 
HETATM   12  C13 UNL     1      20.605   4.908  49.269  1.00  0.00    -0.035 C 
HETATM   13  C14 UNL     1      19.071   5.107  49.369  1.00  0.00     0.204 C 
HETATM   14  O1  UNL     1      18.611   3.931  49.986  1.00  0.00    -0.381 OA
HETATM   15  C15 UNL     1      18.797   2.875  49.090  1.00  0.00     0.232 C 
HETATM   16  C16 UNL     1      18.931   1.609  49.878  1.00  0.00     0.075 C 
HETATM   17  C18 UNL     1      20.111   0.966  49.649  1.00  0.00     0.085 C 
HETATM   18  S1  UNL     1      21.158   1.751  48.498  1.00  0.00    -0.094 SA
HETATM   19  C19 UNL     1      22.646   2.407  49.114  1.00  0.00     0.143 C 
HETATM   20  N3  UNL     1      22.630   3.471  48.413  1.00  0.00    -0.328 N 
HETATM   21  C20 UNL     1      20.921   4.847  50.718  1.00  0.00     0.153 C 
HETATM   22  H13 UNL     1      25.023   3.910  48.375  1.00  0.00     0.129 HD
ENDROOT
BRANCH   1  23
HETATM   23  C2  UNL     1      22.872   6.137  51.073  1.00  0.00     0.112 C 
HETATM   24  C1  UNL     1      21.758   7.197  51.009  1.00  0.00     0.026 C 
ENDBRANCH   1  23
BRANCH   3  25
HETATM   25  C5  UNL     1      24.484   3.051  53.354  1.00  0.00     0.121 C 
HETATM   26 CL1  UNL     1      24.653   1.294  53.246  1.00  0.00    -0.130 Cl
ENDBRANCH   3  25
BRANCH  16  27
HETATM   27  O2  UNL     1      18.388   0.727  50.787  1.00  0.00    -0.358 OA
HETATM   28  C17 UNL     1      19.313   0.207  51.766  1.00  0.00     0.209 C 
ENDBRANCH  16  27
TORSDOF 3
ENDMDL
MODEL 9
REMARK VINA RESULT:      -5.8     11.505     14.167
REMARK  3 active torsions:
REMARK  status: ('A' for Active; 'I' for Inactive)
REMARK    1  A    between atoms: C2_2  and  N1_3 
REMARK    2  A    between atoms: C4_5  and  C5_6 
REMARK    3  A    between atoms: C16_20  and  O2_21 
ROOT
HETATM    1  N1  UNL     1      18.487   3.228  50.303  1.00  0.00    -0.409 N 
HETATM    2  C3  UNL     1      17.759   2.239  49.570  1.00  0.00     0.123 C 
HETATM    3  C4  UNL     1      17.973   0.935  50.415  1.00  0.00    -0.017 C 
HETATM    4  C6  UNL     1      18.584   0.314  51.492  1.00  0.00     0.041 C 
HETATM    5  C7  UNL     1      18.987  -0.714  52.472  1.00  0.00     0.016 C 
HETATM    6  C8  UNL     1      19.781   0.120  53.131  1.00  0.00     0.084 C 
HETATM    7  N2  UNL     1      19.755   1.328  52.562  1.00  0.00    -0.274 NA
HETATM    8  C9  UNL     1      20.543   2.458  52.489  1.00  0.00     0.088 A 
HETATM    9  C10 UNL     1      21.243   3.550  52.339  1.00  0.00     0.181 A 
HETATM   10  C11 UNL     1      21.246   4.663  51.314  1.00  0.00    -0.048 C 
HETATM   11  C12 UNL     1      22.312   5.643  51.618  1.00  0.00     0.046 C 
HETATM   12  C13 UNL     1      20.424   4.817  50.271  1.00  0.00    -0.035 C 
HETATM   13  C14 UNL     1      20.597   6.016  49.305  1.00  0.00     0.204 C 
HETATM   14  O1  UNL     1      20.814   5.420  48.051  1.00  0.00    -0.381 OA
HETATM   15  C15 UNL     1      22.057   4.781  48.088  1.00  0.00     0.232 C 
HETATM   16  C16 UNL     1      22.042   3.665  47.092  1.00  0.00     0.075 C 
HETATM   17  C18 UNL     1      22.289   2.449  47.656  1.00  0.00     0.085 C 
HETATM   18  S1  UNL     1      22.577   2.486  49.374  1.00  0.00    -0.094 SA
HETATM   19  C19 UNL     1      21.381   1.732  50.384  1.00  0.00     0.143 C 
HETATM   20  N3  UNL     1      21.403   2.611  51.307  1.00  0.00    -0.328 N 
HETATM   21  C20 UNL     1      19.194   4.228  49.684  1.00  0.00     0.153 C 
HETATM   22  H13 UNL     1      20.643   1.213  53.150  1.00  0.00     0.129 HD
ENDROOT
BRANCH   1  23
HETATM   23  C2  UNL     1      17.772   3.627  51.476  1.00  0.00     0.112 C 
HETATM   24  C1  UNL     1      16.435   4.204  50.981  1.00  0.00     0.026 C 
ENDBRANCH   1  23
BRANCH   3  25
HETATM   25  C5  UNL     1      17.137  -0.089  49.710  1.00  0.00     0.121 C 
HETATM   26 CL1  UNL     1      15.756   0.620  48.862  1.00  0.00    -0.130 Cl
ENDBRANCH   3  25
BRANCH  16  27
HETATM   27  O2  UNL     1      21.885   3.258  45.784  1.00  0.00    -0.358 OA
HETATM   28  C17 UNL     1      20.908   4.002  45.023  1.00  0.00     0.209 C 
ENDBRANCH  16  27
TORSDOF 3
ENDMDL
