MODEL 1
REMARK VINA RESULT:      -8.7      0.000      0.000
REMARK  4 active torsions:
REMARK  status: ('A' for Active; 'I' for Inactive)
REMARK    1  A    between atoms: N1_1  and  C1_2 
REMARK    2  A    between atoms: N4_20  and  C16_21 
REMARK    3  A    between atoms: C18_23  and  C19_24 
REMARK    4  A    between atoms: C19_24  and  N5_25 
ROOT
HETATM    1  C1  UNL     1      25.861   1.366  52.284  1.00  0.00     0.135 C 
HETATM    2  N2  UNL     1      25.839   1.199  53.560  1.00  0.00    -0.225 NA
HETATM    3  C2  UNL     1      26.675   0.244  54.200  1.00  0.00     0.229 C 
HETATM    4  N3  UNL     1      26.374  -0.481  55.239  1.00  0.00    -0.279 NA
HETATM    5  C3  UNL     1      25.046  -0.342  55.862  1.00  0.00     0.177 C 
HETATM    6  C4  UNL     1      24.215  -1.527  55.531  1.00  0.00    -0.009 C 
HETATM    7  C5  UNL     1      23.072  -1.655  54.820  1.00  0.00    -0.027 C 
HETATM    8  C6  UNL     1      22.496  -0.456  54.242  1.00  0.00     0.053 C 
HETATM    9  C7  UNL     1      21.079  -0.131  54.660  1.00  0.00     0.179 C 
HETATM   10  O1  UNL     1      20.815   1.126  53.978  1.00  0.00    -0.351 OA
HETATM   11  C8  UNL     1      20.980   1.123  52.582  1.00  0.00     0.069 A 
HETATM   12  C9  UNL     1      20.251   0.672  51.512  1.00  0.00     0.037 A 
HETATM   13  C10 UNL     1      20.748   0.841  50.242  1.00  0.00     0.004 A 
HETATM   14  C11 UNL     1      21.956   1.454  50.068  1.00  0.00     0.012 A 
HETATM   15  C12 UNL     1      22.714   1.918  51.121  1.00  0.00    -0.021 A 
HETATM   16  C13 UNL     1      22.205   1.745  52.388  1.00  0.00     0.049 A 
HETATM   17  C14 UNL     1      23.991   2.531  50.749  1.00  0.00     0.005 A 
HETATM   18  C15 UNL     1      24.194   3.494  49.821  1.00  0.00     0.104 A 
HETATM   19  N4  UNL     1      25.495   3.823  49.740  1.00  0.00    -0.360 N 
HETATM   20  C24 UNL     1      26.122   3.028  50.659  1.00  0.00     0.107 A 
HETATM   21  C25 UNL     1      25.210   2.209  51.307  1.00  0.00     0.037 A 
ENDROOT
BRANCH  19  22
HETATM   22  C16 UNL     1      25.974   4.834  48.815  1.00  0.00     0.089 C 
HETATM   23  C17 UNL     1      26.163   6.218  49.406  1.00  0.00     0.032 C 
HETATM   24  C18 UNL     1      27.300   6.326  48.379  1.00  0.00     0.018 C 
HETATM   25  C23 UNL     1      27.504   4.835  48.681  1.00  0.00     0.032 C 
BRANCH  24  26
HETATM   26  C19 UNL     1      28.425   7.231  48.734  1.00  0.00     0.277 C 
BRANCH  26  27
HETATM   27  N5  UNL     1      28.354   8.338  47.764  1.00  0.00     0.088 N 
HETATM   28  C20 UNL     1      29.611   8.636  47.149  1.00  0.00     0.274 A 
HETATM   29  C21 UNL     1      29.017   8.231  45.818  1.00  0.00     0.060 A 
HETATM   30  C22 UNL     1      27.697   8.035  46.535  1.00  0.00     0.274 A 
ENDBRANCH  26  27
ENDBRANCH  24  26
ENDBRANCH  19  22
BRANCH   1  31
HETATM   31  N1  UNL     1      26.856   0.393  51.916  1.00  0.00    -0.383 N 
HETATM   32  H1  UNL     1      27.772   0.173  51.477  1.00  0.00     0.157 HD
HETATM   33  H2  UNL     1      26.424  -0.510  52.272  1.00  0.00     0.157 HD
ENDBRANCH   1  31
TORSDOF 4
ENDMDL
MODEL 2
REMARK VINA RESULT:      -8.7      2.197      4.040
REMARK  4 active torsions:
REMARK  status: ('A' for Active; 'I' for Inactive)
REMARK    1  A    between atoms: N1_1  and  C1_2 
REMARK    2  A    between atoms: N4_20  and  C16_21 
REMARK    3  A    between atoms: C18_23  and  C19_24 
REMARK    4  A    between atoms: C19_24  and  N5_25 
ROOT
HETATM    1  C1  UNL     1      23.577   2.940  51.387  1.00  0.00     0.135 C 
HETATM    2  N2  UNL     1      22.806   1.909  51.364  1.00  0.00    -0.225 NA
HETATM    3  C2  UNL     1      21.531   1.919  51.992  1.00  0.00     0.229 C 
HETATM    4  N3  UNL     1      20.959   0.924  52.605  1.00  0.00    -0.279 NA
HETATM    5  C3  UNL     1      21.652  -0.373  52.690  1.00  0.00     0.177 C 
HETATM    6  C4  UNL     1      22.154  -0.581  54.071  1.00  0.00    -0.009 C 
HETATM    7  C5  UNL     1      23.408  -0.693  54.566  1.00  0.00    -0.027 C 
HETATM    8  C6  UNL     1      24.514  -0.603  53.634  1.00  0.00     0.053 C 
HETATM    9  C7  UNL     1      25.446  -1.794  53.590  1.00  0.00     0.179 C 
HETATM   10  O1  UNL     1      26.391  -1.434  52.545  1.00  0.00    -0.351 OA
HETATM   11  C8  UNL     1      27.075  -0.218  52.715  1.00  0.00     0.069 A 
HETATM   12  C9  UNL     1      28.131   0.211  53.477  1.00  0.00     0.037 A 
HETATM   13  C10 UNL     1      28.535   1.522  53.386  1.00  0.00     0.004 A 
HETATM   14  C11 UNL     1      27.879   2.372  52.542  1.00  0.00     0.012 A 
HETATM   15  C12 UNL     1      26.815   1.972  51.763  1.00  0.00    -0.021 A 
HETATM   16  C13 UNL     1      26.421   0.657  51.861  1.00  0.00     0.049 A 
HETATM   17  C14 UNL     1      26.222   3.022  50.931  1.00  0.00     0.005 A 
HETATM   18  C15 UNL     1      26.871   3.865  50.096  1.00  0.00     0.104 A 
HETATM   19  N4  UNL     1      26.012   4.702  49.487  1.00  0.00    -0.360 N 
HETATM   20  C24 UNL     1      24.779   4.360  49.969  1.00  0.00     0.107 A 
HETATM   21  C25 UNL     1      24.876   3.313  50.874  1.00  0.00     0.037 A 
ENDROOT
BRANCH  19  22
HETATM   22  C16 UNL     1      26.461   5.707  48.542  1.00  0.00     0.089 C 
HETATM   23  C17 UNL     1      26.700   7.087  49.124  1.00  0.00     0.032 C 
HETATM   24  C18 UNL     1      27.788   7.180  48.044  1.00  0.00     0.018 C 
HETATM   25  C23 UNL     1      27.984   5.685  48.334  1.00  0.00     0.032 C 
BRANCH  24  26
HETATM   26  C19 UNL     1      28.942   8.067  48.346  1.00  0.00     0.277 C 
BRANCH  26  27
HETATM   27  N5  UNL     1      29.137   8.878  47.131  1.00  0.00     0.088 N 
HETATM   28  C20 UNL     1      30.507   8.983  46.732  1.00  0.00     0.274 A 
HETATM   29  C21 UNL     1      30.157   8.247  45.457  1.00  0.00     0.060 A 
HETATM   30  C22 UNL     1      28.711   8.269  45.914  1.00  0.00     0.274 A 
ENDBRANCH  26  27
ENDBRANCH  24  26
ENDBRANCH  19  22
BRANCH   1  31
HETATM   31  N1  UNL     1      22.761   3.852  52.144  1.00  0.00    -0.383 N 
HETATM   32  H1  UNL     1      22.243   4.076  53.018  1.00  0.00     0.157 HD
HETATM   33  H2  UNL     1      22.656   4.667  51.470  1.00  0.00     0.157 HD
ENDBRANCH   1  31
TORSDOF 4
ENDMDL
MODEL 3
REMARK VINA RESULT:      -8.7      3.283      8.953
REMARK  4 active torsions:
REMARK  status: ('A' for Active; 'I' for Inactive)
REMARK    1  A    between atoms: N1_1  and  C1_2 
REMARK    2  A    between atoms: N4_20  and  C16_21 
REMARK    3  A    between atoms: C18_23  and  C19_24 
REMARK    4  A    between atoms: C19_24  and  N5_25 
ROOT
HETATM    1  C1  UNL     1      23.089   4.362  48.654  1.00  0.00     0.135 C 
HETATM    2  N2  UNL     1      22.421   5.454  48.513  1.00  0.00    -0.225 NA
HETATM    3  C2  UNL     1      21.379   5.571  47.553  1.00  0.00     0.229 C 
HETATM    4  N3  UNL     1      21.080   6.628  46.855  1.00  0.00    -0.279 NA
HETATM    5  C3  UNL     1      21.863   7.863  47.034  1.00  0.00     0.177 C 
HETATM    6  C4  UNL     1      22.750   8.065  45.862  1.00  0.00    -0.009 C 
HETATM    7  C5  UNL     1      24.097   8.084  45.744  1.00  0.00    -0.027 C 
HETATM    8  C6  UNL     1      24.884   7.873  46.943  1.00  0.00     0.053 C 
HETATM    9  C7  UNL     1      25.851   8.979  47.307  1.00  0.00     0.179 C 
HETATM   10  O1  UNL     1      26.431   8.511  48.555  1.00  0.00    -0.351 OA
HETATM   11  C8  UNL     1      27.043   7.245  48.522  1.00  0.00     0.069 A 
HETATM   12  C9  UNL     1      28.238   6.749  48.066  1.00  0.00     0.037 A 
HETATM   13  C10 UNL     1      28.501   5.407  48.200  1.00  0.00     0.004 A 
HETATM   14  C11 UNL     1      27.571   4.593  48.782  1.00  0.00     0.012 A 
HETATM   15  C12 UNL     1      26.363   5.060  49.251  1.00  0.00    -0.021 A 
HETATM   16  C13 UNL     1      26.111   6.406  49.113  1.00  0.00     0.049 A 
HETATM   17  C14 UNL     1      25.482   4.042  49.829  1.00  0.00     0.005 A 
HETATM   18  C15 UNL     1      25.803   3.124  50.769  1.00  0.00     0.104 A 
HETATM   19  N4  UNL     1      24.748   2.347  51.068  1.00  0.00    -0.360 N 
HETATM   20  C24 UNL     1      23.731   2.806  50.278  1.00  0.00     0.107 A 
HETATM   21  C25 UNL     1      24.157   3.866  49.492  1.00  0.00     0.037 A 
ENDROOT
BRANCH  19  22
HETATM   22  C16 UNL     1      24.835   1.282  52.050  1.00  0.00     0.089 C 
HETATM   23  C17 UNL     1      26.091   0.435  51.980  1.00  0.00     0.032 C 
HETATM   24  C18 UNL     1      25.902   0.313  53.499  1.00  0.00     0.018 C 
HETATM   25  C23 UNL     1      25.401   1.761  53.395  1.00  0.00     0.032 C 
BRANCH  24  26
HETATM   26  C19 UNL     1      27.135   0.098  54.302  1.00  0.00     0.277 C 
BRANCH  26  27
HETATM   27  N5  UNL     1      28.199  -0.164  53.317  1.00  0.00     0.088 N 
HETATM   28  C20 UNL     1      29.432   0.495  53.624  1.00  0.00     0.274 A 
HETATM   29  C21 UNL     1      30.078  -0.864  53.785  1.00  0.00     0.060 A 
HETATM   30  C22 UNL     1      28.760  -1.475  53.355  1.00  0.00     0.274 A 
ENDBRANCH  26  27
ENDBRANCH  24  26
ENDBRANCH  19  22
BRANCH   1  31
HETATM   31  N1  UNL     1      22.456   3.545  47.653  1.00  0.00    -0.383 N 
HETATM   32  H1  UNL     1      22.472   3.116  46.706  1.00  0.00     0.157 HD
HETATM   33  H2  UNL     1      21.553   3.262  48.138  1.00  0.00     0.157 HD
ENDBRANCH   1  31
TORSDOF 4
ENDMDL
MODEL 4
REMARK VINA RESULT:      -8.5      3.302     10.033
REMARK  4 active torsions:
REMARK  status: ('A' for Active; 'I' for Inactive)
REMARK    1  A    between atoms: N1_1  and  C1_2 
REMARK    2  A    between atoms: N4_20  and  C16_21 
REMARK    3  A    between atoms: C18_23  and  C19_24 
REMARK    4  A    between atoms: C19_24  and  N5_25 
ROOT
HETATM    1  C1  UNL     1      23.368   5.735  48.080  1.00  0.00     0.135 C 
HETATM    2  N2  UNL     1      23.015   6.966  47.944  1.00  0.00    -0.225 NA
HETATM    3  C2  UNL     1      22.132   7.377  46.908  1.00  0.00     0.229 C 
HETATM    4  N3  UNL     1      22.178   8.497  46.247  1.00  0.00    -0.279 NA
HETATM    5  C3  UNL     1      23.227   9.483  46.558  1.00  0.00     0.177 C 
HETATM    6  C4  UNL     1      24.243   9.487  45.476  1.00  0.00    -0.009 C 
HETATM    7  C5  UNL     1      25.556   9.163  45.472  1.00  0.00    -0.027 C 
HETATM    8  C6  UNL     1      26.147   8.719  46.720  1.00  0.00     0.053 C 
HETATM    9  C7  UNL     1      27.323   9.527  47.223  1.00  0.00     0.179 C 
HETATM   10  O1  UNL     1      27.645   8.887  48.488  1.00  0.00    -0.351 OA
HETATM   11  C8  UNL     1      27.917   7.508  48.436  1.00  0.00     0.069 A 
HETATM   12  C9  UNL     1      28.985   6.736  48.055  1.00  0.00     0.037 A 
HETATM   13  C10 UNL     1      28.886   5.368  48.137  1.00  0.00     0.004 A 
HETATM   14  C11 UNL     1      27.730   4.802  48.594  1.00  0.00     0.012 A 
HETATM   15  C12 UNL     1      26.640   5.549  48.986  1.00  0.00    -0.021 A 
HETATM   16  C13 UNL     1      26.752   6.919  48.901  1.00  0.00     0.049 A 
HETATM   17  C14 UNL     1      25.480   4.774  49.431  1.00  0.00     0.005 A 
HETATM   18  C15 UNL     1      25.468   3.775  50.343  1.00  0.00     0.104 A 
HETATM   19  N4  UNL     1      24.227   3.286  50.511  1.00  0.00    -0.360 N 
HETATM   20  C24 UNL     1      23.439   4.016  49.665  1.00  0.00     0.107 A 
HETATM   21  C25 UNL     1      24.192   4.955  48.976  1.00  0.00     0.037 A 
ENDROOT
BRANCH  19  22
HETATM   22  C16 UNL     1      23.948   2.204  51.436  1.00  0.00     0.089 C 
HETATM   23  C17 UNL     1      23.189   2.599  52.688  1.00  0.00     0.032 C 
HETATM   24  C18 UNL     1      22.604   1.183  52.589  1.00  0.00     0.018 C 
HETATM   25  C23 UNL     1      22.670   1.431  51.075  1.00  0.00     0.032 C 
BRANCH  24  26
HETATM   26  C19 UNL     1      21.247   0.987  53.166  1.00  0.00     0.277 C 
BRANCH  26  27
HETATM   27  N5  UNL     1      21.440   0.077  54.309  1.00  0.00     0.088 N 
HETATM   28  C20 UNL     1      20.576  -1.064  54.277  1.00  0.00     0.274 A 
HETATM   29  C21 UNL     1      21.800  -1.944  54.144  1.00  0.00     0.060 A 
HETATM   30  C22 UNL     1      22.642  -0.691  54.285  1.00  0.00     0.274 A 
ENDBRANCH  26  27
ENDBRANCH  24  26
ENDBRANCH  19  22
BRANCH   1  31
HETATM   31  N1  UNL     1      22.646   5.140  46.987  1.00  0.00    -0.383 N 
HETATM   32  H1  UNL     1      21.754   5.012  46.468  1.00  0.00     0.157 HD
HETATM   33  H2  UNL     1      23.404   4.572  46.505  1.00  0.00     0.157 HD
ENDBRANCH   1  31
TORSDOF 4
ENDMDL
MODEL 5
REMARK VINA RESULT:      -8.4      4.642      9.438
REMARK  4 active torsions:
REMARK  status: ('A' for Active; 'I' for Inactive)
REMARK    1  A    between atoms: N1_1  and  C1_2 
REMARK    2  A    between atoms: N4_20  and  C16_21 
REMARK    3  A    between atoms: C18_23  and  C19_24 
REMARK    4  A    between atoms: C19_24  and  N5_25 
ROOT
HETATM    1  C1  UNL     1      21.794   3.974  49.515  1.00  0.00     0.135 C 
HETATM    2  N2  UNL     1      22.792   4.765  49.706  1.00  0.00    -0.225 NA
HETATM    3  C2  UNL     1      23.572   5.254  48.622  1.00  0.00     0.229 C 
HETATM    4  N3  UNL     1      24.855   5.472  48.624  1.00  0.00    -0.279 NA
HETATM    5  C3  UNL     1      25.636   5.205  49.845  1.00  0.00     0.177 C 
HETATM    6  C4  UNL     1      26.442   3.973  49.660  1.00  0.00    -0.009 C 
HETATM    7  C5  UNL     1      26.410   2.773  50.285  1.00  0.00    -0.027 C 
HETATM    8  C6  UNL     1      25.431   2.585  51.338  1.00  0.00     0.053 C 
HETATM    9  C7  UNL     1      25.980   2.210  52.697  1.00  0.00     0.179 C 
HETATM   10  O1  UNL     1      24.789   2.154  53.529  1.00  0.00    -0.351 OA
HETATM   11  C8  UNL     1      23.770   1.286  53.098  1.00  0.00     0.069 A 
HETATM   12  C9  UNL     1      23.560  -0.069  53.133  1.00  0.00     0.037 A 
HETATM   13  C10 UNL     1      22.408  -0.583  52.588  1.00  0.00     0.004 A 
HETATM   14  C11 UNL     1      21.495   0.261  52.023  1.00  0.00     0.012 A 
HETATM   15  C12 UNL     1      21.675   1.626  51.972  1.00  0.00    -0.021 A 
HETATM   16  C13 UNL     1      22.832   2.130  52.522  1.00  0.00     0.049 A 
HETATM   17  C14 UNL     1      20.602   2.374  51.311  1.00  0.00     0.005 A 
HETATM   18  C15 UNL     1      19.275   2.282  51.556  1.00  0.00     0.104 A 
HETATM   19  N4  UNL     1      18.578   3.117  50.765  1.00  0.00    -0.360 N 
HETATM   20  C24 UNL     1      19.517   3.750  49.999  1.00  0.00     0.107 A 
HETATM   21  C25 UNL     1      20.793   3.308  50.316  1.00  0.00     0.037 A 
ENDROOT
BRANCH  19  22
HETATM   22  C16 UNL     1      17.131   3.206  50.832  1.00  0.00     0.089 C 
HETATM   23  C17 UNL     1      16.480   2.389  51.931  1.00  0.00     0.032 C 
HETATM   24  C18 UNL     1      15.442   3.520  51.939  1.00  0.00     0.018 C 
HETATM   25  C23 UNL     1      16.651   4.420  51.643  1.00  0.00     0.032 C 
BRANCH  24  26
HETATM   26  C19 UNL     1      14.739   3.763  53.227  1.00  0.00     0.277 C 
BRANCH  26  27
HETATM   27  N5  UNL     1      13.306   3.605  52.923  1.00  0.00     0.088 N 
HETATM   28  C20 UNL     1      12.708   2.479  53.574  1.00  0.00     0.274 A 
HETATM   29  C21 UNL     1      11.823   3.437  54.342  1.00  0.00     0.060 A 
HETATM   30  C22 UNL     1      12.441   4.561  53.534  1.00  0.00     0.274 A 
ENDBRANCH  26  27
ENDBRANCH  24  26
ENDBRANCH  19  22
BRANCH   1  31
HETATM   31  N1  UNL     1      21.835   3.853  48.082  1.00  0.00    -0.383 N 
HETATM   32  H1  UNL     1      21.422   4.072  47.153  1.00  0.00     0.157 HD
HETATM   33  H2  UNL     1      22.702   3.255  47.935  1.00  0.00     0.157 HD
ENDBRANCH   1  31
TORSDOF 4
ENDMDL
MODEL 6
REMARK VINA RESULT:      -8.4      3.922     11.119
REMARK  4 active torsions:
REMARK  status: ('A' for Active; 'I' for Inactive)
REMARK    1  A    between atoms: N1_1  and  C1_2 
REMARK    2  A    between atoms: N4_20  and  C16_21 
REMARK    3  A    between atoms: C18_23  and  C19_24 
REMARK    4  A    between atoms: C19_24  and  N5_25 
ROOT
HETATM    1  C1  UNL     1      28.854   8.566  47.557  1.00  0.00     0.135 C 
HETATM    2  N2  UNL     1      29.472   9.598  48.018  1.00  0.00    -0.225 NA
HETATM    3  C2  UNL     1      29.425  10.853  47.352  1.00  0.00     0.229 C 
HETATM    4  N3  UNL     1      30.389  11.723  47.266  1.00  0.00    -0.279 NA
HETATM    5  C3  UNL     1      31.686  11.438  47.904  1.00  0.00     0.177 C 
HETATM    6  C4  UNL     1      32.690  11.103  46.864  1.00  0.00    -0.009 C 
HETATM    7  C5  UNL     1      33.380   9.968  46.611  1.00  0.00    -0.027 C 
HETATM    8  C6  UNL     1      33.144   8.826  47.474  1.00  0.00     0.053 C 
HETATM    9  C7  UNL     1      34.356   8.275  48.193  1.00  0.00     0.179 C 
HETATM   10  O1  UNL     1      33.799   7.204  49.003  1.00  0.00    -0.351 OA
HETATM   11  C8  UNL     1      33.079   6.211  48.315  1.00  0.00     0.069 A 
HETATM   12  C9  UNL     1      33.406   5.125  47.543  1.00  0.00     0.037 A 
HETATM   13  C10 UNL     1      32.400   4.358  47.006  1.00  0.00     0.004 A 
HETATM   14  C11 UNL     1      31.097   4.688  47.249  1.00  0.00     0.012 A 
HETATM   15  C12 UNL     1      30.736   5.772  48.020  1.00  0.00    -0.021 A 
HETATM   16  C13 UNL     1      31.752   6.533  48.553  1.00  0.00     0.049 A 
HETATM   17  C14 UNL     1      29.293   5.987  48.158  1.00  0.00     0.005 A 
HETATM   18  C15 UNL     1      28.364   5.073  48.518  1.00  0.00     0.104 A 
HETATM   19  N4  UNL     1      27.134   5.616  48.545  1.00  0.00    -0.360 N 
HETATM   20  C24 UNL     1      27.314   6.922  48.184  1.00  0.00     0.107 A 
HETATM   21  C25 UNL     1      28.652   7.186  47.936  1.00  0.00     0.037 A 
ENDROOT
BRANCH  19  22
HETATM   22  C16 UNL     1      25.961   4.840  48.902  1.00  0.00     0.089 C 
HETATM   23  C17 UNL     1      26.229   3.605  49.742  1.00  0.00     0.032 C 
HETATM   24  C18 UNL     1      24.846   3.904  50.336  1.00  0.00     0.018 C 
HETATM   25  C23 UNL     1      25.260   5.372  50.161  1.00  0.00     0.032 C 
BRANCH  24  26
HETATM   26  C19 UNL     1      24.614   3.446  51.732  1.00  0.00     0.277 C 
BRANCH  26  27
HETATM   27  N5  UNL     1      23.878   2.176  51.606  1.00  0.00     0.088 N 
HETATM   28  C20 UNL     1      24.638   1.035  52.020  1.00  0.00     0.274 A 
HETATM   29  C21 UNL     1      23.634   0.812  53.130  1.00  0.00     0.060 A 
HETATM   30  C22 UNL     1      22.840   1.972  52.563  1.00  0.00     0.274 A 
ENDBRANCH  26  27
ENDBRANCH  24  26
ENDBRANCH  19  22
BRANCH   1  31
HETATM   31  N1  UNL     1      28.262   9.131  46.373  1.00  0.00    -0.383 N 
HETATM   32  H1  UNL     1      27.433   9.250  45.756  1.00  0.00     0.157 HD
HETATM   33  H2  UNL     1      29.076   9.674  45.956  1.00  0.00     0.157 HD
ENDBRANCH   1  31
TORSDOF 4
ENDMDL
MODEL 7
REMARK VINA RESULT:      -8.2      3.343     10.210
REMARK  4 active torsions:
REMARK  status: ('A' for Active; 'I' for Inactive)
REMARK    1  A    between atoms: N1_1  and  C1_2 
REMARK    2  A    between atoms: N4_20  and  C16_21 
REMARK    3  A    between atoms: C18_23  and  C19_24 
REMARK    4  A    between atoms: C19_24  and  N5_25 
ROOT
HETATM    1  C1  UNL     1      23.573   7.118  47.806  1.00  0.00     0.135 C 
HETATM    2  N2  UNL     1      23.595   8.400  47.693  1.00  0.00    -0.225 NA
HETATM    3  C2  UNL     1      22.950   9.063  46.614  1.00  0.00     0.229 C 
HETATM    4  N3  UNL     1      23.364  10.136  46.002  1.00  0.00    -0.279 NA
HETATM    5  C3  UNL     1      24.621  10.776  46.428  1.00  0.00     0.177 C 
HETATM    6  C4  UNL     1      25.680  10.510  45.423  1.00  0.00    -0.009 C 
HETATM    7  C5  UNL     1      26.844   9.825  45.501  1.00  0.00    -0.027 C 
HETATM    8  C6  UNL     1      27.183   9.209  46.770  1.00  0.00     0.053 C 
HETATM    9  C7  UNL     1      28.495   9.639  47.388  1.00  0.00     0.179 C 
HETATM   10  O1  UNL     1      28.519   8.912  48.647  1.00  0.00    -0.351 OA
HETATM   11  C8  UNL     1      28.394   7.514  48.561  1.00  0.00     0.069 A 
HETATM   12  C9  UNL     1      29.227   6.476  48.227  1.00  0.00     0.037 A 
HETATM   13  C10 UNL     1      28.739   5.192  48.247  1.00  0.00     0.004 A 
HETATM   14  C11 UNL     1      27.437   4.971  48.597  1.00  0.00     0.012 A 
HETATM   15  C12 UNL     1      26.575   5.991  48.937  1.00  0.00    -0.021 A 
HETATM   16  C13 UNL     1      27.075   7.273  48.916  1.00  0.00     0.049 A 
HETATM   17  C14 UNL     1      25.211   5.571  49.267  1.00  0.00     0.005 A 
HETATM   18  C15 UNL     1      24.843   4.600  50.135  1.00  0.00     0.104 A 
HETATM   19  N4  UNL     1      23.505   4.483  50.192  1.00  0.00    -0.360 N 
HETATM   20  C24 UNL     1      23.026   5.422  49.321  1.00  0.00     0.107 A 
HETATM   21  C25 UNL     1      24.067   6.119  48.726  1.00  0.00     0.037 A 
ENDROOT
BRANCH  19  22
HETATM   22  C16 UNL     1      22.858   3.509  51.052  1.00  0.00     0.089 C 
HETATM   23  C17 UNL     1      23.262   2.066  50.817  1.00  0.00     0.032 C 
HETATM   24  C18 UNL     1      23.009   1.917  52.324  1.00  0.00     0.018 C 
HETATM   25  C23 UNL     1      23.573   3.343  52.401  1.00  0.00     0.032 C 
BRANCH  24  26
HETATM   26  C19 UNL     1      23.788   0.860  53.022  1.00  0.00     0.277 C 
BRANCH  26  27
HETATM   27  N5  UNL     1      22.849  -0.260  53.202  1.00  0.00     0.088 N 
HETATM   28  C20 UNL     1      22.976  -0.911  54.471  1.00  0.00     0.274 A 
HETATM   29  C21 UNL     1      21.568  -0.466  54.802  1.00  0.00     0.060 A 
HETATM   30  C22 UNL     1      21.485   0.109  53.403  1.00  0.00     0.274 A 
ENDBRANCH  26  27
ENDBRANCH  24  26
ENDBRANCH  19  22
BRANCH   1  31
HETATM   31  N1  UNL     1      22.803   6.772  46.640  1.00  0.00    -0.383 N 
HETATM   32  H1  UNL     1      22.736   6.284  45.725  1.00  0.00     0.157 HD
HETATM   33  H2  UNL     1      21.877   7.255  46.836  1.00  0.00     0.157 HD
ENDBRANCH   1  31
TORSDOF 4
ENDMDL
MODEL 8
REMARK VINA RESULT:      -7.9      4.533      9.699
REMARK  4 active torsions:
REMARK  status: ('A' for Active; 'I' for Inactive)
REMARK    1  A    between atoms: N1_1  and  C1_2 
REMARK    2  A    between atoms: N4_20  and  C16_21 
REMARK    3  A    between atoms: C18_23  and  C19_24 
REMARK    4  A    between atoms: C19_24  and  N5_25 
ROOT
HETATM    1  C1  UNL     1      21.923  -0.243  53.734  1.00  0.00     0.135 C 
HETATM    2  N2  UNL     1      23.102  -0.756  53.659  1.00  0.00    -0.225 NA
HETATM    3  C2  UNL     1      23.808  -1.169  54.821  1.00  0.00     0.229 C 
HETATM    4  N3  UNL     1      25.091  -1.082  55.023  1.00  0.00    -0.279 NA
HETATM    5  C3  UNL     1      25.954  -0.508  53.976  1.00  0.00     0.177 C 
HETATM    6  C4  UNL     1      26.396   0.849  54.384  1.00  0.00    -0.009 C 
HETATM    7  C5  UNL     1      26.162   2.070  53.852  1.00  0.00    -0.027 C 
HETATM    8  C6  UNL     1      25.334   2.143  52.663  1.00  0.00     0.053 C 
HETATM    9  C7  UNL     1      25.969   2.784  51.449  1.00  0.00     0.179 C 
HETATM   10  O1  UNL     1      24.938   2.655  50.432  1.00  0.00    -0.351 OA
HETATM   11  C8  UNL     1      23.684   3.210  50.743  1.00  0.00     0.069 A 
HETATM   12  C9  UNL     1      23.154   4.475  50.771  1.00  0.00     0.037 A 
HETATM   13  C10 UNL     1      21.844   4.645  51.147  1.00  0.00     0.004 A 
HETATM   14  C11 UNL     1      21.094   3.555  51.486  1.00  0.00     0.012 A 
HETATM   15  C12 UNL     1      21.595   2.272  51.468  1.00  0.00    -0.021 A 
HETATM   16  C13 UNL     1      22.909   2.114  51.088  1.00  0.00     0.049 A 
HETATM   17  C14 UNL     1      20.653   1.228  51.880  1.00  0.00     0.005 A 
HETATM   18  C15 UNL     1      19.396   1.036  51.420  1.00  0.00     0.104 A 
HETATM   19  N4  UNL     1      18.817  -0.019  52.018  1.00  0.00    -0.360 N 
HETATM   20  C24 UNL     1      19.758  -0.500  52.885  1.00  0.00     0.107 A 
HETATM   21  C25 UNL     1      20.918   0.258  52.823  1.00  0.00     0.037 A 
ENDROOT
BRANCH  19  22
HETATM   22  C16 UNL     1      17.463  -0.433  51.699  1.00  0.00     0.089 C 
HETATM   23  C17 UNL     1      16.655  -0.969  52.865  1.00  0.00     0.032 C 
HETATM   24  C18 UNL     1      15.462  -0.362  52.113  1.00  0.00     0.018 C 
HETATM   25  C23 UNL     1      16.465   0.735  51.727  1.00  0.00     0.032 C 
BRANCH  24  26
HETATM   26  C19 UNL     1      14.305   0.065  52.944  1.00  0.00     0.277 C 
BRANCH  26  27
HETATM   27  N5  UNL     1      13.135  -0.608  52.354  1.00  0.00     0.088 N 
HETATM   28  C20 UNL     1      13.026  -1.987  52.723  1.00  0.00     0.274 A 
HETATM   29  C21 UNL     1      11.728  -1.661  53.428  1.00  0.00     0.060 A 
HETATM   30  C22 UNL     1      11.873  -0.244  52.911  1.00  0.00     0.274 A 
ENDBRANCH  26  27
ENDBRANCH  24  26
ENDBRANCH  19  22
BRANCH   1  31
HETATM   31  N1  UNL     1      21.719  -0.276  55.158  1.00  0.00    -0.383 N 
HETATM   32  H1  UNL     1      21.866   0.155  56.093  1.00  0.00     0.157 HD
HETATM   33  H2  UNL     1      21.153  -1.167  55.280  1.00  0.00     0.157 HD
ENDBRANCH   1  31
TORSDOF 4
ENDMDL
MODEL 9
REMARK VINA RESULT:      -7.9      3.475     10.527
REMARK  4 active torsions:
REMARK  status: ('A' for Active; 'I' for Inactive)
REMARK    1  A    between atoms: N1_1  and  C1_2 
REMARK    2  A    between atoms: N4_20  and  C16_21 
REMARK    3  A    between atoms: C18_23  and  C19_24 
REMARK    4  A    between atoms: C19_24  and  N5_25 
ROOT
HETATM    1  C1  UNL     1      29.673   6.447  48.194  1.00  0.00     0.135 C 
HETATM    2  N2  UNL     1      30.506   6.671  47.237  1.00  0.00    -0.225 NA
HETATM    3  C2  UNL     1      31.910   6.666  47.457  1.00  0.00     0.229 C 
HETATM    4  N3  UNL     1      32.789   7.436  46.882  1.00  0.00    -0.279 NA
HETATM    5  C3  UNL     1      32.346   8.433  45.892  1.00  0.00     0.177 C 
HETATM    6  C4  UNL     1      32.417   9.791  46.487  1.00  0.00    -0.009 C 
HETATM    7  C5  UNL     1      31.459  10.703  46.768  1.00  0.00    -0.027 C 
HETATM    8  C6  UNL     1      30.085  10.358  46.458  1.00  0.00     0.053 C 
HETATM    9  C7  UNL     1      29.362  11.292  45.513  1.00  0.00     0.179 C 
HETATM   10  O1  UNL     1      28.062  10.661  45.357  1.00  0.00    -0.351 OA
HETATM   11  C8  UNL     1      27.340  10.421  46.540  1.00  0.00     0.069 A 
HETATM   12  C9  UNL     1      26.592  11.184  47.401  1.00  0.00     0.037 A 
HETATM   13  C10 UNL     1      26.021  10.590  48.500  1.00  0.00     0.004 A 
HETATM   14  C11 UNL     1      26.207   9.254  48.716  1.00  0.00     0.012 A 
HETATM   15  C12 UNL     1      26.951   8.459  47.871  1.00  0.00    -0.021 A 
HETATM   16  C13 UNL     1      27.517   9.066  46.772  1.00  0.00     0.049 A 
HETATM   17  C14 UNL     1      27.058   7.054  48.269  1.00  0.00     0.005 A 
HETATM   18  C15 UNL     1      26.046   6.222  48.605  1.00  0.00     0.104 A 
HETATM   19  N4  UNL     1      26.508   4.998  48.915  1.00  0.00    -0.360 N 
HETATM   20  C24 UNL     1      27.864   5.079  48.764  1.00  0.00     0.107 A 
HETATM   21  C25 UNL     1      28.241   6.351  48.361  1.00  0.00     0.037 A 
ENDROOT
BRANCH  19  22
HETATM   22  C16 UNL     1      25.618   3.921  49.312  1.00  0.00     0.089 C 
HETATM   23  C17 UNL     1      26.255   2.828  50.149  1.00  0.00     0.032 C 
HETATM   24  C18 UNL     1      24.861   2.724  50.785  1.00  0.00     0.018 C 
HETATM   25  C23 UNL     1      24.830   4.247  50.590  1.00  0.00     0.032 C 
BRANCH  24  26
HETATM   26  C19 UNL     1      24.811   2.238  52.189  1.00  0.00     0.277 C 
BRANCH  26  27
HETATM   27  N5  UNL     1      24.114   0.942  52.127  1.00  0.00     0.088 N 
HETATM   28  C20 UNL     1      24.007   0.292  53.398  1.00  0.00     0.274 A 
HETATM   29  C21 UNL     1      22.503   0.424  53.301  1.00  0.00     0.060 A 
HETATM   30  C22 UNL     1      22.704   1.013  51.919  1.00  0.00     0.274 A 
ENDBRANCH  26  27
ENDBRANCH  24  26
ENDBRANCH  19  22
BRANCH   1  31
HETATM   31  N1  UNL     1      30.587   6.249  49.287  1.00  0.00    -0.383 N 
HETATM   32  H1  UNL     1      30.830   6.393  50.288  1.00  0.00     0.157 HD
HETATM   33  H2  UNL     1      31.368   5.695  48.825  1.00  0.00     0.157 HD
ENDBRANCH   1  31
TORSDOF 4
ENDMDL
