MODEL 1
REMARK VINA RESULT:      -6.5      0.000      0.000
REMARK  3 active torsions:
REMARK  status: ('A' for Active; 'I' for Inactive)
REMARK    1  A    between atoms: N1_9  and  C8_10 
REMARK    2  A    between atoms: C11_17  and  C12_18 
REMARK    3  A    between atoms: C12_18  and  N6_19 
ROOT
HETATM    1  C1  UNL     1      22.470   3.320  47.938  1.00  0.00     0.033 C 
HETATM    2  C2  UNL     1      22.661   2.976  49.174  1.00  0.00     0.005 C 
HETATM    3  C3  UNL     1      22.932   2.688  50.566  1.00  0.00     0.054 A 
HETATM    4  C4  UNL     1      22.368   1.519  50.841  1.00  0.00     0.042 A 
HETATM    5 CL1  UNL     1      21.511   0.697  49.547  1.00  0.00    -0.086 Cl
HETATM    6  C5  UNL     1      22.497   0.979  52.225  1.00  0.00     0.082 A 
HETATM    7  C6  UNL     1      23.284   1.954  53.011  1.00  0.00    -0.004 A 
HETATM    8  C7  UNL     1      23.843   3.114  52.733  1.00  0.00     0.095 A 
HETATM    9  N1  UNL     1      23.673   3.551  51.404  1.00  0.00    -0.304 N 
ENDROOT
BRANCH   9  10
HETATM   10  C8  UNL     1      24.223   4.755  50.920  1.00  0.00     0.166 A 
HETATM   11  N2  UNL     1      23.494   5.802  51.205  1.00  0.00    -0.220 NA
HETATM   12  C9  UNL     1      23.921   7.112  50.779  1.00  0.00     0.259 A 
HETATM   13  N3  UNL     1      25.022   7.271  50.112  1.00  0.00    -0.149 NA
HETATM   14  N4  UNL     1      25.812   6.150  49.800  1.00  0.00    -0.191 N 
HETATM   15  N5  UNL     1      27.014   6.168  49.107  1.00  0.00    -0.212 NA
HETATM   16  C14 UNL     1      25.464   4.831  50.183  1.00  0.00     0.123 A 
HETATM   17  C10 UNL     1      27.414   4.782  49.046  1.00  0.00     0.151 A 
HETATM   18  H9  UNL     1      26.948   6.521  48.129  1.00  0.00     0.149 HD
HETATM   19  C11 UNL     1      26.391   4.001  49.772  1.00  0.00    -0.004 A 
BRANCH  19  20
HETATM   20  C12 UNL     1      26.411   2.558  50.016  1.00  0.00     0.307 C 
BRANCH  20  21
HETATM   21  N6  UNL     1      26.882   2.147  51.309  1.00  0.00     0.083 N 
HETATM   22  C13 UNL     1      26.566   0.803  51.670  1.00  0.00     0.307 C 
HETATM   23  H14 UNL     1      27.876   2.418  51.412  1.00  0.00     0.315 HD
ENDBRANCH  20  21
ENDBRANCH  19  20
ENDBRANCH   9  10
TORSDOF 3
ENDMDL
MODEL 2
REMARK VINA RESULT:      -6.4      2.764      5.257
REMARK  3 active torsions:
REMARK  status: ('A' for Active; 'I' for Inactive)
REMARK    1  A    between atoms: N1_9  and  C8_10 
REMARK    2  A    between atoms: C11_17  and  C12_18 
REMARK    3  A    between atoms: C12_18  and  N6_19 
ROOT
HETATM    1  C1  UNL     1      22.548   4.968  52.704  1.00  0.00     0.033 C 
HETATM    2  C2  UNL     1      23.511   4.701  51.876  1.00  0.00     0.005 C 
HETATM    3  C3  UNL     1      24.571   4.293  50.980  1.00  0.00     0.054 A 
HETATM    4  C4  UNL     1      25.054   5.395  50.419  1.00  0.00     0.042 A 
HETATM    5 CL1  UNL     1      24.336   6.930  50.877  1.00  0.00    -0.086 Cl
HETATM    6  C5  UNL     1      26.170   5.259  49.440  1.00  0.00     0.082 A 
HETATM    7  C6  UNL     1      26.491   3.820  49.328  1.00  0.00    -0.004 A 
HETATM    8  C7  UNL     1      26.009   2.729  49.887  1.00  0.00     0.095 A 
HETATM    9  N1  UNL     1      24.956   2.946  50.799  1.00  0.00    -0.304 N 
ENDROOT
BRANCH   9  10
HETATM   10  C8  UNL     1      24.335   1.900  51.511  1.00  0.00     0.166 A 
HETATM   11  N2  UNL     1      23.130   1.633  51.082  1.00  0.00    -0.220 NA
HETATM   12  C9  UNL     1      22.360   0.586  51.708  1.00  0.00     0.259 A 
HETATM   13  N3  UNL     1      22.845  -0.098  52.697  1.00  0.00    -0.149 NA
HETATM   14  N4  UNL     1      24.141   0.183  53.166  1.00  0.00    -0.191 N 
HETATM   15  N5  UNL     1      24.792  -0.471  54.202  1.00  0.00    -0.212 NA
HETATM   16  C14 UNL     1      24.961   1.193  52.605  1.00  0.00     0.123 A 
HETATM   17  C10 UNL     1      26.074   0.187  54.293  1.00  0.00     0.151 A 
HETATM   18  H9  UNL     1      24.327  -0.387  55.131  1.00  0.00     0.149 HD
HETATM   19  C11 UNL     1      26.113   1.214  53.231  1.00  0.00    -0.004 A 
BRANCH  19  20
HETATM   20  C12 UNL     1      27.241   2.089  52.909  1.00  0.00     0.307 C 
BRANCH  20  21
HETATM   21  N6  UNL     1      27.974   2.606  54.031  1.00  0.00     0.083 N 
HETATM   22  C13 UNL     1      29.254   2.012  54.243  1.00  0.00     0.307 C 
HETATM   23  H14 UNL     1      27.957   3.640  54.003  1.00  0.00     0.315 HD
ENDBRANCH  20  21
ENDBRANCH  19  20
ENDBRANCH   9  10
TORSDOF 3
ENDMDL
MODEL 3
REMARK VINA RESULT:      -6.3      1.221      3.115
REMARK  3 active torsions:
REMARK  status: ('A' for Active; 'I' for Inactive)
REMARK    1  A    between atoms: N1_9  and  C8_10 
REMARK    2  A    between atoms: C11_17  and  C12_18 
REMARK    3  A    between atoms: C12_18  and  N6_19 
ROOT
HETATM    1  C1  UNL     1      22.543   2.830  48.115  1.00  0.00     0.033 C 
HETATM    2  C2  UNL     1      22.951   2.517  49.306  1.00  0.00     0.005 C 
HETATM    3  C3  UNL     1      23.486   2.249  50.624  1.00  0.00     0.054 A 
HETATM    4  C4  UNL     1      22.756   1.273  51.150  1.00  0.00     0.042 A 
HETATM    5 CL1  UNL     1      21.442   0.620  50.186  1.00  0.00    -0.086 Cl
HETATM    6  C5  UNL     1      23.098   0.796  52.521  1.00  0.00     0.082 A 
HETATM    7  C6  UNL     1      24.255   1.586  52.992  1.00  0.00    -0.004 A 
HETATM    8  C7  UNL     1      24.977   2.554  52.465  1.00  0.00     0.095 A 
HETATM    9  N1  UNL     1      24.587   2.946  51.168  1.00  0.00    -0.304 N 
ENDROOT
BRANCH   9  10
HETATM   10  C8  UNL     1      25.259   3.947  50.439  1.00  0.00     0.166 A 
HETATM   11  N2  UNL     1      26.313   3.502  49.808  1.00  0.00    -0.220 NA
HETATM   12  C9  UNL     1      27.110   4.405  49.016  1.00  0.00     0.259 A 
HETATM   13  N3  UNL     1      26.800   5.660  48.918  1.00  0.00    -0.149 NA
HETATM   14  N4  UNL     1      25.667   6.149  49.595  1.00  0.00    -0.191 N 
HETATM   15  N5  UNL     1      25.208   7.458  49.575  1.00  0.00    -0.212 NA
HETATM   16  C14 UNL     1      24.832   5.328  50.392  1.00  0.00     0.123 A 
HETATM   17  C10 UNL     1      24.038   7.441  50.420  1.00  0.00     0.151 A 
HETATM   18  H9  UNL     1      25.872   8.159  49.968  1.00  0.00     0.149 HD
HETATM   19  C11 UNL     1      23.853   6.049  50.881  1.00  0.00    -0.004 A 
BRANCH  19  20
HETATM   20  C12 UNL     1      22.760   5.548  51.714  1.00  0.00     0.307 C 
BRANCH  20  21
HETATM   21  N6  UNL     1      21.458   5.545  51.107  1.00  0.00     0.083 N 
HETATM   22  C13 UNL     1      20.643   4.418  51.427  1.00  0.00     0.307 C 
HETATM   23  H14 UNL     1      21.017   6.471  51.241  1.00  0.00     0.315 HD
ENDBRANCH  20  21
ENDBRANCH  19  20
ENDBRANCH   9  10
TORSDOF 3
ENDMDL
MODEL 4
REMARK VINA RESULT:      -6.3      2.249      4.545
REMARK  3 active torsions:
REMARK  status: ('A' for Active; 'I' for Inactive)
REMARK    1  A    between atoms: N1_9  and  C8_10 
REMARK    2  A    between atoms: C11_17  and  C12_18 
REMARK    3  A    between atoms: C12_18  and  N6_19 
ROOT
HETATM    1  C1  UNL     1      21.843   0.900  52.130  1.00  0.00     0.033 C 
HETATM    2  C2  UNL     1      22.990   1.359  51.734  1.00  0.00     0.005 C 
HETATM    3  C3  UNL     1      24.213   1.935  51.217  1.00  0.00     0.054 A 
HETATM    4  C4  UNL     1      25.218   1.386  51.888  1.00  0.00     0.042 A 
HETATM    5 CL1  UNL     1      24.827   0.201  53.125  1.00  0.00    -0.086 Cl
HETATM    6  C5  UNL     1      26.608   1.808  51.552  1.00  0.00     0.082 A 
HETATM    7  C6  UNL     1      26.518   2.809  50.468  1.00  0.00    -0.004 A 
HETATM    8  C7  UNL     1      25.518   3.351  49.804  1.00  0.00     0.095 A 
HETATM    9  N1  UNL     1      24.238   2.898  50.184  1.00  0.00    -0.304 N 
ENDROOT
BRANCH   9  10
HETATM   10  C8  UNL     1      23.054   3.348  49.567  1.00  0.00     0.166 A 
HETATM   11  N2  UNL     1      22.659   2.574  48.592  1.00  0.00    -0.220 NA
HETATM   12  C9  UNL     1      21.461   2.898  47.857  1.00  0.00     0.259 A 
HETATM   13  N3  UNL     1      20.764   3.952  48.148  1.00  0.00    -0.149 NA
HETATM   14  N4  UNL     1      21.183   4.792  49.196  1.00  0.00    -0.191 N 
HETATM   15  N5  UNL     1      20.536   5.942  49.627  1.00  0.00    -0.212 NA
HETATM   16  C14 UNL     1      22.346   4.543  49.966  1.00  0.00     0.123 A 
HETATM   17  C10 UNL     1      21.358   6.434  50.706  1.00  0.00     0.151 A 
HETATM   18  H9  UNL     1      20.468   6.698  48.911  1.00  0.00     0.149 HD
HETATM   19  C11 UNL     1      22.473   5.479  50.875  1.00  0.00    -0.004 A 
BRANCH  19  20
HETATM   20  C12 UNL     1      23.525   5.542  51.891  1.00  0.00     0.307 C 
BRANCH  20  21
HETATM   21  N6  UNL     1      24.327   6.734  51.889  1.00  0.00     0.083 N 
HETATM   22  C13 UNL     1      25.030   6.989  50.674  1.00  0.00     0.307 C 
HETATM   23  H14 UNL     1      23.768   7.522  52.259  1.00  0.00     0.315 HD
ENDBRANCH  20  21
ENDBRANCH  19  20
ENDBRANCH   9  10
TORSDOF 3
ENDMDL
MODEL 5
REMARK VINA RESULT:      -6.2      2.748      4.988
REMARK  3 active torsions:
REMARK  status: ('A' for Active; 'I' for Inactive)
REMARK    1  A    between atoms: N1_9  and  C8_10 
REMARK    2  A    between atoms: C11_17  and  C12_18 
REMARK    3  A    between atoms: C12_18  and  N6_19 
ROOT
HETATM    1  C1  UNL     1      21.552   0.984  48.958  1.00  0.00     0.033 C 
HETATM    2  C2  UNL     1      22.029   2.041  49.538  1.00  0.00     0.005 C 
HETATM    3  C3  UNL     1      22.549   3.168  50.284  1.00  0.00     0.054 A 
HETATM    4  C4  UNL     1      22.851   4.114  49.403  1.00  0.00     0.042 A 
HETATM    5 CL1  UNL     1      22.563   3.775  47.705  1.00  0.00    -0.086 Cl
HETATM    6  C5  UNL     1      23.413   5.398  49.911  1.00  0.00     0.082 A 
HETATM    7  C6  UNL     1      23.500   5.295  51.383  1.00  0.00    -0.004 A 
HETATM    8  C7  UNL     1      23.198   4.353  52.253  1.00  0.00     0.095 A 
HETATM    9  N1  UNL     1      22.674   3.171  51.691  1.00  0.00    -0.304 N 
ENDROOT
BRANCH   9  10
HETATM   10  C8  UNL     1      22.272   2.068  52.469  1.00  0.00     0.166 A 
HETATM   11  N2  UNL     1      20.987   2.049  52.708  1.00  0.00    -0.220 NA
HETATM   12  C9  UNL     1      20.418   0.983  53.493  1.00  0.00     0.259 A 
HETATM   13  N3  UNL     1      21.162   0.036  53.972  1.00  0.00    -0.149 NA
HETATM   14  N4  UNL     1      22.546   0.048  53.722  1.00  0.00    -0.191 N 
HETATM   15  N5  UNL     1      23.461  -0.900  54.158  1.00  0.00    -0.212 NA
HETATM   16  C14 UNL     1      23.183   1.058  52.960  1.00  0.00     0.123 A 
HETATM   17  C10 UNL     1      24.730  -0.434  53.650  1.00  0.00     0.151 A 
HETATM   18  H9  UNL     1      23.546  -0.981  55.194  1.00  0.00     0.149 HD
HETATM   19  C11 UNL     1      24.465   0.799  52.881  1.00  0.00    -0.004 A 
BRANCH  19  20
HETATM   20  C12 UNL     1      25.449   1.588  52.138  1.00  0.00     0.307 C 
BRANCH  20  21
HETATM   21  N6  UNL     1      26.256   2.482  52.921  1.00  0.00     0.083 N 
HETATM   22  C13 UNL     1      27.613   2.077  53.095  1.00  0.00     0.307 C 
HETATM   23  H14 UNL     1      26.115   3.451  52.586  1.00  0.00     0.315 HD
ENDBRANCH  20  21
ENDBRANCH  19  20
ENDBRANCH   9  10
TORSDOF 3
ENDMDL
MODEL 6
REMARK VINA RESULT:      -6.1      2.597      5.120
REMARK  3 active torsions:
REMARK  status: ('A' for Active; 'I' for Inactive)
REMARK    1  A    between atoms: N1_9  and  C8_10 
REMARK    2  A    between atoms: C11_17  and  C12_18 
REMARK    3  A    between atoms: C12_18  and  N6_19 
ROOT
HETATM    1  C1  UNL     1      21.320   5.688  51.171  1.00  0.00     0.033 C 
HETATM    2  C2  UNL     1      22.523   5.490  50.728  1.00  0.00     0.005 C 
HETATM    3  C3  UNL     1      23.837   5.160  50.220  1.00  0.00     0.054 A 
HETATM    4  C4  UNL     1      24.553   6.278  50.231  1.00  0.00     0.042 A 
HETATM    5 CL1  UNL     1      23.777   7.742  50.813  1.00  0.00    -0.086 Cl
HETATM    6  C5  UNL     1      25.963   6.220  49.751  1.00  0.00     0.082 A 
HETATM    7  C6  UNL     1      26.240   4.823  49.352  1.00  0.00    -0.004 A 
HETATM    8  C7  UNL     1      25.526   3.716  49.342  1.00  0.00     0.095 A 
HETATM    9  N1  UNL     1      24.204   3.859  49.811  1.00  0.00    -0.304 N 
ENDROOT
BRANCH   9  10
HETATM   10  C8  UNL     1      23.304   2.778  49.897  1.00  0.00     0.166 A 
HETATM   11  N2  UNL     1      22.735   2.493  48.755  1.00  0.00    -0.220 NA
HETATM   12  C9  UNL     1      21.786   1.411  48.676  1.00  0.00     0.259 A 
HETATM   13  N3  UNL     1      21.483   0.710  49.725  1.00  0.00    -0.149 NA
HETATM   14  N4  UNL     1      22.090   1.011  50.958  1.00  0.00    -0.191 N 
HETATM   15  N5  UNL     1      21.874   0.344  52.156  1.00  0.00    -0.212 NA
HETATM   16  C14 UNL     1      23.032   2.056  51.119  1.00  0.00     0.123 A 
HETATM   17  C10 UNL     1      22.716   1.031  53.105  1.00  0.00     0.151 A 
HETATM   18  H9  UNL     1      20.895   0.390  52.510  1.00  0.00     0.149 HD
HETATM   19  C11 UNL     1      23.436   2.088  52.365  1.00  0.00    -0.004 A 
BRANCH  19  20
HETATM   20  C12 UNL     1      24.442   3.000  52.911  1.00  0.00     0.307 C 
BRANCH  20  21
HETATM   21  N6  UNL     1      25.811   2.598  52.740  1.00  0.00     0.083 N 
HETATM   22  C13 UNL     1      26.355   1.831  53.813  1.00  0.00     0.307 C 
HETATM   23  H14 UNL     1      25.933   2.198  51.794  1.00  0.00     0.315 HD
ENDBRANCH  20  21
ENDBRANCH  19  20
ENDBRANCH   9  10
TORSDOF 3
ENDMDL
MODEL 7
REMARK VINA RESULT:      -6.1      1.713      3.945
REMARK  3 active torsions:
REMARK  status: ('A' for Active; 'I' for Inactive)
REMARK    1  A    between atoms: N1_9  and  C8_10 
REMARK    2  A    between atoms: C11_17  and  C12_18 
REMARK    3  A    between atoms: C12_18  and  N6_19 
ROOT
HETATM    1  C1  UNL     1      25.298   2.403  53.483  1.00  0.00     0.033 C 
HETATM    2  C2  UNL     1      24.438   2.165  52.541  1.00  0.00     0.005 C 
HETATM    3  C3  UNL     1      23.531   1.980  51.429  1.00  0.00     0.054 A 
HETATM    4  C4  UNL     1      22.668   1.036  51.782  1.00  0.00     0.042 A 
HETATM    5 CL1  UNL     1      22.841   0.321  53.376  1.00  0.00    -0.086 Cl
HETATM    6  C5  UNL     1      21.610   0.644  50.806  1.00  0.00     0.082 A 
HETATM    7  C6  UNL     1      21.796   1.470  49.593  1.00  0.00    -0.004 A 
HETATM    8  C7  UNL     1      22.656   2.406  49.247  1.00  0.00     0.095 A 
HETATM    9  N1  UNL     1      23.622   2.715  50.226  1.00  0.00    -0.304 N 
ENDROOT
BRANCH   9  10
HETATM   10  C8  UNL     1      24.605   3.708  50.041  1.00  0.00     0.166 A 
HETATM   11  N2  UNL     1      25.670   3.267  49.426  1.00  0.00    -0.220 NA
HETATM   12  C9  UNL     1      26.769   4.162  49.161  1.00  0.00     0.259 A 
HETATM   13  N3  UNL     1      26.720   5.405  49.526  1.00  0.00    -0.149 NA
HETATM   14  N4  UNL     1      25.578   5.889  50.190  1.00  0.00    -0.191 N 
HETATM   15  N5  UNL     1      25.381   7.190  50.628  1.00  0.00    -0.212 NA
HETATM   16  C14 UNL     1      24.457   5.075  50.487  1.00  0.00     0.123 A 
HETATM   17  C10 UNL     1      24.074   7.168  51.243  1.00  0.00     0.151 A 
HETATM   18  H9  UNL     1      26.062   7.517  51.346  1.00  0.00     0.149 HD
HETATM   19  C11 UNL     1      23.545   5.797  51.091  1.00  0.00    -0.004 A 
BRANCH  19  20
HETATM   20  C12 UNL     1      22.226   5.323  51.514  1.00  0.00     0.307 C 
BRANCH  20  21
HETATM   21  N6  UNL     1      21.102   5.922  50.851  1.00  0.00     0.083 N 
HETATM   22  C13 UNL     1      21.055   5.723  49.439  1.00  0.00     0.307 C 
HETATM   23  H14 UNL     1      20.236   5.687  51.368  1.00  0.00     0.315 HD
ENDBRANCH  20  21
ENDBRANCH  19  20
ENDBRANCH   9  10
TORSDOF 3
ENDMDL
MODEL 8
REMARK VINA RESULT:      -6.1      6.904      9.985
REMARK  3 active torsions:
REMARK  status: ('A' for Active; 'I' for Inactive)
REMARK    1  A    between atoms: N1_9  and  C8_10 
REMARK    2  A    between atoms: C11_17  and  C12_18 
REMARK    3  A    between atoms: C12_18  and  N6_19 
ROOT
HETATM    1  C1  UNL     1      32.196   6.987  44.414  1.00  0.00     0.033 C 
HETATM    2  C2  UNL     1      32.755   6.038  45.098  1.00  0.00     0.005 C 
HETATM    3  C3  UNL     1      33.302   4.997  45.942  1.00  0.00     0.054 A 
HETATM    4  C4  UNL     1      34.341   4.479  45.300  1.00  0.00     0.042 A 
HETATM    5 CL1  UNL     1      34.745   5.141  43.725  1.00  0.00    -0.086 Cl
HETATM    6  C5  UNL     1      35.097   3.373  45.955  1.00  0.00     0.082 A 
HETATM    7  C6  UNL     1      34.454   3.106  47.260  1.00  0.00    -0.004 A 
HETATM    8  C7  UNL     1      33.422   3.624  47.893  1.00  0.00     0.095 A 
HETATM    9  N1  UNL     1      32.764   4.663  47.205  1.00  0.00    -0.304 N 
ENDROOT
BRANCH   9  10
HETATM   10  C8  UNL     1      31.656   5.351  47.739  1.00  0.00     0.166 A 
HETATM   11  N2  UNL     1      30.524   4.727  47.548  1.00  0.00    -0.220 NA
HETATM   12  C9  UNL     1      29.295   5.302  48.037  1.00  0.00     0.259 A 
HETATM   13  N3  UNL     1      29.292   6.436  48.665  1.00  0.00    -0.149 NA
HETATM   14  N4  UNL     1      30.506   7.116  48.874  1.00  0.00    -0.191 N 
HETATM   15  N5  UNL     1      30.659   8.326  49.536  1.00  0.00    -0.212 NA
HETATM   16  C14 UNL     1      31.755   6.619  48.427  1.00  0.00     0.123 A 
HETATM   17  C10 UNL     1      32.076   8.593  49.475  1.00  0.00     0.151 A 
HETATM   18  H9  UNL     1      30.166   9.131  49.092  1.00  0.00     0.149 HD
HETATM   19  C11 UNL     1      32.705   7.452  48.777  1.00  0.00    -0.004 A 
BRANCH  19  20
HETATM   20  C12 UNL     1      34.135   7.262  48.535  1.00  0.00     0.307 C 
BRANCH  20  21
HETATM   21  N6  UNL     1      34.866   8.435  48.144  1.00  0.00     0.083 N 
HETATM   22  C13 UNL     1      34.737   8.798  46.770  1.00  0.00     0.307 C 
HETATM   23  H14 UNL     1      34.688   9.192  48.827  1.00  0.00     0.315 HD
ENDBRANCH  20  21
ENDBRANCH  19  20
ENDBRANCH   9  10
TORSDOF 3
ENDMDL
MODEL 9
REMARK VINA RESULT:      -6.0      2.377      3.922
REMARK  3 active torsions:
REMARK  status: ('A' for Active; 'I' for Inactive)
REMARK    1  A    between atoms: N1_9  and  C8_10 
REMARK    2  A    between atoms: C11_17  and  C12_18 
REMARK    3  A    between atoms: C12_18  and  N6_19 
ROOT
HETATM    1  C1  UNL     1      26.425   1.757  51.500  1.00  0.00     0.033 C 
HETATM    2  C2  UNL     1      25.234   1.496  51.943  1.00  0.00     0.005 C 
HETATM    3  C3  UNL     1      23.872   1.305  52.393  1.00  0.00     0.054 A 
HETATM    4  C4  UNL     1      23.831   0.142  53.031  1.00  0.00     0.042 A 
HETATM    5 CL1  UNL     1      25.320  -0.781  53.150  1.00  0.00    -0.086 Cl
HETATM    6  C5  UNL     1      22.529  -0.305  53.604  1.00  0.00     0.082 A 
HETATM    7  C6  UNL     1      21.527   0.739  53.298  1.00  0.00    -0.004 A 
HETATM    8  C7  UNL     1      21.572   1.893  52.664  1.00  0.00     0.095 A 
HETATM    9  N1  UNL     1      22.840   2.239  52.154  1.00  0.00    -0.304 N 
ENDROOT
BRANCH   9  10
HETATM   10  C8  UNL     1      23.083   3.447  51.470  1.00  0.00     0.166 A 
HETATM   11  N2  UNL     1      23.543   4.392  52.247  1.00  0.00    -0.220 NA
HETATM   12  C9  UNL     1      23.843   5.691  51.697  1.00  0.00     0.259 A 
HETATM   13  N3  UNL     1      23.661   5.942  50.439  1.00  0.00    -0.149 NA
HETATM   14  N4  UNL     1      23.165   4.931  49.595  1.00  0.00    -0.191 N 
HETATM   15  N5  UNL     1      22.932   5.049  48.232  1.00  0.00    -0.212 NA
HETATM   16  C14 UNL     1      22.848   3.629  50.056  1.00  0.00     0.123 A 
HETATM   17  C10 UNL     1      22.427   3.754  47.841  1.00  0.00     0.151 A 
HETATM   18  H9  UNL     1      22.215   5.759  47.972  1.00  0.00     0.149 HD
HETATM   19  C11 UNL     1      22.426   2.903  49.049  1.00  0.00    -0.004 A 
BRANCH  19  20
HETATM   20  C12 UNL     1      22.048   1.491  49.117  1.00  0.00     0.307 C 
BRANCH  20  21
HETATM   21  N6  UNL     1      20.704   1.182  48.714  1.00  0.00     0.083 N 
HETATM   22  C13 UNL     1      19.681   1.808  49.487  1.00  0.00     0.307 C 
HETATM   23  H14 UNL     1      20.622   1.290  47.688  1.00  0.00     0.315 HD
ENDBRANCH  20  21
ENDBRANCH  19  20
ENDBRANCH   9  10
TORSDOF 3
ENDMDL
