MODEL 1
REMARK VINA RESULT:      -8.8      0.000      0.000
REMARK  6 active torsions:
REMARK  status: ('A' for Active; 'I' for Inactive)
REMARK    1  A    between atoms: C2_2  and  C3_3 
REMARK    2  A    between atoms: C4_4  and  N1_5 
REMARK       I    between atoms: N1_5  and  C5_6 
REMARK       I    between atoms: C5_6  and  N2_8 
REMARK    3  A    between atoms: N2_8  and  C6_9 
REMARK    4  A    between atoms: C12_15  and  O2_16 
REMARK    5  A    between atoms: O2_16  and  C13_17 
REMARK    6  A    between atoms: C18_25  and  O4_26 
ROOT
HETATM    1  C3  UNL     1      25.623   4.755  49.589  1.00  0.00    -0.007 A 
HETATM    2  C4  UNL     1      25.175   3.921  50.499  1.00  0.00     0.080 A 
HETATM    3  C12 UNL     1      26.366   3.131  50.257  1.00  0.00     0.106 A 
HETATM    4  C21 UNL     1      26.818   3.966  49.345  1.00  0.00     0.053 A 
ENDROOT
BRANCH   3   5
HETATM    5  O2  UNL     1      26.829   1.949  50.796  1.00  0.00    -0.289 OA
BRANCH   5   6
HETATM    6  C13 UNL     1      27.277   1.809  52.103  1.00  0.00     0.181 A 
HETATM    7  N3  UNL     1      28.368   2.413  52.588  1.00  0.00    -0.217 NA
HETATM    8  C14 UNL     1      28.802   2.276  53.862  1.00  0.00     0.236 A 
HETATM    9  N4  UNL     1      28.065   1.473  54.658  1.00  0.00    -0.241 NA
HETATM   10  C15 UNL     1      26.977   0.856  54.217  1.00  0.00     0.075 A 
HETATM   11  C16 UNL     1      26.525   0.994  52.905  1.00  0.00     0.048 A 
HETATM   12  C20 UNL     1      26.226   0.003  55.129  1.00  0.00     0.096 A 
HETATM   13  C17 UNL     1      25.311   0.309  52.408  1.00  0.00     0.223 A 
HETATM   14  O3  UNL     1      24.713  -0.466  53.400  1.00  0.00    -0.326 OA
HETATM   15  C18 UNL     1      25.137  -0.619  54.695  1.00  0.00     0.182 A 
BRANCH  15  16
HETATM   16  O4  UNL     1      24.406  -1.439  55.550  1.00  0.00    -0.336 OA
HETATM   17  C19 UNL     1      22.992  -1.511  55.470  1.00  0.00     0.212 C 
ENDBRANCH  15  16
ENDBRANCH   5   6
ENDBRANCH   3   5
BRANCH   2  18
HETATM   18  N1  UNL     1      24.054   3.815  51.343  1.00  0.00    -0.305 N 
HETATM   19  C5  UNL     1      23.069   2.816  51.259  1.00  0.00     0.325 C 
HETATM   20  O1  UNL     1      23.180   1.958  50.381  1.00  0.00    -0.247 OA
HETATM   21  N2  UNL     1      21.969   2.766  52.142  1.00  0.00    -0.309 N 
HETATM   22  H5  UNL     1      21.957   3.528  52.853  1.00  0.00     0.170 HD
HETATM   23  H4  UNL     1      23.937   4.529  52.092  1.00  0.00     0.171 HD
BRANCH  21  24
HETATM   24  C6  UNL     1      20.921   1.823  52.159  1.00  0.00     0.036 A 
HETATM   25  C7  UNL     1      19.793   1.777  51.383  1.00  0.00     0.029 A 
HETATM   26  C8  UNL     1      18.807   0.819  51.458  1.00  0.00     0.002 A 
HETATM   27  C9  UNL     1      18.930  -0.196  52.382  1.00  0.00     0.000 A 
HETATM   28  C10 UNL     1      20.045  -0.191  53.183  1.00  0.00     0.002 A 
HETATM   29  C11 UNL     1      21.001   0.790  53.067  1.00  0.00     0.029 A 
ENDBRANCH  21  24
ENDBRANCH   2  18
BRANCH   1  30
HETATM   30  C2  UNL     1      25.339   5.990  48.891  1.00  0.00    -0.013 C 
HETATM   31  C1  UNL     1      26.140   6.850  48.294  1.00  0.00     0.032 C 
ENDBRANCH   1  30
TORSDOF 6
ENDMDL
MODEL 2
REMARK VINA RESULT:      -8.7      1.701      5.799
REMARK  6 active torsions:
REMARK  status: ('A' for Active; 'I' for Inactive)
REMARK    1  A    between atoms: C2_2  and  C3_3 
REMARK    2  A    between atoms: C4_4  and  N1_5 
REMARK       I    between atoms: N1_5  and  C5_6 
REMARK       I    between atoms: C5_6  and  N2_8 
REMARK    3  A    between atoms: N2_8  and  C6_9 
REMARK    4  A    between atoms: C12_15  and  O2_16 
REMARK    5  A    between atoms: O2_16  and  C13_17 
REMARK    6  A    between atoms: C18_25  and  O4_26 
ROOT
HETATM    1  C3  UNL     1      25.072   5.077  49.470  1.00  0.00    -0.007 A 
HETATM    2  C4  UNL     1      24.795   4.139  50.348  1.00  0.00     0.080 A 
HETATM    3  C12 UNL     1      23.638   3.822  49.533  1.00  0.00     0.106 A 
HETATM    4  C21 UNL     1      23.913   4.760  48.652  1.00  0.00     0.053 A 
ENDROOT
BRANCH   3   5
HETATM    5  O2  UNL     1      22.638   2.880  49.659  1.00  0.00    -0.289 OA
BRANCH   5   6
HETATM    6  C13 UNL     1      21.633   2.930  50.616  1.00  0.00     0.181 A 
HETATM    7  N3  UNL     1      20.647   3.834  50.617  1.00  0.00    -0.217 NA
HETATM    8  C14 UNL     1      19.669   3.881  51.550  1.00  0.00     0.236 A 
HETATM    9  N4  UNL     1      19.727   2.945  52.522  1.00  0.00    -0.241 NA
HETATM   10  C15 UNL     1      20.689   2.033  52.557  1.00  0.00     0.075 A 
HETATM   11  C16 UNL     1      21.699   1.979  51.598  1.00  0.00     0.048 A 
HETATM   12  C20 UNL     1      20.695   1.050  53.634  1.00  0.00     0.096 A 
HETATM   13  C17 UNL     1      22.773   0.961  51.633  1.00  0.00     0.223 A 
HETATM   14  O3  UNL     1      22.635   0.103  52.721  1.00  0.00    -0.326 OA
HETATM   15  C18 UNL     1      21.654   0.134  53.678  1.00  0.00     0.182 A 
BRANCH  15  16
HETATM   16  O4  UNL     1      21.678  -0.812  54.698  1.00  0.00    -0.336 OA
HETATM   17  C19 UNL     1      22.903  -1.276  55.243  1.00  0.00     0.212 C 
ENDBRANCH  15  16
ENDBRANCH   5   6
ENDBRANCH   3   5
BRANCH   2  18
HETATM   18  N1  UNL     1      25.349   3.644  51.542  1.00  0.00    -0.305 N 
HETATM   19  C5  UNL     1      26.260   2.577  51.631  1.00  0.00     0.325 C 
HETATM   20  O1  UNL     1      26.609   2.019  50.588  1.00  0.00    -0.247 OA
HETATM   21  N2  UNL     1      26.780   2.132  52.864  1.00  0.00    -0.309 N 
HETATM   22  H5  UNL     1      26.433   2.662  53.692  1.00  0.00     0.170 HD
HETATM   23  H4  UNL     1      25.068   4.098  52.436  1.00  0.00     0.171 HD
BRANCH  21  24
HETATM   24  C6  UNL     1      27.692   1.079  53.084  1.00  0.00     0.036 A 
HETATM   25  C7  UNL     1      29.010   1.146  53.450  1.00  0.00     0.029 A 
HETATM   26  C8  UNL     1      29.844   0.068  53.647  1.00  0.00     0.002 A 
HETATM   27  C9  UNL     1      29.346  -1.204  53.469  1.00  0.00     0.000 A 
HETATM   28  C10 UNL     1      28.028  -1.321  53.101  1.00  0.00     0.002 A 
HETATM   29  C11 UNL     1      27.238  -0.211  52.917  1.00  0.00     0.029 A 
ENDBRANCH  21  24
ENDBRANCH   2  18
BRANCH   1  30
HETATM   30  C2  UNL     1      26.007   6.129  49.136  1.00  0.00    -0.013 C 
HETATM   31  C1  UNL     1      27.181   6.084  48.537  1.00  0.00     0.032 C 
ENDBRANCH   1  30
TORSDOF 6
ENDMDL
MODEL 3
REMARK VINA RESULT:      -8.5      2.280      6.851
REMARK  6 active torsions:
REMARK  status: ('A' for Active; 'I' for Inactive)
REMARK    1  A    between atoms: C2_2  and  C3_3 
REMARK    2  A    between atoms: C4_4  and  N1_5 
REMARK       I    between atoms: N1_5  and  C5_6 
REMARK       I    between atoms: C5_6  and  N2_8 
REMARK    3  A    between atoms: N2_8  and  C6_9 
REMARK    4  A    between atoms: C12_15  and  O2_16 
REMARK    5  A    between atoms: O2_16  and  C13_17 
REMARK    6  A    between atoms: C18_25  and  O4_26 
ROOT
HETATM    1  C3  UNL     1      26.843  -0.294  53.030  1.00  0.00    -0.007 A 
HETATM    2  C4  UNL     1      26.220   0.532  52.219  1.00  0.00     0.080 A 
HETATM    3  C12 UNL     1      25.149   0.565  53.196  1.00  0.00     0.106 A 
HETATM    4  C21 UNL     1      25.770  -0.261  54.009  1.00  0.00     0.053 A 
ENDROOT
BRANCH   3   5
HETATM    5  O2  UNL     1      23.939   1.227  53.233  1.00  0.00    -0.289 OA
BRANCH   5   6
HETATM    6  C13 UNL     1      22.968   1.135  52.244  1.00  0.00     0.181 A 
HETATM    7  N3  UNL     1      23.148   1.535  50.980  1.00  0.00    -0.217 NA
HETATM    8  C14 UNL     1      22.201   1.445  50.019  1.00  0.00     0.236 A 
HETATM    9  N4  UNL     1      21.018   0.916  50.397  1.00  0.00    -0.241 NA
HETATM   10  C15 UNL     1      20.798   0.508  51.639  1.00  0.00     0.075 A 
HETATM   11  C16 UNL     1      21.771   0.598  52.634  1.00  0.00     0.048 A 
HETATM   12  C20 UNL     1      19.498  -0.054  51.982  1.00  0.00     0.096 A 
HETATM   13  C17 UNL     1      21.531   0.143  54.022  1.00  0.00     0.223 A 
HETATM   14  O3  UNL     1      20.243  -0.364  54.183  1.00  0.00    -0.326 OA
HETATM   15  C18 UNL     1      19.269  -0.464  53.223  1.00  0.00     0.182 A 
BRANCH  15  16
HETATM   16  O4  UNL     1      18.034  -1.002  53.571  1.00  0.00    -0.336 OA
HETATM   17  C19 UNL     1      17.817  -2.404  53.576  1.00  0.00     0.212 C 
ENDBRANCH  15  16
ENDBRANCH   5   6
ENDBRANCH   3   5
BRANCH   2  18
HETATM   18  N1  UNL     1      26.458   1.131  50.969  1.00  0.00    -0.305 N 
HETATM   19  C5  UNL     1      26.454   2.514  50.719  1.00  0.00     0.325 C 
HETATM   20  O1  UNL     1      26.223   3.277  51.660  1.00  0.00    -0.247 OA
HETATM   21  N2  UNL     1      26.704   3.050  49.438  1.00  0.00    -0.309 N 
HETATM   22  H5  UNL     1      26.891   2.333  48.705  1.00  0.00     0.170 HD
HETATM   23  H4  UNL     1      26.654   0.508  50.158  1.00  0.00     0.171 HD
BRANCH  21  24
HETATM   24  C6  UNL     1      26.726   4.408  49.062  1.00  0.00     0.036 A 
HETATM   25  C7  UNL     1      25.704   5.320  49.074  1.00  0.00     0.029 A 
HETATM   26  C8  UNL     1      25.801   6.639  48.690  1.00  0.00     0.002 A 
HETATM   27  C9  UNL     1      27.015   7.119  48.248  1.00  0.00     0.000 A 
HETATM   28  C10 UNL     1      28.069   6.240  48.218  1.00  0.00     0.002 A 
HETATM   29  C11 UNL     1      27.919   4.932  48.613  1.00  0.00     0.029 A 
ENDBRANCH  21  24
ENDBRANCH   2  18
BRANCH   1  30
HETATM   30  C2  UNL     1      28.048  -1.075  53.206  1.00  0.00    -0.013 C 
HETATM   31  C1  UNL     1      29.214  -0.758  53.732  1.00  0.00     0.032 C 
ENDBRANCH   1  30
TORSDOF 6
ENDMDL
MODEL 4
REMARK VINA RESULT:      -8.1      2.753      5.929
REMARK  6 active torsions:
REMARK  status: ('A' for Active; 'I' for Inactive)
REMARK    1  A    between atoms: C2_2  and  C3_3 
REMARK    2  A    between atoms: C4_4  and  N1_5 
REMARK       I    between atoms: N1_5  and  C5_6 
REMARK       I    between atoms: C5_6  and  N2_8 
REMARK    3  A    between atoms: N2_8  and  C6_9 
REMARK    4  A    between atoms: C12_15  and  O2_16 
REMARK    5  A    between atoms: O2_16  and  C13_17 
REMARK    6  A    between atoms: C18_25  and  O4_26 
ROOT
HETATM    1  C3  UNL     1      26.812   1.398  52.811  1.00  0.00    -0.007 A 
HETATM    2  C4  UNL     1      25.625   1.962  52.807  1.00  0.00     0.080 A 
HETATM    3  C12 UNL     1      25.091   0.663  52.445  1.00  0.00     0.106 A 
HETATM    4  C21 UNL     1      26.278   0.096  52.448  1.00  0.00     0.053 A 
ENDROOT
BRANCH   3   5
HETATM    5  O2  UNL     1      23.810   0.217  52.196  1.00  0.00    -0.289 OA
BRANCH   5   6
HETATM    6  C13 UNL     1      22.978  -0.346  53.155  1.00  0.00     0.181 A 
HETATM    7  N3  UNL     1      23.416  -0.894  54.295  1.00  0.00    -0.217 NA
HETATM    8  C14 UNL     1      22.604  -1.442  55.228  1.00  0.00     0.236 A 
HETATM    9  N4  UNL     1      21.282  -1.416  54.956  1.00  0.00    -0.241 NA
HETATM   10  C15 UNL     1      20.808  -0.883  53.838  1.00  0.00     0.075 A 
HETATM   11  C16 UNL     1      21.639  -0.317  52.873  1.00  0.00     0.048 A 
HETATM   12  C20 UNL     1      19.369  -0.888  53.604  1.00  0.00     0.096 A 
HETATM   13  C17 UNL     1      21.114   0.280  51.624  1.00  0.00     0.223 A 
HETATM   14  O3  UNL     1      19.725   0.193  51.555  1.00  0.00    -0.326 OA
HETATM   15  C18 UNL     1      18.885  -0.358  52.488  1.00  0.00     0.182 A 
BRANCH  15  16
HETATM   16  O4  UNL     1      17.515  -0.354  52.246  1.00  0.00    -0.336 OA
HETATM   17  C19 UNL     1      16.714  -1.489  52.535  1.00  0.00     0.212 C 
ENDBRANCH  15  16
ENDBRANCH   5   6
ENDBRANCH   3   5
BRANCH   2  18
HETATM   18  N1  UNL     1      25.085   3.239  53.044  1.00  0.00    -0.305 N 
HETATM   19  C5  UNL     1      24.421   4.028  52.089  1.00  0.00     0.325 C 
HETATM   20  O1  UNL     1      24.295   3.580  50.947  1.00  0.00    -0.247 OA
HETATM   21  N2  UNL     1      23.900   5.303  52.395  1.00  0.00    -0.309 N 
HETATM   22  H5  UNL     1      24.050   5.600  53.382  1.00  0.00     0.170 HD
HETATM   23  H4  UNL     1      25.181   3.640  54.000  1.00  0.00     0.171 HD
BRANCH  21  24
HETATM   24  C6  UNL     1      23.220   6.185  51.531  1.00  0.00     0.036 A 
HETATM   25  C7  UNL     1      21.895   6.197  51.184  1.00  0.00     0.029 A 
HETATM   26  C8  UNL     1      21.297   7.095  50.328  1.00  0.00     0.002 A 
HETATM   27  C9  UNL     1      22.067   8.080  49.749  1.00  0.00     0.000 A 
HETATM   28  C10 UNL     1      23.403   8.107  50.067  1.00  0.00     0.002 A 
HETATM   29  C11 UNL     1      23.950   7.187  50.929  1.00  0.00     0.029 A 
ENDBRANCH  21  24
ENDBRANCH   2  18
BRANCH   1  30
HETATM   30  C2  UNL     1      28.222   1.640  53.028  1.00  0.00    -0.013 C 
HETATM   31  C1  UNL     1      28.841   2.481  53.832  1.00  0.00     0.032 C 
ENDBRANCH   1  30
TORSDOF 6
ENDMDL
MODEL 5
REMARK VINA RESULT:      -8.1      3.491      7.999
REMARK  6 active torsions:
REMARK  status: ('A' for Active; 'I' for Inactive)
REMARK    1  A    between atoms: C2_2  and  C3_3 
REMARK    2  A    between atoms: C4_4  and  N1_5 
REMARK       I    between atoms: N1_5  and  C5_6 
REMARK       I    between atoms: C5_6  and  N2_8 
REMARK    3  A    between atoms: N2_8  and  C6_9 
REMARK    4  A    between atoms: C12_15  and  O2_16 
REMARK    5  A    between atoms: O2_16  and  C13_17 
REMARK    6  A    between atoms: C18_25  and  O4_26 
ROOT
HETATM    1  C3  UNL     1      23.127   3.039  49.263  1.00  0.00    -0.007 A 
HETATM    2  C4  UNL     1      23.922   3.308  50.274  1.00  0.00     0.080 A 
HETATM    3  C12 UNL     1      24.156   4.597  49.652  1.00  0.00     0.106 A 
HETATM    4  C21 UNL     1      23.359   4.331  48.639  1.00  0.00     0.053 A 
ENDROOT
BRANCH   3   5
HETATM    5  O2  UNL     1      24.930   5.681  50.011  1.00  0.00    -0.289 OA
BRANCH   5   6
HETATM    6  C13 UNL     1      26.154   5.992  49.435  1.00  0.00     0.181 A 
HETATM    7  N3  UNL     1      26.977   5.086  48.895  1.00  0.00    -0.217 NA
HETATM    8  C14 UNL     1      28.169   5.392  48.333  1.00  0.00     0.236 A 
HETATM    9  N4  UNL     1      28.513   6.697  48.339  1.00  0.00    -0.241 NA
HETATM   10  C15 UNL     1      27.726   7.626  48.866  1.00  0.00     0.075 A 
HETATM   11  C16 UNL     1      26.496   7.317  49.445  1.00  0.00     0.048 A 
HETATM   12  C20 UNL     1      28.157   9.019  48.840  1.00  0.00     0.096 A 
HETATM   13  C17 UNL     1      25.614   8.351  50.032  1.00  0.00     0.223 A 
HETATM   14  O3  UNL     1      26.171   9.624  49.928  1.00  0.00    -0.326 OA
HETATM   15  C18 UNL     1      27.376   9.954  49.365  1.00  0.00     0.182 A 
BRANCH  15  16
HETATM   16  O4  UNL     1      27.770  11.289  49.351  1.00  0.00    -0.336 OA
HETATM   17  C19 UNL     1      28.607  11.799  48.326  1.00  0.00     0.212 C 
ENDBRANCH  15  16
ENDBRANCH   5   6
ENDBRANCH   3   5
BRANCH   2  18
HETATM   18  N1  UNL     1      24.365   2.662  51.443  1.00  0.00    -0.305 N 
HETATM   19  C5  UNL     1      25.642   2.105  51.626  1.00  0.00     0.325 C 
HETATM   20  O1  UNL     1      26.451   2.178  50.697  1.00  0.00    -0.247 OA
HETATM   21  N2  UNL     1      26.023   1.471  52.828  1.00  0.00    -0.309 N 
HETATM   22  H5  UNL     1      25.279   1.457  53.558  1.00  0.00     0.170 HD
HETATM   23  H4  UNL     1      23.700   2.586  52.240  1.00  0.00     0.171 HD
BRANCH  21  24
HETATM   24  C6  UNL     1      27.265   0.877  53.132  1.00  0.00     0.036 A 
HETATM   25  C7  UNL     1      28.410   1.469  53.594  1.00  0.00     0.029 A 
HETATM   26  C8  UNL     1      29.593   0.820  53.871  1.00  0.00     0.002 A 
HETATM   27  C9  UNL     1      29.670  -0.542  53.676  1.00  0.00     0.000 A 
HETATM   28  C10 UNL     1      28.545  -1.178  53.212  1.00  0.00     0.002 A 
HETATM   29  C11 UNL     1      27.388  -0.483  52.952  1.00  0.00     0.029 A 
ENDBRANCH  21  24
ENDBRANCH   2  18
BRANCH   1  30
HETATM   30  C2  UNL     1      22.254   2.035  48.695  1.00  0.00    -0.013 C 
HETATM   31  C1  UNL     1      21.580   1.055  49.263  1.00  0.00     0.032 C 
ENDBRANCH   1  30
TORSDOF 6
ENDMDL
MODEL 6
REMARK VINA RESULT:      -8.1      2.721      6.682
REMARK  6 active torsions:
REMARK  status: ('A' for Active; 'I' for Inactive)
REMARK    1  A    between atoms: C2_2  and  C3_3 
REMARK    2  A    between atoms: C4_4  and  N1_5 
REMARK       I    between atoms: N1_5  and  C5_6 
REMARK       I    between atoms: C5_6  and  N2_8 
REMARK    3  A    between atoms: N2_8  and  C6_9 
REMARK    4  A    between atoms: C12_15  and  O2_16 
REMARK    5  A    between atoms: O2_16  and  C13_17 
REMARK    6  A    between atoms: C18_25  and  O4_26 
ROOT
HETATM    1  C3  UNL     1      23.291   4.262  51.938  1.00  0.00    -0.007 A 
HETATM    2  C4  UNL     1      23.620   3.093  52.441  1.00  0.00     0.080 A 
HETATM    3  C12 UNL     1      22.596   2.521  51.588  1.00  0.00     0.106 A 
HETATM    4  C21 UNL     1      22.265   3.690  51.082  1.00  0.00     0.053 A 
ENDROOT
BRANCH   3   5
HETATM    5  O2  UNL     1      22.155   1.228  51.397  1.00  0.00    -0.289 OA
BRANCH   5   6
HETATM    6  C13 UNL     1      21.776   0.372  52.423  1.00  0.00     0.181 A 
HETATM    7  N3  UNL     1      22.611  -0.079  53.366  1.00  0.00    -0.217 NA
HETATM    8  C14 UNL     1      22.240  -0.912  54.365  1.00  0.00     0.236 A 
HETATM    9  N4  UNL     1      20.944  -1.289  54.375  1.00  0.00    -0.241 NA
HETATM   10  C15 UNL     1      20.085  -0.867  53.457  1.00  0.00     0.075 A 
HETATM   11  C16 UNL     1      20.461  -0.007  52.426  1.00  0.00     0.048 A 
HETATM   12  C20 UNL     1      18.698  -1.312  53.525  1.00  0.00     0.096 A 
HETATM   13  C17 UNL     1      19.505   0.469  51.401  1.00  0.00     0.223 A 
HETATM   14  O3  UNL     1      18.228  -0.049  51.607  1.00  0.00    -0.326 OA
HETATM   15  C18 UNL     1      17.832  -0.895  52.611  1.00  0.00     0.182 A 
BRANCH  15  16
HETATM   16  O4  UNL     1      16.505  -1.310  52.657  1.00  0.00    -0.336 OA
HETATM   17  C19 UNL     1      15.442  -0.371  52.706  1.00  0.00     0.212 C 
ENDBRANCH  15  16
ENDBRANCH   5   6
ENDBRANCH   3   5
BRANCH   2  18
HETATM   18  N1  UNL     1      24.540   2.592  53.379  1.00  0.00    -0.305 N 
HETATM   19  C5  UNL     1      25.690   1.846  53.067  1.00  0.00     0.325 C 
HETATM   20  O1  UNL     1      25.924   1.601  51.881  1.00  0.00    -0.247 OA
HETATM   21  N2  UNL     1      26.575   1.375  54.059  1.00  0.00    -0.309 N 
HETATM   22  H5  UNL     1      26.302   1.630  55.032  1.00  0.00     0.170 HD
HETATM   23  H4  UNL     1      24.364   2.784  54.387  1.00  0.00     0.171 HD
BRANCH  21  24
HETATM   24  C6  UNL     1      27.753   0.621  53.875  1.00  0.00     0.036 A 
HETATM   25  C7  UNL     1      29.057   1.031  53.961  1.00  0.00     0.029 A 
HETATM   26  C8  UNL     1      30.162   0.232  53.767  1.00  0.00     0.002 A 
HETATM   27  C9  UNL     1      29.980  -1.098  53.457  1.00  0.00     0.000 A 
HETATM   28  C10 UNL     1      28.688  -1.553  53.360  1.00  0.00     0.002 A 
HETATM   29  C11 UNL     1      27.619  -0.714  53.564  1.00  0.00     0.029 A 
ENDBRANCH  21  24
ENDBRANCH   2  18
BRANCH   1  30
HETATM   30  C2  UNL     1      23.589   5.677  51.973  1.00  0.00    -0.013 C 
HETATM   31  C1  UNL     1      23.801   6.540  51.000  1.00  0.00     0.032 C 
ENDBRANCH   1  30
TORSDOF 6
ENDMDL
MODEL 7
REMARK VINA RESULT:      -8.0      2.499      5.595
REMARK  6 active torsions:
REMARK  status: ('A' for Active; 'I' for Inactive)
REMARK    1  A    between atoms: C2_2  and  C3_3 
REMARK    2  A    between atoms: C4_4  and  N1_5 
REMARK       I    between atoms: N1_5  and  C5_6 
REMARK       I    between atoms: C5_6  and  N2_8 
REMARK    3  A    between atoms: N2_8  and  C6_9 
REMARK    4  A    between atoms: C12_15  and  O2_16 
REMARK    5  A    between atoms: O2_16  and  C13_17 
REMARK    6  A    between atoms: C18_25  and  O4_26 
ROOT
HETATM    1  C3  UNL     1      23.281   6.968  50.758  1.00  0.00    -0.007 A 
HETATM    2  C4  UNL     1      23.037   5.826  51.361  1.00  0.00     0.080 A 
HETATM    3  C12 UNL     1      21.802   5.774  50.603  1.00  0.00     0.106 A 
HETATM    4  C21 UNL     1      22.044   6.917  49.997  1.00  0.00     0.053 A 
ENDROOT
BRANCH   3   5
HETATM    5  O2  UNL     1      20.774   4.856  50.555  1.00  0.00    -0.289 OA
BRANCH   5   6
HETATM    6  C13 UNL     1      20.910   3.555  50.090  1.00  0.00     0.181 A 
HETATM    7  N3  UNL     1      21.166   3.240  48.814  1.00  0.00    -0.217 NA
HETATM    8  C14 UNL     1      21.299   1.972  48.363  1.00  0.00     0.236 A 
HETATM    9  N4  UNL     1      21.156   0.995  49.284  1.00  0.00    -0.241 NA
HETATM   10  C15 UNL     1      20.901   1.264  50.557  1.00  0.00     0.075 A 
HETATM   11  C16 UNL     1      20.764   2.569  51.028  1.00  0.00     0.048 A 
HETATM   12  C20 UNL     1      20.758   0.162  51.500  1.00  0.00     0.096 A 
HETATM   13  C17 UNL     1      20.481   2.874  52.448  1.00  0.00     0.223 A 
HETATM   14  O3  UNL     1      20.372   1.715  53.213  1.00  0.00    -0.326 OA
HETATM   15  C18 UNL     1      20.502   0.422  52.776  1.00  0.00     0.182 A 
BRANCH  15  16
HETATM   16  O4  UNL     1      20.360  -0.616  53.692  1.00  0.00    -0.336 OA
HETATM   17  C19 UNL     1      21.489  -1.321  54.185  1.00  0.00     0.212 C 
ENDBRANCH  15  16
ENDBRANCH   5   6
ENDBRANCH   3   5
BRANCH   2  18
HETATM   18  N1  UNL     1      23.668   5.004  52.312  1.00  0.00    -0.305 N 
HETATM   19  C5  UNL     1      24.213   3.735  52.051  1.00  0.00     0.325 C 
HETATM   20  O1  UNL     1      24.140   3.293  50.902  1.00  0.00    -0.247 OA
HETATM   21  N2  UNL     1      24.836   2.961  53.054  1.00  0.00    -0.309 N 
HETATM   22  H5  UNL     1      24.855   3.413  53.992  1.00  0.00     0.170 HD
HETATM   23  H4  UNL     1      23.740   5.354  53.290  1.00  0.00     0.171 HD
BRANCH  21  24
HETATM   24  C6  UNL     1      25.416   1.683  52.919  1.00  0.00     0.036 A 
HETATM   25  C7  UNL     1      26.636   1.344  52.396  1.00  0.00     0.029 A 
HETATM   26  C8  UNL     1      27.138   0.066  52.296  1.00  0.00     0.002 A 
HETATM   27  C9  UNL     1      26.377  -0.989  52.750  1.00  0.00     0.000 A 
HETATM   28  C10 UNL     1      25.145  -0.697  53.282  1.00  0.00     0.002 A 
HETATM   29  C11 UNL     1      24.691   0.598  53.359  1.00  0.00     0.029 A 
ENDBRANCH  21  24
ENDBRANCH   2  18
BRANCH   1  30
HETATM   30  C2  UNL     1      24.232   8.052  50.644  1.00  0.00    -0.013 C 
HETATM   31  C1  UNL     1      24.998   8.428  49.640  1.00  0.00     0.032 C 
ENDBRANCH   1  30
TORSDOF 6
ENDMDL
MODEL 8
REMARK VINA RESULT:      -8.0      2.158      5.367
REMARK  6 active torsions:
REMARK  status: ('A' for Active; 'I' for Inactive)
REMARK    1  A    between atoms: C2_2  and  C3_3 
REMARK    2  A    between atoms: C4_4  and  N1_5 
REMARK       I    between atoms: N1_5  and  C5_6 
REMARK       I    between atoms: C5_6  and  N2_8 
REMARK    3  A    between atoms: N2_8  and  C6_9 
REMARK    4  A    between atoms: C12_15  and  O2_16 
REMARK    5  A    between atoms: O2_16  and  C13_17 
REMARK    6  A    between atoms: C18_25  and  O4_26 
ROOT
HETATM    1  C3  UNL     1      26.530   5.477  48.818  1.00  0.00    -0.007 A 
HETATM    2  C4  UNL     1      25.999   4.408  49.369  1.00  0.00     0.080 A 
HETATM    3  C12 UNL     1      24.717   5.075  49.252  1.00  0.00     0.106 A 
HETATM    4  C21 UNL     1      25.246   6.146  48.699  1.00  0.00     0.053 A 
ENDROOT
BRANCH   3   5
HETATM    5  O2  UNL     1      23.435   4.703  49.598  1.00  0.00    -0.289 OA
BRANCH   5   6
HETATM    6  C13 UNL     1      22.843   3.503  49.227  1.00  0.00     0.181 A 
HETATM    7  N3  UNL     1      22.821   3.036  47.973  1.00  0.00    -0.217 NA
HETATM    8  C14 UNL     1      22.244   1.867  47.614  1.00  0.00     0.236 A 
HETATM    9  N4  UNL     1      21.667   1.158  48.608  1.00  0.00    -0.241 NA
HETATM   10  C15 UNL     1      21.666   1.585  49.863  1.00  0.00     0.075 A 
HETATM   11  C16 UNL     1      22.259   2.790  50.239  1.00  0.00     0.048 A 
HETATM   12  C20 UNL     1      21.024   0.772  50.889  1.00  0.00     0.096 A 
HETATM   13  C17 UNL     1      22.262   3.270  51.639  1.00  0.00     0.223 A 
HETATM   14  O3  UNL     1      21.609   2.381  52.491  1.00  0.00    -0.326 OA
HETATM   15  C18 UNL     1      21.018   1.192  52.147  1.00  0.00     0.182 A 
BRANCH  15  16
HETATM   16  O4  UNL     1      20.409   0.431  53.141  1.00  0.00    -0.336 OA
HETATM   17  C19 UNL     1      21.059   0.181  54.377  1.00  0.00     0.212 C 
ENDBRANCH  15  16
ENDBRANCH   5   6
ENDBRANCH   3   5
BRANCH   2  18
HETATM   18  N1  UNL     1      26.444   3.167  49.859  1.00  0.00    -0.305 N 
HETATM   19  C5  UNL     1      26.130   2.635  51.121  1.00  0.00     0.325 C 
HETATM   20  O1  UNL     1      25.410   3.297  51.872  1.00  0.00    -0.247 OA
HETATM   21  N2  UNL     1      26.610   1.379  51.550  1.00  0.00    -0.309 N 
HETATM   22  H5  UNL     1      27.208   0.889  50.852  1.00  0.00     0.170 HD
HETATM   23  H4  UNL     1      27.056   2.591  49.245  1.00  0.00     0.171 HD
BRANCH  21  24
HETATM   24  C6  UNL     1      26.368   0.741  52.784  1.00  0.00     0.036 A 
HETATM   25  C7  UNL     1      27.152   0.719  53.907  1.00  0.00     0.029 A 
HETATM   26  C8  UNL     1      26.849   0.070  55.084  1.00  0.00     0.002 A 
HETATM   27  C9  UNL     1      25.665  -0.629  55.176  1.00  0.00     0.000 A 
HETATM   28  C10 UNL     1      24.847  -0.635  54.073  1.00  0.00     0.002 A 
HETATM   29  C11 UNL     1      25.196   0.030  52.923  1.00  0.00     0.029 A 
ENDBRANCH  21  24
ENDBRANCH   2  18
BRANCH   1  30
HETATM   30  C2  UNL     1      27.773   6.071  48.376  1.00  0.00    -0.013 C 
HETATM   31  C1  UNL     1      28.992   5.575  48.307  1.00  0.00     0.032 C 
ENDBRANCH   1  30
TORSDOF 6
ENDMDL
MODEL 9
REMARK VINA RESULT:      -7.9      1.862      6.772
REMARK  6 active torsions:
REMARK  status: ('A' for Active; 'I' for Inactive)
REMARK    1  A    between atoms: C2_2  and  C3_3 
REMARK    2  A    between atoms: C4_4  and  N1_5 
REMARK       I    between atoms: N1_5  and  C5_6 
REMARK       I    between atoms: C5_6  and  N2_8 
REMARK    3  A    between atoms: N2_8  and  C6_9 
REMARK    4  A    between atoms: C12_15  and  O2_16 
REMARK    5  A    between atoms: O2_16  and  C13_17 
REMARK    6  A    between atoms: C18_25  and  O4_26 
ROOT
HETATM    1  C3  UNL     1      27.093   0.203  53.937  1.00  0.00    -0.007 A 
HETATM    2  C4  UNL     1      26.461   0.293  52.789  1.00  0.00     0.080 A 
HETATM    3  C12 UNL     1      25.375  -0.438  53.413  1.00  0.00     0.106 A 
HETATM    4  C21 UNL     1      26.006  -0.529  54.565  1.00  0.00     0.053 A 
ENDROOT
BRANCH   3   5
HETATM    5  O2  UNL     1      24.148  -0.866  52.949  1.00  0.00    -0.289 OA
BRANCH   5   6
HETATM    6  C13 UNL     1      22.929  -0.403  53.425  1.00  0.00     0.181 A 
HETATM    7  N3  UNL     1      22.301  -0.911  54.492  1.00  0.00    -0.217 NA
HETATM    8  C14 UNL     1      21.113  -0.458  54.954  1.00  0.00     0.236 A 
HETATM    9  N4  UNL     1      20.560   0.567  54.270  1.00  0.00    -0.241 NA
HETATM   10  C15 UNL     1      21.149   1.098  53.207  1.00  0.00     0.075 A 
HETATM   11  C16 UNL     1      22.374   0.636  52.727  1.00  0.00     0.048 A 
HETATM   12  C20 UNL     1      20.498   2.203  52.514  1.00  0.00     0.096 A 
HETATM   13  C17 UNL     1      23.035   1.227  51.542  1.00  0.00     0.223 A 
HETATM   14  O3  UNL     1      22.285   2.267  50.998  1.00  0.00    -0.326 OA
HETATM   15  C18 UNL     1      21.080   2.740  51.449  1.00  0.00     0.182 A 
BRANCH  15  16
HETATM   16  O4  UNL     1      20.474   3.794  50.773  1.00  0.00    -0.336 OA
HETATM   17  C19 UNL     1      21.247   4.791  50.122  1.00  0.00     0.212 C 
ENDBRANCH  15  16
ENDBRANCH   5   6
ENDBRANCH   3   5
BRANCH   2  18
HETATM   18  N1  UNL     1      26.700   0.842  51.516  1.00  0.00    -0.305 N 
HETATM   19  C5  UNL     1      26.463   2.179  51.153  1.00  0.00     0.325 C 
HETATM   20  O1  UNL     1      26.008   2.944  52.006  1.00  0.00    -0.247 OA
HETATM   21  N2  UNL     1      26.729   2.666  49.856  1.00  0.00    -0.309 N 
HETATM   22  H5  UNL     1      27.113   1.953  49.201  1.00  0.00     0.170 HD
HETATM   23  H4  UNL     1      27.083   0.216  50.778  1.00  0.00     0.171 HD
BRANCH  21  24
HETATM   24  C6  UNL     1      26.534   3.976  49.372  1.00  0.00     0.036 A 
HETATM   25  C7  UNL     1      27.465   4.867  48.905  1.00  0.00     0.029 A 
HETATM   26  C8  UNL     1      27.199   6.137  48.446  1.00  0.00     0.002 A 
HETATM   27  C9  UNL     1      25.897   6.588  48.441  1.00  0.00     0.000 A 
HETATM   28  C10 UNL     1      24.929   5.729  48.901  1.00  0.00     0.002 A 
HETATM   29  C11 UNL     1      25.248   4.469  49.349  1.00  0.00     0.029 A 
ENDBRANCH  21  24
ENDBRANCH   2  18
BRANCH   1  30
HETATM   30  C2  UNL     1      28.313   0.550  54.632  1.00  0.00    -0.013 C 
HETATM   31  C1  UNL     1      29.432   1.094  54.195  1.00  0.00     0.032 C 
ENDBRANCH   1  30
TORSDOF 6
ENDMDL
