MODEL 1
REMARK VINA RESULT:      -9.8      0.000      0.000
REMARK  3 active torsions:
REMARK  status: ('A' for Active; 'I' for Inactive)
REMARK    1  A    between atoms: N2_5  and  C4_6 
REMARK    2  A    between atoms: C11_14  and  C12_15 
REMARK    3  A    between atoms: C12_15  and  C13_16 
ROOT
HETATM    1  C1  UNL     1      21.862   3.060  48.171  1.00  0.00     0.089 C 
HETATM    2  C2  UNL     1      22.155   3.019  49.626  1.00  0.00     0.087 C 
HETATM    3  N1  UNL     1      21.538   4.057  50.057  1.00  0.00    -0.259 NA
HETATM    4  C3  UNL     1      21.547   4.419  51.428  1.00  0.00     0.275 C 
HETATM    5  N2  UNL     1      22.801   4.906  51.936  1.00  0.00    -0.361 N 
HETATM    6  C9  UNL     1      23.605   4.514  53.076  1.00  0.00     0.152 C 
HETATM    7  C10 UNL     1      24.192   3.185  53.004  1.00  0.00     0.002 C 
HETATM    8  C11 UNL     1      24.374   2.038  52.377  1.00  0.00    -0.039 C 
HETATM    9  C23 UNL     1      23.654   1.907  51.121  1.00  0.00     0.293 C 
HETATM   10  N3  UNL     1      22.970   1.921  50.039  1.00  0.00    -0.376 NA
ENDROOT
BRANCH   8  11
HETATM   11  C12 UNL     1      25.133   0.815  52.681  1.00  0.00     0.079 C 
BRANCH  11  12
HETATM   12  C13 UNL     1      26.538   1.043  53.039  1.00  0.00    -0.043 A 
HETATM   13  C14 UNL     1      27.188   2.191  53.358  1.00  0.00     0.008 A 
HETATM   14  C15 UNL     1      28.522   2.271  53.679  1.00  0.00     0.001 A 
HETATM   15  C16 UNL     1      29.268   1.094  53.678  1.00  0.00     0.012 A 
HETATM   16  C17 UNL     1      28.640  -0.091  53.358  1.00  0.00    -0.025 A 
HETATM   17  C18 UNL     1      29.465  -1.193  53.387  1.00  0.00     0.012 A 
HETATM   18  C22 UNL     1      27.277  -0.140  53.036  1.00  0.00    -0.019 A 
HETATM   19  C19 UNL     1      28.922  -2.425  53.080  1.00  0.00     0.001 A 
HETATM   20  C20 UNL     1      27.583  -2.512  52.758  1.00  0.00     0.001 A 
HETATM   21  C21 UNL     1      26.766  -1.401  52.733  1.00  0.00     0.013 A 
ENDBRANCH  11  12
ENDBRANCH   8  11
BRANCH   5  22
HETATM   22  C4  UNL     1      23.301   6.015  51.151  1.00  0.00     0.027 A 
HETATM   23  C5  UNL     1      22.537   7.031  50.716  1.00  0.00     0.026 A 
HETATM   24  C6  UNL     1      23.275   8.024  49.947  1.00  0.00    -0.001 A 
HETATM   25  C7  UNL     1      24.514   7.562  49.937  1.00  0.00    -0.005 A 
HETATM   26  C8  UNL     1      24.681   6.282  50.670  1.00  0.00     0.130 A 
HETATM   27 BR1  UNL     1      25.356   4.890  49.521  1.00  0.00    -0.080 Br
ENDBRANCH   5  22
TORSDOF 3
ENDMDL
MODEL 2
REMARK VINA RESULT:      -9.6      1.724      2.729
REMARK  3 active torsions:
REMARK  status: ('A' for Active; 'I' for Inactive)
REMARK    1  A    between atoms: N2_5  and  C4_6 
REMARK    2  A    between atoms: C11_14  and  C12_15 
REMARK    3  A    between atoms: C12_15  and  C13_16 
ROOT
HETATM    1  C1  UNL     1      19.784   3.592  51.522  1.00  0.00     0.089 C 
HETATM    2  C2  UNL     1      21.267   3.650  51.503  1.00  0.00     0.087 C 
HETATM    3  N1  UNL     1      21.489   4.685  50.779  1.00  0.00    -0.259 NA
HETATM    4  C3  UNL     1      22.804   5.127  50.487  1.00  0.00     0.275 C 
HETATM    5  N2  UNL     1      23.557   4.292  49.591  1.00  0.00    -0.361 N 
HETATM    6  C9  UNL     1      24.870   3.688  49.699  1.00  0.00     0.152 C 
HETATM    7  C10 UNL     1      25.006   2.656  50.715  1.00  0.00     0.002 C 
HETATM    8  C11 UNL     1      24.500   1.928  51.693  1.00  0.00    -0.039 C 
HETATM    9  C23 UNL     1      23.122   2.238  52.036  1.00  0.00     0.293 C 
HETATM   10  N3  UNL     1      21.914   2.609  52.238  1.00  0.00    -0.376 NA
ENDROOT
BRANCH   8  11
HETATM   11  C12 UNL     1      25.036   0.867  52.560  1.00  0.00     0.079 C 
BRANCH  11  12
HETATM   12  C13 UNL     1      26.427   1.067  52.980  1.00  0.00    -0.043 A 
HETATM   13  C14 UNL     1      27.075   2.196  53.364  1.00  0.00     0.008 A 
HETATM   14  C15 UNL     1      28.397   2.249  53.738  1.00  0.00     0.001 A 
HETATM   15  C16 UNL     1      29.131   1.065  53.724  1.00  0.00     0.012 A 
HETATM   16  C17 UNL     1      28.504  -0.101  53.339  1.00  0.00    -0.025 A 
HETATM   17  C18 UNL     1      29.317  -1.213  53.361  1.00  0.00     0.012 A 
HETATM   18  C22 UNL     1      27.155  -0.123  52.963  1.00  0.00    -0.019 A 
HETATM   19  C19 UNL     1      28.774  -2.427  52.991  1.00  0.00     0.001 A 
HETATM   20  C20 UNL     1      27.448  -2.487  52.614  1.00  0.00     0.001 A 
HETATM   21  C21 UNL     1      26.644  -1.368  52.596  1.00  0.00     0.013 A 
ENDBRANCH  11  12
ENDBRANCH   8  11
BRANCH   5  22
HETATM   22  C4  UNL     1      22.848   4.064  48.349  1.00  0.00     0.027 A 
HETATM   23  C5  UNL     1      22.213   5.027  47.661  1.00  0.00     0.026 A 
HETATM   24  C6  UNL     1      21.575   4.545  46.443  1.00  0.00    -0.001 A 
HETATM   25  C7  UNL     1      21.853   3.253  46.428  1.00  0.00    -0.005 A 
HETATM   26  C8  UNL     1      22.663   2.802  47.588  1.00  0.00     0.130 A 
HETATM   27 BR1  UNL     1      21.751   1.442  48.604  1.00  0.00    -0.080 Br
ENDBRANCH   5  22
TORSDOF 3
ENDMDL
MODEL 3
REMARK VINA RESULT:      -9.1      1.884      2.989
REMARK  3 active torsions:
REMARK  status: ('A' for Active; 'I' for Inactive)
REMARK    1  A    between atoms: N2_5  and  C4_6 
REMARK    2  A    between atoms: C11_14  and  C12_15 
REMARK    3  A    between atoms: C12_15  and  C13_16 
ROOT
HETATM    1  C1  UNL     1      21.805   5.388  47.193  1.00  0.00     0.089 C 
HETATM    2  C2  UNL     1      21.875   4.996  48.622  1.00  0.00     0.087 C 
HETATM    3  N1  UNL     1      21.735   6.122  49.220  1.00  0.00    -0.259 NA
HETATM    4  C3  UNL     1      21.739   6.227  50.634  1.00  0.00     0.275 C 
HETATM    5  N2  UNL     1      23.009   6.003  51.271  1.00  0.00    -0.361 N 
HETATM    6  C9  UNL     1      23.414   5.119  52.345  1.00  0.00     0.152 C 
HETATM    7  C10 UNL     1      23.357   3.697  52.043  1.00  0.00     0.002 C 
HETATM    8  C11 UNL     1      23.085   2.704  51.218  1.00  0.00    -0.039 C 
HETATM    9  C23 UNL     1      22.537   3.109  49.934  1.00  0.00     0.293 C 
HETATM   10  N3  UNL     1      22.064   3.599  48.850  1.00  0.00    -0.376 NA
ENDROOT
BRANCH   8  11
HETATM   11  C12 UNL     1      23.182   1.239  51.313  1.00  0.00     0.079 C 
BRANCH  11  12
HETATM   12  C13 UNL     1      24.285   0.754  52.149  1.00  0.00    -0.043 A 
HETATM   13  C14 UNL     1      25.627   0.894  52.001  1.00  0.00     0.008 A 
HETATM   14  C15 UNL     1      26.567   0.386  52.867  1.00  0.00     0.001 A 
HETATM   15  C16 UNL     1      26.118  -0.325  53.978  1.00  0.00     0.012 A 
HETATM   16  C17 UNL     1      24.760  -0.486  54.160  1.00  0.00    -0.025 A 
HETATM   17  C18 UNL     1      24.423  -1.202  55.287  1.00  0.00     0.012 A 
HETATM   18  C22 UNL     1      23.827   0.044  53.260  1.00  0.00    -0.019 A 
HETATM   19  C19 UNL     1      23.085  -1.414  55.551  1.00  0.00     0.001 A 
HETATM   20  C20 UNL     1      22.137  -0.907  54.686  1.00  0.00     0.001 A 
HETATM   21  C21 UNL     1      22.486  -0.190  53.561  1.00  0.00     0.013 A 
ENDBRANCH  11  12
ENDBRANCH   8  11
BRANCH   5  22
HETATM   22  C4  UNL     1      24.039   6.866  50.729  1.00  0.00     0.027 A 
HETATM   23  C5  UNL     1      23.838   8.150  50.390  1.00  0.00     0.026 A 
HETATM   24  C6  UNL     1      25.030   8.805  49.869  1.00  0.00    -0.001 A 
HETATM   25  C7  UNL     1      25.955   7.862  49.909  1.00  0.00    -0.005 A 
HETATM   26  C8  UNL     1      25.464   6.565  50.438  1.00  0.00     0.130 A 
HETATM   27 BR1  UNL     1      25.681   5.145  49.153  1.00  0.00    -0.080 Br
ENDBRANCH   5  22
TORSDOF 3
ENDMDL
MODEL 4
REMARK VINA RESULT:      -9.1      2.755      4.505
REMARK  3 active torsions:
REMARK  status: ('A' for Active; 'I' for Inactive)
REMARK    1  A    between atoms: N2_5  and  C4_6 
REMARK    2  A    between atoms: C11_14  and  C12_15 
REMARK    3  A    between atoms: C12_15  and  C13_16 
ROOT
HETATM    1  C1  UNL     1      22.314   4.984  46.669  1.00  0.00     0.089 C 
HETATM    2  C2  UNL     1      22.357   5.266  48.125  1.00  0.00     0.087 C 
HETATM    3  N1  UNL     1      22.905   6.425  48.162  1.00  0.00    -0.259 NA
HETATM    4  C3  UNL     1      23.150   7.101  49.384  1.00  0.00     0.275 C 
HETATM    5  N2  UNL     1      24.187   6.542  50.208  1.00  0.00    -0.361 N 
HETATM    6  C9  UNL     1      24.209   6.134  51.598  1.00  0.00     0.152 C 
HETATM    7  C10 UNL     1      23.379   4.986  51.929  1.00  0.00     0.002 C 
HETATM    8  C11 UNL     1      22.523   4.044  51.580  1.00  0.00    -0.039 C 
HETATM    9  C23 UNL     1      22.103   4.084  50.189  1.00  0.00     0.293 C 
HETATM   10  N3  UNL     1      21.817   4.232  48.950  1.00  0.00    -0.376 NA
ENDROOT
BRANCH   8  11
HETATM   11  C12 UNL     1      21.854   2.952  52.303  1.00  0.00     0.079 C 
BRANCH  11  12
HETATM   12  C13 UNL     1      22.734   1.840  52.680  1.00  0.00    -0.043 A 
HETATM   13  C14 UNL     1      24.085   1.726  52.608  1.00  0.00     0.008 A 
HETATM   14  C15 UNL     1      24.798   0.617  52.999  1.00  0.00     0.001 A 
HETATM   15  C16 UNL     1      24.092  -0.472  53.505  1.00  0.00     0.012 A 
HETATM   16  C17 UNL     1      22.718  -0.390  53.592  1.00  0.00    -0.025 A 
HETATM   17  C18 UNL     1      22.117  -1.518  54.105  1.00  0.00     0.012 A 
HETATM   18  C22 UNL     1      22.019   0.754  53.186  1.00  0.00    -0.019 A 
HETATM   19  C19 UNL     1      20.742  -1.528  54.230  1.00  0.00     0.001 A 
HETATM   20  C20 UNL     1      20.021  -0.418  53.840  1.00  0.00     0.001 A 
HETATM   21  C21 UNL     1      20.633   0.706  53.327  1.00  0.00     0.013 A 
ENDBRANCH  11  12
ENDBRANCH   8  11
BRANCH   5  22
HETATM   22  C4  UNL     1      25.434   6.410  49.482  1.00  0.00     0.027 A 
HETATM   23  C5  UNL     1      26.079   5.245  49.307  1.00  0.00     0.026 A 
HETATM   24  C6  UNL     1      27.312   5.374  48.542  1.00  0.00    -0.001 A 
HETATM   25  C7  UNL     1      27.381   6.665  48.265  1.00  0.00    -0.005 A 
HETATM   26  C8  UNL     1      26.245   7.454  48.805  1.00  0.00     0.130 A 
HETATM   27 BR1  UNL     1      26.846   8.834  50.008  1.00  0.00    -0.080 Br
ENDBRANCH   5  22
TORSDOF 3
ENDMDL
MODEL 5
REMARK VINA RESULT:      -9.1      2.521      3.925
REMARK  3 active torsions:
REMARK  status: ('A' for Active; 'I' for Inactive)
REMARK    1  A    between atoms: N2_5  and  C4_6 
REMARK    2  A    between atoms: C11_14  and  C12_15 
REMARK    3  A    between atoms: C12_15  and  C13_16 
ROOT
HETATM    1  C1  UNL     1      22.152   5.138  46.870  1.00  0.00     0.089 C 
HETATM    2  C2  UNL     1      22.023   4.761  48.300  1.00  0.00     0.087 C 
HETATM    3  N1  UNL     1      21.753   5.886  48.854  1.00  0.00    -0.259 NA
HETATM    4  C3  UNL     1      21.542   6.002  50.251  1.00  0.00     0.275 C 
HETATM    5  N2  UNL     1      22.710   5.835  51.073  1.00  0.00    -0.361 N 
HETATM    6  C9  UNL     1      22.985   4.977  52.208  1.00  0.00     0.152 C 
HETATM    7  C10 UNL     1      23.028   3.552  51.922  1.00  0.00     0.002 C 
HETATM    8  C11 UNL     1      22.920   2.541  51.079  1.00  0.00    -0.039 C 
HETATM    9  C23 UNL     1      22.554   2.913  49.723  1.00  0.00     0.293 C 
HETATM   10  N3  UNL     1      22.230   3.374  48.573  1.00  0.00    -0.376 NA
ENDROOT
BRANCH   8  11
HETATM   11  C12 UNL     1      23.058   1.083  51.209  1.00  0.00     0.079 C 
BRANCH  11  12
HETATM   12  C13 UNL     1      22.231   0.482  52.261  1.00  0.00    -0.043 A 
HETATM   13  C14 UNL     1      20.882   0.404  52.380  1.00  0.00     0.008 A 
HETATM   14  C15 UNL     1      20.222  -0.193  53.428  1.00  0.00     0.001 A 
HETATM   15  C16 UNL     1      20.986  -0.760  54.446  1.00  0.00     0.012 A 
HETATM   16  C17 UNL     1      22.361  -0.698  54.357  1.00  0.00    -0.025 A 
HETATM   17  C18 UNL     1      23.021  -1.288  55.412  1.00  0.00     0.012 A 
HETATM   18  C22 UNL     1      23.004  -0.083  53.276  1.00  0.00    -0.019 A 
HETATM   19  C19 UNL     1      24.401  -1.276  55.410  1.00  0.00     0.001 A 
HETATM   20  C20 UNL     1      25.069  -0.678  54.360  1.00  0.00     0.001 A 
HETATM   21  C21 UNL     1      24.398  -0.091  53.309  1.00  0.00     0.013 A 
ENDBRANCH  11  12
ENDBRANCH   8  11
BRANCH   5  22
HETATM   22  C4  UNL     1      23.776   6.734  50.678  1.00  0.00     0.027 A 
HETATM   23  C5  UNL     1      23.586   8.024  50.355  1.00  0.00     0.026 A 
HETATM   24  C6  UNL     1      24.815   8.718  49.993  1.00  0.00    -0.001 A 
HETATM   25  C7  UNL     1      25.750   7.791  50.112  1.00  0.00    -0.005 A 
HETATM   26  C8  UNL     1      25.231   6.469  50.543  1.00  0.00     0.130 A 
HETATM   27 BR1  UNL     1      25.625   5.095  49.251  1.00  0.00    -0.080 Br
ENDBRANCH   5  22
TORSDOF 3
ENDMDL
MODEL 6
REMARK VINA RESULT:      -8.9      3.728      6.858
REMARK  3 active torsions:
REMARK  status: ('A' for Active; 'I' for Inactive)
REMARK    1  A    between atoms: N2_5  and  C4_6 
REMARK    2  A    between atoms: C11_14  and  C12_15 
REMARK    3  A    between atoms: C12_15  and  C13_16 
ROOT
HETATM    1  C1  UNL     1      25.939  -0.129  52.756  1.00  0.00     0.089 C 
HETATM    2  C2  UNL     1      25.751   1.284  52.346  1.00  0.00     0.087 C 
HETATM    3  N1  UNL     1      24.726   1.633  53.033  1.00  0.00    -0.259 NA
HETATM    4  C3  UNL     1      24.179   2.939  52.955  1.00  0.00     0.275 C 
HETATM    5  N2  UNL     1      23.509   3.260  51.724  1.00  0.00    -0.361 N 
HETATM    6  C9  UNL     1      23.661   4.362  50.795  1.00  0.00     0.152 C 
HETATM    7  C10 UNL     1      24.925   4.408  50.076  1.00  0.00     0.002 C 
HETATM    8  C11 UNL     1      26.126   3.922  49.824  1.00  0.00    -0.039 C 
HETATM    9  C23 UNL     1      26.497   2.766  50.622  1.00  0.00     0.293 C 
HETATM   10  N3  UNL     1      26.698   1.759  51.388  1.00  0.00    -0.376 NA
ENDROOT
BRANCH   8  11
HETATM   11  C12 UNL     1      27.216   4.310  48.916  1.00  0.00     0.079 C 
BRANCH  11  12
HETATM   12  C13 UNL     1      27.195   5.719  48.505  1.00  0.00    -0.043 A 
HETATM   13  C14 UNL     1      26.166   6.602  48.449  1.00  0.00     0.008 A 
HETATM   14  C15 UNL     1      26.280   7.910  48.041  1.00  0.00     0.001 A 
HETATM   15  C16 UNL     1      27.537   8.370  47.656  1.00  0.00     0.012 A 
HETATM   16  C17 UNL     1      28.605   7.499  47.701  1.00  0.00    -0.025 A 
HETATM   17  C18 UNL     1      29.802   8.052  47.301  1.00  0.00     0.012 A 
HETATM   18  C22 UNL     1      28.458   6.171  48.122  1.00  0.00    -0.019 A 
HETATM   19  C19 UNL     1      30.928   7.254  47.314  1.00  0.00     0.001 A 
HETATM   20  C20 UNL     1      30.821   5.940  47.722  1.00  0.00     0.001 A 
HETATM   21  C21 UNL     1      29.618   5.397  48.120  1.00  0.00     0.013 A 
ENDBRANCH  11  12
ENDBRANCH   8  11
BRANCH   5  22
HETATM   22  C4  UNL     1      22.477   2.294  51.408  1.00  0.00     0.027 A 
HETATM   23  C5  UNL     1      22.576   1.387  50.423  1.00  0.00     0.026 A 
HETATM   24  C6  UNL     1      21.405   0.528  50.306  1.00  0.00    -0.001 A 
HETATM   25  C7  UNL     1      20.598   0.958  51.261  1.00  0.00    -0.005 A 
HETATM   26  C8  UNL     1      21.153   2.087  52.049  1.00  0.00     0.130 A 
HETATM   27 BR1  UNL     1      20.022   3.644  51.952  1.00  0.00    -0.080 Br
ENDBRANCH   5  22
TORSDOF 3
ENDMDL
MODEL 7
REMARK VINA RESULT:      -8.9      2.490      4.311
REMARK  3 active torsions:
REMARK  status: ('A' for Active; 'I' for Inactive)
REMARK    1  A    between atoms: N2_5  and  C4_6 
REMARK    2  A    between atoms: C11_14  and  C12_15 
REMARK    3  A    between atoms: C12_15  and  C13_16 
ROOT
HETATM    1  C1  UNL     1      21.165   7.505  50.832  1.00  0.00     0.089 C 
HETATM    2  C2  UNL     1      22.278   6.540  51.010  1.00  0.00     0.087 C 
HETATM    3  N1  UNL     1      23.309   7.301  50.953  1.00  0.00    -0.259 NA
HETATM    4  C3  UNL     1      24.626   6.791  51.078  1.00  0.00     0.275 C 
HETATM    5  N2  UNL     1      25.097   6.005  49.970  1.00  0.00    -0.361 N 
HETATM    6  C9  UNL     1      25.675   4.677  49.898  1.00  0.00     0.152 C 
HETATM    7  C10 UNL     1      24.781   3.584  50.246  1.00  0.00     0.002 C 
HETATM    8  C11 UNL     1      23.605   3.139  50.647  1.00  0.00    -0.039 C 
HETATM    9  C23 UNL     1      22.630   4.175  50.944  1.00  0.00     0.293 C 
HETATM   10  N3  UNL     1      21.870   5.181  51.172  1.00  0.00    -0.376 NA
ENDROOT
BRANCH   8  11
HETATM   11  C12 UNL     1      23.048   1.801  50.898  1.00  0.00     0.079 C 
BRANCH  11  12
HETATM   12  C13 UNL     1      23.728   1.047  51.958  1.00  0.00    -0.043 A 
HETATM   13  C14 UNL     1      25.046   0.963  52.268  1.00  0.00     0.008 A 
HETATM   14  C15 UNL     1      25.560   0.212  53.300  1.00  0.00     0.001 A 
HETATM   15  C16 UNL     1      24.671  -0.517  54.086  1.00  0.00     0.012 A 
HETATM   16  C17 UNL     1      23.324  -0.455  53.798  1.00  0.00    -0.025 A 
HETATM   17  C18 UNL     1      22.532  -1.210  54.634  1.00  0.00     0.012 A 
HETATM   18  C22 UNL     1      22.830   0.320  52.740  1.00  0.00    -0.019 A 
HETATM   19  C19 UNL     1      21.168  -1.209  54.422  1.00  0.00     0.001 A 
HETATM   20  C20 UNL     1      20.646  -0.457  53.389  1.00  0.00     0.001 A 
HETATM   21  C21 UNL     1      21.448   0.296  52.558  1.00  0.00     0.013 A 
ENDBRANCH  11  12
ENDBRANCH   8  11
BRANCH   5  22
HETATM   22  C4  UNL     1      24.986   6.724  48.718  1.00  0.00     0.027 A 
HETATM   23  C5  UNL     1      24.017   6.507  47.813  1.00  0.00     0.026 A 
HETATM   24  C6  UNL     1      24.122   7.357  46.635  1.00  0.00    -0.001 A 
HETATM   25  C7  UNL     1      25.194   8.094  46.870  1.00  0.00    -0.005 A 
HETATM   26  C8  UNL     1      25.852   7.798  48.168  1.00  0.00     0.130 A 
HETATM   27 BR1  UNL     1      27.679   7.235  47.926  1.00  0.00    -0.080 Br
ENDBRANCH   5  22
TORSDOF 3
ENDMDL
MODEL 8
REMARK VINA RESULT:      -8.8      2.870      4.341
REMARK  3 active torsions:
REMARK  status: ('A' for Active; 'I' for Inactive)
REMARK    1  A    between atoms: N2_5  and  C4_6 
REMARK    2  A    between atoms: C11_14  and  C12_15 
REMARK    3  A    between atoms: C12_15  and  C13_16 
ROOT
HETATM    1  C1  UNL     1      22.570   3.938  48.051  1.00  0.00     0.089 C 
HETATM    2  C2  UNL     1      22.655   2.787  48.984  1.00  0.00     0.087 C 
HETATM    3  N1  UNL     1      21.660   2.066  48.616  1.00  0.00    -0.259 NA
HETATM    4  C3  UNL     1      21.350   0.836  49.249  1.00  0.00     0.275 C 
HETATM    5  N2  UNL     1      20.831   0.937  50.586  1.00  0.00    -0.361 N 
HETATM    6  C9  UNL     1      21.233   0.317  51.834  1.00  0.00     0.152 C 
HETATM    7  C10 UNL     1      22.532   0.722  52.347  1.00  0.00     0.002 C 
HETATM    8  C11 UNL     1      23.646   1.422  52.241  1.00  0.00    -0.039 C 
HETATM    9  C23 UNL     1      23.759   2.210  51.025  1.00  0.00     0.293 C 
HETATM   10  N3  UNL     1      23.733   2.854  49.918  1.00  0.00    -0.376 NA
ENDROOT
BRANCH   8  11
HETATM   11  C12 UNL     1      24.847   1.566  53.078  1.00  0.00     0.079 C 
BRANCH  11  12
HETATM   12  C13 UNL     1      25.781   0.437  53.005  1.00  0.00    -0.043 A 
HETATM   13  C14 UNL     1      25.560  -0.867  52.704  1.00  0.00     0.008 A 
HETATM   14  C15 UNL     1      26.534  -1.837  52.668  1.00  0.00     0.001 A 
HETATM   15  C16 UNL     1      27.844  -1.463  52.962  1.00  0.00     0.012 A 
HETATM   16  C17 UNL     1      28.104  -0.145  53.272  1.00  0.00    -0.025 A 
HETATM   17  C18 UNL     1      29.428   0.120  53.545  1.00  0.00     0.012 A 
HETATM   18  C22 UNL     1      27.090   0.821  53.300  1.00  0.00    -0.019 A 
HETATM   19  C19 UNL     1      29.783   1.415  53.866  1.00  0.00     0.001 A 
HETATM   20  C20 UNL     1      28.811   2.393  53.904  1.00  0.00     0.001 A 
HETATM   21  C21 UNL     1      27.488   2.116  53.628  1.00  0.00     0.013 A 
ENDBRANCH  11  12
ENDBRANCH   8  11
BRANCH   5  22
HETATM   22  C4  UNL     1      19.673   1.805  50.647  1.00  0.00     0.027 A 
HETATM   23  C5  UNL     1      19.600   2.905  51.414  1.00  0.00     0.026 A 
HETATM   24  C6  UNL     1      18.330   3.609  51.299  1.00  0.00    -0.001 A 
HETATM   25  C7  UNL     1      17.644   2.887  50.431  1.00  0.00    -0.005 A 
HETATM   26  C8  UNL     1      18.378   1.699  49.927  1.00  0.00     0.130 A 
HETATM   27 BR1  UNL     1      17.437   0.064  50.317  1.00  0.00    -0.080 Br
ENDBRANCH   5  22
TORSDOF 3
ENDMDL
MODEL 9
REMARK VINA RESULT:      -8.6      3.760      5.705
REMARK  3 active torsions:
REMARK  status: ('A' for Active; 'I' for Inactive)
REMARK    1  A    between atoms: N2_5  and  C4_6 
REMARK    2  A    between atoms: C11_14  and  C12_15 
REMARK    3  A    between atoms: C12_15  and  C13_16 
ROOT
HETATM    1  C1  UNL     1      22.394   5.814  46.418  1.00  0.00     0.089 C 
HETATM    2  C2  UNL     1      22.441   5.282  47.802  1.00  0.00     0.087 C 
HETATM    3  N1  UNL     1      23.030   6.228  48.437  1.00  0.00    -0.259 NA
HETATM    4  C3  UNL     1      23.294   6.148  49.828  1.00  0.00     0.275 C 
HETATM    5  N2  UNL     1      24.307   5.204  50.216  1.00  0.00    -0.361 N 
HETATM    6  C9  UNL     1      24.308   4.122  51.180  1.00  0.00     0.152 C 
HETATM    7  C10 UNL     1      23.436   3.001  50.867  1.00  0.00     0.002 C 
HETATM    8  C11 UNL     1      22.548   2.414  50.087  1.00  0.00    -0.039 C 
HETATM    9  C23 UNL     1      22.136   3.197  48.933  1.00  0.00     0.293 C 
HETATM   10  N3  UNL     1      21.861   3.987  47.964  1.00  0.00    -0.376 NA
ENDROOT
BRANCH   8  11
HETATM   11  C12 UNL     1      21.837   1.127  50.134  1.00  0.00     0.079 C 
BRANCH  11  12
HETATM   12  C13 UNL     1      21.697   0.557  51.478  1.00  0.00    -0.043 A 
HETATM   13  C14 UNL     1      22.624   0.360  52.450  1.00  0.00     0.008 A 
HETATM   14  C15 UNL     1      22.360  -0.190  53.682  1.00  0.00     0.001 A 
HETATM   15  C16 UNL     1      21.052  -0.578  53.960  1.00  0.00     0.012 A 
HETATM   16  C17 UNL     1      20.084  -0.393  52.995  1.00  0.00    -0.025 A 
HETATM   17  C18 UNL     1      18.826  -0.808  53.371  1.00  0.00     0.012 A 
HETATM   18  C22 UNL     1      20.384   0.172  51.749  1.00  0.00    -0.019 A 
HETATM   19  C19 UNL     1      17.792  -0.661  52.468  1.00  0.00     0.001 A 
HETATM   20  C20 UNL     1      18.049  -0.109  51.230  1.00  0.00     0.001 A 
HETATM   21  C21 UNL     1      19.313   0.303  50.865  1.00  0.00     0.013 A 
ENDBRANCH  11  12
ENDBRANCH   8  11
BRANCH   5  22
HETATM   22  C4  UNL     1      25.551   5.435  49.511  1.00  0.00     0.027 A 
HETATM   23  C5  UNL     1      26.483   4.489  49.308  1.00  0.00     0.026 A 
HETATM   24  C6  UNL     1      27.646   4.969  48.572  1.00  0.00    -0.001 A 
HETATM   25  C7  UNL     1      27.373   6.242  48.342  1.00  0.00    -0.005 A 
HETATM   26  C8  UNL     1      26.063   6.681  48.886  1.00  0.00     0.130 A 
HETATM   27 BR1  UNL     1      26.266   8.122  50.149  1.00  0.00    -0.080 Br
ENDBRANCH   5  22
TORSDOF 3
ENDMDL
