MODEL 1
REMARK VINA RESULT:      -8.3      0.000      0.000
REMARK  6 active torsions:
REMARK  status: ('A' for Active; 'I' for Inactive)
REMARK    1  A    between atoms: C7_7  and  C8_8 
REMARK    2  A    between atoms: C8_8  and  N1_9 
REMARK    3  A    between atoms: N1_9  and  C10_11 
REMARK    4  A    between atoms: C12_13  and  N2_14 
REMARK    5  A    between atoms: N2_14  and  C13_15 
REMARK    6  A    between atoms: C19_24  and  N4_25 
ROOT
HETATM    1  C10 UNL     1      23.526  -0.282  53.614  1.00  0.00     0.148 A 
HETATM    2  C11 UNL     1      23.232   0.882  52.937  1.00  0.00     0.102 A 
HETATM    3  C12 UNL     1      21.939   1.264  52.663  1.00  0.00     0.151 A 
HETATM    4  N3  UNL     1      20.939   0.464  53.078  1.00  0.00    -0.045 NA
HETATM    5  C19 UNL     1      21.177  -0.676  53.739  1.00  0.00     0.724 A 
HETATM    6  N5  UNL     1      22.440  -0.987  53.970  1.00  0.00    -0.045 NA
ENDROOT
BRANCH   1   7
HETATM    7  N1  UNL     1      24.862  -0.688  53.900  1.00  0.00    -0.365 N 
HETATM    8  C9  UNL     1      25.155  -1.012  55.281  1.00  0.00     0.151 C 
BRANCH   7   9
HETATM    9  C8  UNL     1      25.945  -0.799  52.932  1.00  0.00     0.163 C 
BRANCH   9  10
HETATM   10  C7  UNL     1      27.067   0.122  53.206  1.00  0.00    -0.034 A 
HETATM   11  C2  UNL     1      28.372  -0.298  53.395  1.00  0.00    -0.054 A 
HETATM   12  C1  UNL     1      28.694  -1.745  53.292  1.00  0.00     0.049 C 
HETATM   13  C3  UNL     1      29.438   0.563  53.674  1.00  0.00     0.007 A 
HETATM   14  C4  UNL     1      29.069   1.896  53.742  1.00  0.00     0.001 A 
HETATM   15  C5  UNL     1      27.801   2.398  53.567  1.00  0.00     0.001 A 
HETATM   16  C6  UNL     1      26.798   1.498  53.298  1.00  0.00     0.009 A 
ENDBRANCH   9  10
ENDBRANCH   7   9
ENDBRANCH   1   7
BRANCH   3  17
HETATM   17  N2  UNL     1      21.690   2.468  51.964  1.00  0.00    -0.338 N 
HETATM   18  H14 UNL     1      20.751   2.918  52.009  1.00  0.00     0.167 HD
BRANCH  17  19
HETATM   19  C13 UNL     1      22.752   3.045  51.199  1.00  0.00     0.072 A 
HETATM   20  C14 UNL     1      23.052   2.552  49.922  1.00  0.00     0.034 A 
HETATM   21  C15 UNL     1      24.099   3.207  49.313  1.00  0.00     0.026 A 
HETATM   22  C16 UNL     1      24.822   4.251  49.846  1.00  0.00     0.037 A 
HETATM   23 CL1  UNL     1      26.143   5.014  48.970  1.00  0.00    -0.084 Cl
HETATM   24  C17 UNL     1      24.494   4.708  51.104  1.00  0.00     0.068 A 
HETATM   25  C18 UNL     1      23.454   4.086  51.760  1.00  0.00     0.144 A 
HETATM   26  F1  UNL     1      23.152   4.551  52.994  1.00  0.00    -0.204 F 
ENDBRANCH  17  19
ENDBRANCH   3  17
BRANCH   5  27
HETATM   27  N4  UNL     1      20.150  -1.554  54.198  1.00  0.00    -0.231 N 
HETATM   28  H18 UNL     1      19.953  -2.122  53.361  1.00  0.00     0.174 HD
HETATM   29  H19 UNL     1      20.127  -1.152  55.183  1.00  0.00     0.174 HD
ENDBRANCH   5  27
TORSDOF 6
ENDMDL
MODEL 2
REMARK VINA RESULT:      -8.2      2.364      5.587
REMARK  6 active torsions:
REMARK  status: ('A' for Active; 'I' for Inactive)
REMARK    1  A    between atoms: C7_7  and  C8_8 
REMARK    2  A    between atoms: C8_8  and  N1_9 
REMARK    3  A    between atoms: N1_9  and  C10_11 
REMARK    4  A    between atoms: C12_13  and  N2_14 
REMARK    5  A    between atoms: N2_14  and  C13_15 
REMARK    6  A    between atoms: C19_24  and  N4_25 
ROOT
HETATM    1  C10 UNL     1      22.904   2.239  52.204  1.00  0.00     0.148 A 
HETATM    2  C11 UNL     1      23.711   1.443  52.987  1.00  0.00     0.102 A 
HETATM    3  C12 UNL     1      23.349   0.168  53.355  1.00  0.00     0.151 A 
HETATM    4  N3  UNL     1      22.163  -0.304  52.927  1.00  0.00    -0.045 NA
HETATM    5  C19 UNL     1      21.345   0.433  52.164  1.00  0.00     0.724 A 
HETATM    6  N5  UNL     1      21.750   1.650  51.846  1.00  0.00    -0.045 NA
ENDROOT
BRANCH   1   7
HETATM    7  N1  UNL     1      23.268   3.562  51.819  1.00  0.00    -0.365 N 
HETATM    8  C9  UNL     1      23.674   4.455  52.884  1.00  0.00     0.151 C 
BRANCH   7   9
HETATM    9  C8  UNL     1      23.261   4.086  50.459  1.00  0.00     0.163 C 
BRANCH   9  10
HETATM   10  C7  UNL     1      24.616   4.318  49.918  1.00  0.00    -0.034 A 
HETATM   11  C2  UNL     1      25.035   5.532  49.402  1.00  0.00    -0.054 A 
HETATM   12  C1  UNL     1      24.101   6.688  49.409  1.00  0.00     0.049 C 
HETATM   13  C3  UNL     1      26.308   5.759  48.871  1.00  0.00     0.007 A 
HETATM   14  C4  UNL     1      27.129   4.644  48.909  1.00  0.00     0.001 A 
HETATM   15  C5  UNL     1      26.795   3.405  49.403  1.00  0.00     0.001 A 
HETATM   16  C6  UNL     1      25.527   3.249  49.910  1.00  0.00     0.009 A 
ENDBRANCH   9  10
ENDBRANCH   7   9
ENDBRANCH   1   7
BRANCH   3  17
HETATM   17  N2  UNL     1      24.213  -0.608  54.162  1.00  0.00    -0.338 N 
HETATM   18  H14 UNL     1      23.826  -1.215  54.915  1.00  0.00     0.167 HD
BRANCH  17  19
HETATM   19  C13 UNL     1      25.620  -0.538  53.918  1.00  0.00     0.072 A 
HETATM   20  C14 UNL     1      26.166  -1.102  52.758  1.00  0.00     0.034 A 
HETATM   21  C15 UNL     1      27.532  -0.955  52.666  1.00  0.00     0.026 A 
HETATM   22  C16 UNL     1      28.343  -0.326  53.584  1.00  0.00     0.037 A 
HETATM   23 CL1  UNL     1      30.083  -0.197  53.358  1.00  0.00    -0.084 Cl
HETATM   24  C17 UNL     1      27.767   0.218  54.712  1.00  0.00     0.068 A 
HETATM   25  C18 UNL     1      26.402   0.098  54.855  1.00  0.00     0.144 A 
HETATM   26  F1  UNL     1      25.861   0.638  55.970  1.00  0.00    -0.204 F 
ENDBRANCH  17  19
ENDBRANCH   3  17
BRANCH   5  27
HETATM   27  N4  UNL     1      20.081  -0.025  51.687  1.00  0.00    -0.231 N 
HETATM   28  H18 UNL     1      20.178  -1.049  51.751  1.00  0.00     0.174 HD
HETATM   29  H19 UNL     1      19.696   0.951  51.513  1.00  0.00     0.174 HD
ENDBRANCH   5  27
TORSDOF 6
ENDMDL
MODEL 3
REMARK VINA RESULT:      -8.1      2.902      6.171
REMARK  6 active torsions:
REMARK  status: ('A' for Active; 'I' for Inactive)
REMARK    1  A    between atoms: C7_7  and  C8_8 
REMARK    2  A    between atoms: C8_8  and  N1_9 
REMARK    3  A    between atoms: N1_9  and  C10_11 
REMARK    4  A    between atoms: C12_13  and  N2_14 
REMARK    5  A    between atoms: N2_14  and  C13_15 
REMARK    6  A    between atoms: C19_24  and  N4_25 
ROOT
HETATM    1  C10 UNL     1      23.413   3.398  50.324  1.00  0.00     0.148 A 
HETATM    2  C11 UNL     1      23.897   2.894  51.511  1.00  0.00     0.102 A 
HETATM    3  C12 UNL     1      23.521   1.661  51.992  1.00  0.00     0.151 A 
HETATM    4  N3  UNL     1      22.649   0.935  51.267  1.00  0.00    -0.045 NA
HETATM    5  C19 UNL     1      22.153   1.384  50.107  1.00  0.00     0.724 A 
HETATM    6  N5  UNL     1      22.553   2.576  49.700  1.00  0.00    -0.045 NA
ENDROOT
BRANCH   1   7
HETATM    7  N1  UNL     1      23.795   4.675  49.817  1.00  0.00    -0.365 N 
HETATM    8  C9  UNL     1      23.201   5.073  48.558  1.00  0.00     0.151 C 
BRANCH   7   9
HETATM    9  C8  UNL     1      24.727   5.599  50.451  1.00  0.00     0.163 C 
BRANCH   9  10
HETATM   10  C7  UNL     1      25.956   5.817  49.663  1.00  0.00    -0.034 A 
HETATM   11  C2  UNL     1      26.392   7.067  49.256  1.00  0.00    -0.054 A 
HETATM   12  C1  UNL     1      25.615   8.272  49.648  1.00  0.00     0.049 C 
HETATM   13  C3  UNL     1      27.544   7.284  48.494  1.00  0.00     0.007 A 
HETATM   14  C4  UNL     1      28.224   6.120  48.178  1.00  0.00     0.001 A 
HETATM   15  C5  UNL     1      27.864   4.844  48.539  1.00  0.00     0.001 A 
HETATM   16  C6  UNL     1      26.720   4.700  49.287  1.00  0.00     0.009 A 
ENDBRANCH   9  10
ENDBRANCH   7   9
ENDBRANCH   1   7
BRANCH   3  17
HETATM   17  N2  UNL     1      24.045   1.189  53.218  1.00  0.00    -0.338 N 
HETATM   18  H14 UNL     1      23.478   1.247  54.090  1.00  0.00     0.167 HD
BRANCH  17  19
HETATM   19  C13 UNL     1      25.364   0.637  53.228  1.00  0.00     0.072 A 
HETATM   20  C14 UNL     1      25.589  -0.664  52.759  1.00  0.00     0.034 A 
HETATM   21  C15 UNL     1      26.908  -1.054  52.834  1.00  0.00     0.026 A 
HETATM   22  C16 UNL     1      27.952  -0.294  53.310  1.00  0.00     0.037 A 
HETATM   23 CL1  UNL     1      29.603  -0.901  53.356  1.00  0.00    -0.084 Cl
HETATM   24  C17 UNL     1      27.690   0.982  53.761  1.00  0.00     0.068 A 
HETATM   25  C18 UNL     1      26.385   1.423  53.710  1.00  0.00     0.144 A 
HETATM   26  F1  UNL     1      26.153   2.677  54.160  1.00  0.00    -0.204 F 
ENDBRANCH  17  19
ENDBRANCH   3  17
BRANCH   5  27
HETATM   27  N4  UNL     1      21.229   0.650  49.304  1.00  0.00    -0.231 N 
HETATM   28  H18 UNL     1      21.497  -0.327  49.497  1.00  0.00     0.174 HD
HETATM   29  H19 UNL     1      20.742   1.514  48.922  1.00  0.00     0.174 HD
ENDBRANCH   5  27
TORSDOF 6
ENDMDL
MODEL 4
REMARK VINA RESULT:      -8.0      1.559      2.393
REMARK  6 active torsions:
REMARK  status: ('A' for Active; 'I' for Inactive)
REMARK    1  A    between atoms: C7_7  and  C8_8 
REMARK    2  A    between atoms: C8_8  and  N1_9 
REMARK    3  A    between atoms: N1_9  and  C10_11 
REMARK    4  A    between atoms: C12_13  and  N2_14 
REMARK    5  A    between atoms: N2_14  and  C13_15 
REMARK    6  A    between atoms: C19_24  and  N4_25 
ROOT
HETATM    1  C10 UNL     1      23.715  -0.012  53.265  1.00  0.00     0.148 A 
HETATM    2  C11 UNL     1      23.224   0.817  52.280  1.00  0.00     0.102 A 
HETATM    3  C12 UNL     1      21.882   0.891  51.985  1.00  0.00     0.151 A 
HETATM    4  N3  UNL     1      21.033   0.121  52.691  1.00  0.00    -0.045 NA
HETATM    5  C19 UNL     1      21.464  -0.699  53.658  1.00  0.00     0.724 A 
HETATM    6  N5  UNL     1      22.764  -0.725  53.892  1.00  0.00    -0.045 NA
ENDROOT
BRANCH   1   7
HETATM    7  N1  UNL     1      25.103  -0.097  53.577  1.00  0.00    -0.365 N 
HETATM    8  C9  UNL     1      25.436  -0.511  54.924  1.00  0.00     0.151 C 
BRANCH   7   9
HETATM    9  C8  UNL     1      26.201   0.198  52.666  1.00  0.00     0.163 C 
BRANCH   9  10
HETATM   10  C7  UNL     1      27.420  -0.585  52.951  1.00  0.00    -0.034 A 
HETATM   11  C2  UNL     1      28.594  -0.026  53.427  1.00  0.00    -0.054 A 
HETATM   12  C1  UNL     1      28.646   1.433  53.703  1.00  0.00     0.049 C 
HETATM   13  C3  UNL     1      29.759  -0.755  53.683  1.00  0.00     0.007 A 
HETATM   14  C4  UNL     1      29.634  -2.108  53.416  1.00  0.00     0.001 A 
HETATM   15  C5  UNL     1      28.510  -2.744  52.945  1.00  0.00     0.001 A 
HETATM   16  C6  UNL     1      27.399  -1.969  52.713  1.00  0.00     0.009 A 
ENDBRANCH   9  10
ENDBRANCH   7   9
ENDBRANCH   1   7
BRANCH   3  17
HETATM   17  N2  UNL     1      21.429   1.758  50.963  1.00  0.00    -0.338 N 
HETATM   18  H14 UNL     1      20.780   1.409  50.227  1.00  0.00     0.167 HD
BRANCH  17  19
HETATM   19  C13 UNL     1      21.882   3.114  50.968  1.00  0.00     0.072 A 
HETATM   20  C14 UNL     1      21.409   4.014  51.931  1.00  0.00     0.034 A 
HETATM   21  C15 UNL     1      21.936   5.280  51.805  1.00  0.00     0.026 A 
HETATM   22  C16 UNL     1      22.842   5.690  50.852  1.00  0.00     0.037 A 
HETATM   23 CL1  UNL     1      23.447   7.341  50.790  1.00  0.00    -0.084 Cl
HETATM   24  C17 UNL     1      23.284   4.773  49.922  1.00  0.00     0.068 A 
HETATM   25  C18 UNL     1      22.787   3.491  50.002  1.00  0.00     0.144 A 
HETATM   26  F1  UNL     1      23.235   2.610  49.079  1.00  0.00    -0.204 F 
ENDBRANCH  17  19
ENDBRANCH   3  17
BRANCH   5  27
HETATM   27  N4  UNL     1      20.602  -1.532  54.432  1.00  0.00    -0.231 N 
HETATM   28  H18 UNL     1      21.094  -1.578  55.337  1.00  0.00     0.174 HD
HETATM   29  H19 UNL     1      19.891  -1.668  53.653  1.00  0.00     0.174 HD
ENDBRANCH   5  27
TORSDOF 6
ENDMDL
MODEL 5
REMARK VINA RESULT:      -7.9      2.788      6.250
REMARK  6 active torsions:
REMARK  status: ('A' for Active; 'I' for Inactive)
REMARK    1  A    between atoms: C7_7  and  C8_8 
REMARK    2  A    between atoms: C8_8  and  N1_9 
REMARK    3  A    between atoms: N1_9  and  C10_11 
REMARK    4  A    between atoms: C12_13  and  N2_14 
REMARK    5  A    between atoms: N2_14  and  C13_15 
REMARK    6  A    between atoms: C19_24  and  N4_25 
ROOT
HETATM    1  C10 UNL     1      23.287   3.387  51.408  1.00  0.00     0.148 A 
HETATM    2  C11 UNL     1      24.282   3.456  52.358  1.00  0.00     0.102 A 
HETATM    3  C12 UNL     1      24.541   2.420  53.226  1.00  0.00     0.151 A 
HETATM    4  N3  UNL     1      23.789   1.308  53.131  1.00  0.00    -0.045 NA
HETATM    5  C19 UNL     1      22.810   1.196  52.223  1.00  0.00     0.724 A 
HETATM    6  N5  UNL     1      22.611   2.226  51.419  1.00  0.00    -0.045 NA
ENDROOT
BRANCH   1   7
HETATM    7  N1  UNL     1      23.008   4.455  50.506  1.00  0.00    -0.365 N 
HETATM    8  C9  UNL     1      22.237   5.561  51.035  1.00  0.00     0.151 C 
BRANCH   7   9
HETATM    9  C8  UNL     1      23.427   4.524  49.112  1.00  0.00     0.163 C 
BRANCH   9  10
HETATM   10  C7  UNL     1      24.825   4.967  48.946  1.00  0.00    -0.034 A 
HETATM   11  C2  UNL     1      25.180   6.246  48.552  1.00  0.00    -0.054 A 
HETATM   12  C1  UNL     1      24.116   7.254  48.307  1.00  0.00     0.049 C 
HETATM   13  C3  UNL     1      26.499   6.672  48.373  1.00  0.00     0.007 A 
HETATM   14  C4  UNL     1      27.438   5.687  48.632  1.00  0.00     0.001 A 
HETATM   15  C5  UNL     1      27.174   4.396  49.027  1.00  0.00     0.001 A 
HETATM   16  C6  UNL     1      25.855   4.042  49.182  1.00  0.00     0.009 A 
ENDBRANCH   9  10
ENDBRANCH   7   9
ENDBRANCH   1   7
BRANCH   3  17
HETATM   17  N2  UNL     1      25.574   2.542  54.185  1.00  0.00    -0.338 N 
HETATM   18  H14 UNL     1      25.473   3.199  54.987  1.00  0.00     0.167 HD
BRANCH  17  19
HETATM   19  C13 UNL     1      26.751   1.745  54.025  1.00  0.00     0.072 A 
HETATM   20  C14 UNL     1      27.843   2.235  53.297  1.00  0.00     0.034 A 
HETATM   21  C15 UNL     1      28.899   1.354  53.231  1.00  0.00     0.026 A 
HETATM   22  C16 UNL     1      28.945   0.100  53.799  1.00  0.00     0.037 A 
HETATM   23 CL1  UNL     1      30.355  -0.941  53.648  1.00  0.00    -0.084 Cl
HETATM   24  C17 UNL     1      27.850  -0.345  54.509  1.00  0.00     0.068 A 
HETATM   25  C18 UNL     1      26.765   0.498  54.606  1.00  0.00     0.144 A 
HETATM   26  F1  UNL     1      25.703   0.038  55.305  1.00  0.00    -0.204 F 
ENDBRANCH  17  19
ENDBRANCH   3  17
BRANCH   5  27
HETATM   27  N4  UNL     1      21.989   0.037  52.084  1.00  0.00    -0.231 N 
HETATM   28  H18 UNL     1      22.260  -0.316  51.155  1.00  0.00     0.174 HD
HETATM   29  H19 UNL     1      21.520   0.151  53.032  1.00  0.00     0.174 HD
ENDBRANCH   5  27
TORSDOF 6
ENDMDL
MODEL 6
REMARK VINA RESULT:      -7.7      7.708      9.700
REMARK  6 active torsions:
REMARK  status: ('A' for Active; 'I' for Inactive)
REMARK    1  A    between atoms: C7_7  and  C8_8 
REMARK    2  A    between atoms: C8_8  and  N1_9 
REMARK    3  A    between atoms: N1_9  and  C10_11 
REMARK    4  A    between atoms: C12_13  and  N2_14 
REMARK    5  A    between atoms: N2_14  and  C13_15 
REMARK    6  A    between atoms: C19_24  and  N4_25 
ROOT
HETATM    1  C10 UNL     1      31.023   6.764  48.531  1.00  0.00     0.148 A 
HETATM    2  C11 UNL     1      29.771   6.356  48.127  1.00  0.00     0.102 A 
HETATM    3  C12 UNL     1      28.653   7.140  48.299  1.00  0.00     0.151 A 
HETATM    4  N3  UNL     1      28.805   8.343  48.884  1.00  0.00    -0.045 NA
HETATM    5  C19 UNL     1      30.003   8.781  49.293  1.00  0.00     0.724 A 
HETATM    6  N5  UNL     1      31.036   7.981  49.100  1.00  0.00    -0.045 NA
ENDROOT
BRANCH   1   7
HETATM    7  N1  UNL     1      32.187   5.959  48.360  1.00  0.00    -0.365 N 
HETATM    8  C9  UNL     1      33.442   6.541  48.788  1.00  0.00     0.151 C 
BRANCH   7   9
HETATM    9  C8  UNL     1      32.219   4.617  47.792  1.00  0.00     0.163 C 
BRANCH   9  10
HETATM   10  C7  UNL     1      33.080   4.512  46.597  1.00  0.00    -0.034 A 
HETATM   11  C2  UNL     1      34.304   3.866  46.591  1.00  0.00    -0.054 A 
HETATM   12  C1  UNL     1      34.786   3.209  47.834  1.00  0.00     0.049 C 
HETATM   13  C3  UNL     1      35.137   3.776  45.472  1.00  0.00     0.007 A 
HETATM   14  C4  UNL     1      34.619   4.399  44.348  1.00  0.00     0.001 A 
HETATM   15  C5  UNL     1      33.416   5.059  44.265  1.00  0.00     0.001 A 
HETATM   16  C6  UNL     1      32.647   5.112  45.403  1.00  0.00     0.009 A 
ENDBRANCH   9  10
ENDBRANCH   7   9
ENDBRANCH   1   7
BRANCH   3  17
HETATM   17  N2  UNL     1      27.389   6.675  47.867  1.00  0.00    -0.338 N 
HETATM   18  H14 UNL     1      27.121   6.735  46.862  1.00  0.00     0.167 HD
BRANCH  17  19
HETATM   19  C13 UNL     1      26.496   6.125  48.839  1.00  0.00     0.072 A 
HETATM   20  C14 UNL     1      25.541   6.939  49.462  1.00  0.00     0.034 A 
HETATM   21  C15 UNL     1      24.757   6.267  50.373  1.00  0.00     0.026 A 
HETATM   22  C16 UNL     1      24.847   4.930  50.690  1.00  0.00     0.037 A 
HETATM   23 CL1  UNL     1      23.786   4.178  51.875  1.00  0.00    -0.084 Cl
HETATM   24  C17 UNL     1      25.799   4.163  50.054  1.00  0.00     0.068 A 
HETATM   25  C18 UNL     1      26.612   4.786  49.132  1.00  0.00     0.144 A 
HETATM   26  F1  UNL     1      27.539   4.013  48.523  1.00  0.00    -0.204 F 
ENDBRANCH  17  19
ENDBRANCH   3  17
BRANCH   5  27
HETATM   27  N4  UNL     1      30.211  10.048  49.916  1.00  0.00    -0.231 N 
HETATM   28  H18 UNL     1      29.344  10.555  49.682  1.00  0.00     0.174 HD
HETATM   29  H19 UNL     1      31.170   9.797  50.302  1.00  0.00     0.174 HD
ENDBRANCH   5  27
TORSDOF 6
ENDMDL
MODEL 7
REMARK VINA RESULT:      -7.7      2.946      5.318
REMARK  6 active torsions:
REMARK  status: ('A' for Active; 'I' for Inactive)
REMARK    1  A    between atoms: C7_7  and  C8_8 
REMARK    2  A    between atoms: C8_8  and  N1_9 
REMARK    3  A    between atoms: N1_9  and  C10_11 
REMARK    4  A    between atoms: C12_13  and  N2_14 
REMARK    5  A    between atoms: N2_14  and  C13_15 
REMARK    6  A    between atoms: C19_24  and  N4_25 
ROOT
HETATM    1  C10 UNL     1      24.718   2.789  52.150  1.00  0.00     0.148 A 
HETATM    2  C11 UNL     1      25.096   3.158  50.878  1.00  0.00     0.102 A 
HETATM    3  C12 UNL     1      24.556   4.252  50.240  1.00  0.00     0.151 A 
HETATM    4  N3  UNL     1      23.628   4.975  50.895  1.00  0.00    -0.045 NA
HETATM    5  C19 UNL     1      23.230   4.654  52.133  1.00  0.00     0.724 A 
HETATM    6  N5  UNL     1      23.786   3.593  52.690  1.00  0.00    -0.045 NA
ENDROOT
BRANCH   1   7
HETATM    7  N1  UNL     1      25.270   1.658  52.819  1.00  0.00    -0.365 N 
HETATM    8  C9  UNL     1      26.241   1.933  53.858  1.00  0.00     0.151 C 
BRANCH   7   9
HETATM    9  C8  UNL     1      24.945   0.264  52.545  1.00  0.00     0.163 C 
BRANCH   9  10
HETATM   10  C7  UNL     1      23.770  -0.219  53.298  1.00  0.00    -0.034 A 
HETATM   11  C2  UNL     1      22.469  -0.101  52.841  1.00  0.00    -0.054 A 
HETATM   12  C1  UNL     1      22.216   0.511  51.511  1.00  0.00     0.049 C 
HETATM   13  C3  UNL     1      21.347  -0.537  53.553  1.00  0.00     0.007 A 
HETATM   14  C4  UNL     1      21.658  -1.109  54.776  1.00  0.00     0.001 A 
HETATM   15  C5  UNL     1      22.917  -1.266  55.304  1.00  0.00     0.001 A 
HETATM   16  C6  UNL     1      23.976  -0.814  54.553  1.00  0.00     0.009 A 
ENDBRANCH   9  10
ENDBRANCH   7   9
ENDBRANCH   1   7
BRANCH   3  17
HETATM   17  N2  UNL     1      24.977   4.587  48.932  1.00  0.00    -0.338 N 
HETATM   18  H14 UNL     1      24.541   4.128  48.105  1.00  0.00     0.167 HD
BRANCH  17  19
HETATM   19  C13 UNL     1      26.009   5.565  48.778  1.00  0.00     0.072 A 
HETATM   20  C14 UNL     1      25.697   6.931  48.789  1.00  0.00     0.034 A 
HETATM   21  C15 UNL     1      26.794   7.746  48.628  1.00  0.00     0.026 A 
HETATM   22  C16 UNL     1      28.097   7.330  48.469  1.00  0.00     0.037 A 
HETATM   23 CL1  UNL     1      29.423   8.469  48.272  1.00  0.00    -0.084 Cl
HETATM   24  C17 UNL     1      28.364   5.977  48.465  1.00  0.00     0.068 A 
HETATM   25  C18 UNL     1      27.300   5.115  48.621  1.00  0.00     0.144 A 
HETATM   26  F1  UNL     1      27.586   3.794  48.613  1.00  0.00    -0.204 F 
ENDBRANCH  17  19
ENDBRANCH   3  17
BRANCH   5  27
HETATM   27  N4  UNL     1      22.252   5.391  52.865  1.00  0.00    -0.231 N 
HETATM   28  H18 UNL     1      22.633   5.373  53.823  1.00  0.00     0.174 HD
HETATM   29  H19 UNL     1      21.633   5.575  52.020  1.00  0.00     0.174 HD
ENDBRANCH   5  27
TORSDOF 6
ENDMDL
MODEL 8
REMARK VINA RESULT:      -7.6      2.468      5.810
REMARK  6 active torsions:
REMARK  status: ('A' for Active; 'I' for Inactive)
REMARK    1  A    between atoms: C7_7  and  C8_8 
REMARK    2  A    between atoms: C8_8  and  N1_9 
REMARK    3  A    between atoms: N1_9  and  C10_11 
REMARK    4  A    between atoms: C12_13  and  N2_14 
REMARK    5  A    between atoms: N2_14  and  C13_15 
REMARK    6  A    between atoms: C19_24  and  N4_25 
ROOT
HETATM    1  C10 UNL     1      23.209   0.081  53.475  1.00  0.00     0.148 A 
HETATM    2  C11 UNL     1      23.478   1.357  53.029  1.00  0.00     0.102 A 
HETATM    3  C12 UNL     1      24.752   1.772  52.717  1.00  0.00     0.151 A 
HETATM    4  N3  UNL     1      25.759   0.890  52.858  1.00  0.00    -0.045 NA
HETATM    5  C19 UNL     1      25.546  -0.361  53.288  1.00  0.00     0.724 A 
HETATM    6  N5  UNL     1      24.301  -0.697  53.571  1.00  0.00    -0.045 NA
ENDROOT
BRANCH   1   7
HETATM    7  N1  UNL     1      21.893  -0.359  53.803  1.00  0.00    -0.365 N 
HETATM    8  C9  UNL     1      21.736  -1.772  54.077  1.00  0.00     0.151 C 
BRANCH   7   9
HETATM    9  C8  UNL     1      20.708   0.485  53.879  1.00  0.00     0.163 C 
BRANCH   9  10
HETATM   10  C7  UNL     1      19.985   0.589  52.596  1.00  0.00    -0.034 A 
HETATM   11  C2  UNL     1      18.870  -0.171  52.283  1.00  0.00    -0.054 A 
HETATM   12  C1  UNL     1      18.335  -1.127  53.287  1.00  0.00     0.049 C 
HETATM   13  C3  UNL     1      18.189  -0.094  51.065  1.00  0.00     0.007 A 
HETATM   14  C4  UNL     1      18.734   0.825  50.184  1.00  0.00     0.001 A 
HETATM   15  C5  UNL     1      19.833   1.618  50.413  1.00  0.00     0.001 A 
HETATM   16  C6  UNL     1      20.458   1.492  51.631  1.00  0.00     0.009 A 
ENDBRANCH   9  10
ENDBRANCH   7   9
ENDBRANCH   1   7
BRANCH   3  17
HETATM   17  N2  UNL     1      24.975   3.093  52.265  1.00  0.00    -0.338 N 
HETATM   18  H14 UNL     1      25.916   3.530  52.359  1.00  0.00     0.167 HD
BRANCH  17  19
HETATM   19  C13 UNL     1      23.882   3.808  51.681  1.00  0.00     0.072 A 
HETATM   20  C14 UNL     1      23.089   4.653  52.468  1.00  0.00     0.034 A 
HETATM   21  C15 UNL     1      22.078   5.269  51.765  1.00  0.00     0.026 A 
HETATM   22  C16 UNL     1      21.814   5.116  50.422  1.00  0.00     0.037 A 
HETATM   23 CL1  UNL     1      20.489   5.959  49.630  1.00  0.00    -0.084 Cl
HETATM   24  C17 UNL     1      22.619   4.276  49.682  1.00  0.00     0.068 A 
HETATM   25  C18 UNL     1      23.646   3.633  50.337  1.00  0.00     0.144 A 
HETATM   26  F1  UNL     1      24.420   2.813  49.590  1.00  0.00    -0.204 F 
ENDBRANCH  17  19
ENDBRANCH   3  17
BRANCH   5  27
HETATM   27  N4  UNL     1      26.582  -1.329  53.450  1.00  0.00    -0.231 N 
HETATM   28  H18 UNL     1      26.143  -2.186  53.082  1.00  0.00     0.174 HD
HETATM   29  H19 UNL     1      27.275  -0.642  53.873  1.00  0.00     0.174 HD
ENDBRANCH   5  27
TORSDOF 6
ENDMDL
MODEL 9
REMARK VINA RESULT:      -7.4      2.331      3.495
REMARK  6 active torsions:
REMARK  status: ('A' for Active; 'I' for Inactive)
REMARK    1  A    between atoms: C7_7  and  C8_8 
REMARK    2  A    between atoms: C8_8  and  N1_9 
REMARK    3  A    between atoms: N1_9  and  C10_11 
REMARK    4  A    between atoms: C12_13  and  N2_14 
REMARK    5  A    between atoms: N2_14  and  C13_15 
REMARK    6  A    between atoms: C19_24  and  N4_25 
ROOT
HETATM    1  C10 UNL     1      23.937   2.327  52.486  1.00  0.00     0.148 A 
HETATM    2  C11 UNL     1      24.356   3.638  52.421  1.00  0.00     0.102 A 
HETATM    3  C12 UNL     1      23.470   4.688  52.335  1.00  0.00     0.151 A 
HETATM    4  N3  UNL     1      22.153   4.408  52.316  1.00  0.00    -0.045 NA
HETATM    5  C19 UNL     1      21.700   3.149  52.378  1.00  0.00     0.724 A 
HETATM    6  N5  UNL     1      22.601   2.186  52.458  1.00  0.00    -0.045 NA
ENDROOT
BRANCH   1   7
HETATM    7  N1  UNL     1      24.846   1.233  52.573  1.00  0.00    -0.365 N 
HETATM    8  C9  UNL     1      24.542   0.219  53.562  1.00  0.00     0.151 C 
BRANCH   7   9
HETATM    9  C8  UNL     1      26.045   1.054  51.764  1.00  0.00     0.163 C 
BRANCH   9  10
HETATM   10  C7  UNL     1      27.095   0.270  52.444  1.00  0.00    -0.034 A 
HETATM   11  C2  UNL     1      28.119   0.842  53.179  1.00  0.00    -0.054 A 
HETATM   12  C1  UNL     1      28.170   2.319  53.332  1.00  0.00     0.049 C 
HETATM   13  C3  UNL     1      29.129   0.111  53.813  1.00  0.00     0.007 A 
HETATM   14  C4  UNL     1      29.012  -1.258  53.640  1.00  0.00     0.001 A 
HETATM   15  C5  UNL     1      28.030  -1.907  52.930  1.00  0.00     0.001 A 
HETATM   16  C6  UNL     1      27.068  -1.129  52.330  1.00  0.00     0.009 A 
ENDBRANCH   9  10
ENDBRANCH   7   9
ENDBRANCH   1   7
BRANCH   3  17
HETATM   17  N2  UNL     1      23.951   6.016  52.269  1.00  0.00    -0.338 N 
HETATM   18  H14 UNL     1      24.166   6.542  53.142  1.00  0.00     0.167 HD
BRANCH  17  19
HETATM   19  C13 UNL     1      24.131   6.613  50.982  1.00  0.00     0.072 A 
HETATM   20  C14 UNL     1      25.321   6.412  50.270  1.00  0.00     0.034 A 
HETATM   21  C15 UNL     1      25.346   7.050  49.050  1.00  0.00     0.026 A 
HETATM   22  C16 UNL     1      24.337   7.824  48.520  1.00  0.00     0.037 A 
HETATM   23 CL1  UNL     1      24.482   8.592  46.944  1.00  0.00    -0.084 Cl
HETATM   24  C17 UNL     1      23.181   7.996  49.251  1.00  0.00     0.068 A 
HETATM   25  C18 UNL     1      23.104   7.379  50.481  1.00  0.00     0.144 A 
HETATM   26  F1  UNL     1      21.961   7.564  51.179  1.00  0.00    -0.204 F 
ENDBRANCH  17  19
ENDBRANCH   3  17
BRANCH   5  27
HETATM   27  N4  UNL     1      20.315   2.805  52.362  1.00  0.00    -0.231 N 
HETATM   28  H18 UNL     1      19.859   3.728  52.316  1.00  0.00     0.174 HD
HETATM   29  H19 UNL     1      20.487   1.756  52.407  1.00  0.00     0.174 HD
ENDBRANCH   5  27
TORSDOF 6
ENDMDL
