MODEL 1
REMARK VINA RESULT:      -8.5      0.000      0.000
REMARK  6 active torsions:
REMARK  status: ('A' for Active; 'I' for Inactive)
REMARK    1  A    between atoms: N1_1  and  C1_2 
REMARK    2  A    between atoms: N2_5  and  C4_6 
REMARK    3  A    between atoms: C7_9  and  N3_10 
REMARK    4  A    between atoms: N3_10  and  C8_11 
REMARK    5  A    between atoms: C17_24  and  O1_25 
REMARK    6  A    between atoms: O1_25  and  C18_26 
ROOT
HETATM    1  C4  UNL     1      22.664   1.005  52.046  1.00  0.00     0.065 A 
HETATM    2  C5  UNL     1      23.928   1.524  52.220  1.00  0.00     0.050 A 
HETATM    3  C6  UNL     1      24.598   2.310  51.341  1.00  0.00     0.041 A 
HETATM    4  C7  UNL     1      25.864   2.817  51.537  1.00  0.00     0.142 A 
HETATM    5  N4  UNL     1      26.320   3.562  50.535  1.00  0.00    -0.224 NA
HETATM    6  C14 UNL     1      25.681   3.852  49.397  1.00  0.00     0.236 A 
HETATM    7  N5  UNL     1      24.446   3.363  49.193  1.00  0.00    -0.241 NA
HETATM    8  C15 UNL     1      23.911   2.599  50.157  1.00  0.00     0.075 A 
HETATM    9  C16 UNL     1      22.656   2.123  49.911  1.00  0.00     0.071 A 
HETATM   10  C17 UNL     1      22.018   1.317  50.857  1.00  0.00     0.101 A 
ENDROOT
BRANCH   4  11
HETATM   11  N3  UNL     1      26.554   2.529  52.738  1.00  0.00    -0.340 N 
HETATM   12  H9  UNL     1      26.457   3.120  53.572  1.00  0.00     0.167 HD
BRANCH  11  13
HETATM   13  C8  UNL     1      27.438   1.451  52.994  1.00  0.00     0.035 A 
HETATM   14  C9  UNL     1      28.692   1.617  53.518  1.00  0.00     0.032 A 
HETATM   15  C10 UNL     1      29.576   0.606  53.790  1.00  0.00     0.046 A 
HETATM   16  C11 UNL     1      29.218  -0.700  53.532  1.00  0.00     0.138 A 
HETATM   17  F1  UNL     1      30.032  -1.743  53.772  1.00  0.00    -0.204 F 
HETATM   18  C12 UNL     1      27.969  -0.927  53.004  1.00  0.00     0.074 A 
HETATM   19 CL1  UNL     1      27.442  -2.548  52.649  1.00  0.00    -0.081 Cl
HETATM   20  C13 UNL     1      27.128   0.132  52.754  1.00  0.00     0.056 A 
ENDBRANCH  11  13
ENDBRANCH   4  11
BRANCH   1  21
HETATM   21  N2  UNL     1      22.051   0.174  53.036  1.00  0.00    -0.376 N 
HETATM   22  C3  UNL     1      22.292  -1.233  53.144  1.00  0.00     0.125 C 
HETATM   23  C2  UNL     1      21.613  -1.701  54.400  1.00  0.00     0.056 C 
HETATM   24  C1  UNL     1      20.461  -0.719  54.532  1.00  0.00     0.237 C 
HETATM   25  C19 UNL     1      21.109   0.573  54.062  1.00  0.00     0.158 C 
BRANCH  24  26
HETATM   26  N1  UNL     1      19.392  -1.112  53.663  1.00  0.00     0.084 N 
HETATM   27  H1  UNL     1      18.698  -1.635  54.239  1.00  0.00     0.313 HD
HETATM   28  H2  UNL     1      18.981  -0.241  53.244  1.00  0.00     0.313 HD
ENDBRANCH  24  26
ENDBRANCH   1  21
BRANCH  10  29
HETATM   29  O1  UNL     1      20.749   0.861  50.561  1.00  0.00    -0.310 OA
BRANCH  29  30
HETATM   30  C18 UNL     1      19.603   1.622  50.863  1.00  0.00     0.568 C 
HETATM   31  O2  UNL     1      18.703   0.935  51.447  1.00  0.00    -0.406 OA
ENDBRANCH  29  30
ENDBRANCH  10  29
TORSDOF 6
ENDMDL
MODEL 2
REMARK VINA RESULT:      -8.5      2.447      4.490
REMARK  6 active torsions:
REMARK  status: ('A' for Active; 'I' for Inactive)
REMARK    1  A    between atoms: N1_1  and  C1_2 
REMARK    2  A    between atoms: N2_5  and  C4_6 
REMARK    3  A    between atoms: C7_9  and  N3_10 
REMARK    4  A    between atoms: N3_10  and  C8_11 
REMARK    5  A    between atoms: C17_24  and  O1_25 
REMARK    6  A    between atoms: O1_25  and  C18_26 
ROOT
HETATM    1  C4  UNL     1      21.146   0.991  51.597  1.00  0.00     0.065 A 
HETATM    2  C5  UNL     1      22.414   0.696  52.047  1.00  0.00     0.050 A 
HETATM    3  C6  UNL     1      22.723  -0.016  53.158  1.00  0.00     0.041 A 
HETATM    4  C7  UNL     1      24.002  -0.296  53.589  1.00  0.00     0.142 A 
HETATM    5  N4  UNL     1      24.061  -1.010  54.709  1.00  0.00    -0.224 NA
HETATM    6  C14 UNL     1      23.027  -1.462  55.427  1.00  0.00     0.236 A 
HETATM    7  N5  UNL     1      21.775  -1.195  55.018  1.00  0.00    -0.241 NA
HETATM    8  C15 UNL     1      21.627  -0.477  53.894  1.00  0.00     0.075 A 
HETATM    9  C16 UNL     1      20.340  -0.227  53.513  1.00  0.00     0.071 A 
HETATM   10  C17 UNL     1      20.086   0.513  52.356  1.00  0.00     0.101 A 
ENDROOT
BRANCH   4  11
HETATM   11  N3  UNL     1      25.108   0.166  52.839  1.00  0.00    -0.340 N 
HETATM   12  H9  UNL     1      24.988   0.727  51.988  1.00  0.00     0.167 HD
BRANCH  11  13
HETATM   13  C8  UNL     1      26.485  -0.042  53.105  1.00  0.00     0.035 A 
HETATM   14  C9  UNL     1      27.128  -1.224  52.852  1.00  0.00     0.032 A 
HETATM   15  C10 UNL     1      28.456  -1.468  53.083  1.00  0.00     0.046 A 
HETATM   16  C11 UNL     1      29.249  -0.473  53.614  1.00  0.00     0.138 A 
HETATM   17  F1  UNL     1      30.559  -0.638  53.868  1.00  0.00    -0.204 F 
HETATM   18  C12 UNL     1      28.656   0.737  53.889  1.00  0.00     0.074 A 
HETATM   19 CL1  UNL     1      29.589   2.045  54.561  1.00  0.00    -0.081 Cl
HETATM   20  C13 UNL     1      27.318   0.918  53.633  1.00  0.00     0.056 A 
ENDBRANCH  11  13
ENDBRANCH   4  11
BRANCH   1  21
HETATM   21  N2  UNL     1      20.930   1.763  50.412  1.00  0.00    -0.376 N 
HETATM   22  C3  UNL     1      20.706   3.177  50.422  1.00  0.00     0.125 C 
HETATM   23  C2  UNL     1      20.703   3.632  48.989  1.00  0.00     0.056 C 
HETATM   24  C1  UNL     1      20.211   2.395  48.256  1.00  0.00     0.237 C 
HETATM   25  C19 UNL     1      20.888   1.286  49.044  1.00  0.00     0.158 C 
BRANCH  24  26
HETATM   26  N1  UNL     1      18.784   2.311  48.359  1.00  0.00     0.084 N 
HETATM   27  H1  UNL     1      18.550   1.342  48.663  1.00  0.00     0.313 HD
HETATM   28  H2  UNL     1      18.468   3.031  49.055  1.00  0.00     0.313 HD
ENDBRANCH  24  26
ENDBRANCH   1  21
BRANCH  10  29
HETATM   29  O1  UNL     1      18.768   0.738  52.015  1.00  0.00    -0.310 OA
BRANCH  29  30
HETATM   30  C18 UNL     1      18.016  -0.221  51.307  1.00  0.00     0.568 C 
HETATM   31  O2  UNL     1      17.701   0.174  50.138  1.00  0.00    -0.406 OA
ENDBRANCH  29  30
ENDBRANCH  10  29
TORSDOF 6
ENDMDL
MODEL 3
REMARK VINA RESULT:      -8.3      1.871      5.026
REMARK  6 active torsions:
REMARK  status: ('A' for Active; 'I' for Inactive)
REMARK    1  A    between atoms: N1_1  and  C1_2 
REMARK    2  A    between atoms: N2_5  and  C4_6 
REMARK    3  A    between atoms: C7_9  and  N3_10 
REMARK    4  A    between atoms: N3_10  and  C8_11 
REMARK    5  A    between atoms: C17_24  and  O1_25 
REMARK    6  A    between atoms: O1_25  and  C18_26 
ROOT
HETATM    1  C4  UNL     1      24.135   3.336  50.299  1.00  0.00     0.065 A 
HETATM    2  C5  UNL     1      24.551   2.672  51.432  1.00  0.00     0.050 A 
HETATM    3  C6  UNL     1      23.932   1.616  52.014  1.00  0.00     0.041 A 
HETATM    4  C7  UNL     1      24.367   0.969  53.151  1.00  0.00     0.142 A 
HETATM    5  N4  UNL     1      23.595  -0.041  53.539  1.00  0.00    -0.224 NA
HETATM    6  C14 UNL     1      22.476  -0.468  52.946  1.00  0.00     0.236 A 
HETATM    7  N5  UNL     1      22.040   0.154  51.837  1.00  0.00    -0.241 NA
HETATM    8  C15 UNL     1      22.763   1.187  51.378  1.00  0.00     0.075 A 
HETATM    9  C16 UNL     1      22.286   1.791  50.250  1.00  0.00     0.071 A 
HETATM   10  C17 UNL     1      22.971   2.876  49.698  1.00  0.00     0.101 A 
ENDROOT
BRANCH   4  11
HETATM   11  N3  UNL     1      25.553   1.401  53.789  1.00  0.00    -0.340 N 
HETATM   12  H9  UNL     1      25.576   2.245  54.373  1.00  0.00     0.167 HD
BRANCH  11  13
HETATM   13  C8  UNL     1      26.834   0.795  53.743  1.00  0.00     0.035 A 
HETATM   14  C9  UNL     1      27.991   1.460  54.048  1.00  0.00     0.032 A 
HETATM   15  C10 UNL     1      29.247   0.914  54.027  1.00  0.00     0.046 A 
HETATM   16  C11 UNL     1      29.408  -0.409  53.675  1.00  0.00     0.138 A 
HETATM   17  F1  UNL     1      30.609  -1.014  53.632  1.00  0.00    -0.204 F 
HETATM   18  C12 UNL     1      28.280  -1.128  53.357  1.00  0.00     0.074 A 
HETATM   19 CL1  UNL     1      28.399  -2.804  52.903  1.00  0.00    -0.081 Cl
HETATM   20  C13 UNL     1      27.047  -0.520  53.399  1.00  0.00     0.056 A 
ENDBRANCH  11  13
ENDBRANCH   4  11
BRANCH   1  21
HETATM   21  N2  UNL     1      24.861   4.450  49.773  1.00  0.00    -0.376 N 
HETATM   22  C3  UNL     1      26.258   4.407  49.466  1.00  0.00     0.125 C 
HETATM   23  C2  UNL     1      26.599   5.700  48.778  1.00  0.00     0.056 C 
HETATM   24  C1  UNL     1      25.581   6.660  49.369  1.00  0.00     0.237 C 
HETATM   25  C19 UNL     1      24.351   5.773  49.473  1.00  0.00     0.158 C 
BRANCH  24  26
HETATM   26  N1  UNL     1      26.022   7.092  50.662  1.00  0.00     0.084 N 
HETATM   27  H1  UNL     1      26.681   6.370  51.025  1.00  0.00     0.313 HD
HETATM   28  H2  UNL     1      26.484   8.028  50.549  1.00  0.00     0.313 HD
ENDBRANCH  24  26
ENDBRANCH   1  21
BRANCH  10  29
HETATM   29  O1  UNL     1      22.448   3.452  48.558  1.00  0.00    -0.310 OA
BRANCH  29  30
HETATM   30  C18 UNL     1      22.229   2.701  47.387  1.00  0.00     0.568 C 
HETATM   31  O2  UNL     1      22.002   3.436  46.371  1.00  0.00    -0.406 OA
ENDBRANCH  29  30
ENDBRANCH  10  29
TORSDOF 6
ENDMDL
MODEL 4
REMARK VINA RESULT:      -8.1      4.089      6.402
REMARK  6 active torsions:
REMARK  status: ('A' for Active; 'I' for Inactive)
REMARK    1  A    between atoms: N1_1  and  C1_2 
REMARK    2  A    between atoms: N2_5  and  C4_6 
REMARK    3  A    between atoms: C7_9  and  N3_10 
REMARK    4  A    between atoms: N3_10  and  C8_11 
REMARK    5  A    between atoms: C17_24  and  O1_25 
REMARK    6  A    between atoms: O1_25  and  C18_26 
ROOT
HETATM    1  C4  UNL     1      24.653   1.622  53.119  1.00  0.00     0.065 A 
HETATM    2  C5  UNL     1      24.429   2.919  52.714  1.00  0.00     0.050 A 
HETATM    3  C6  UNL     1      23.237   3.444  52.335  1.00  0.00     0.041 A 
HETATM    4  C7  UNL     1      23.038   4.746  51.931  1.00  0.00     0.142 A 
HETATM    5  N4  UNL     1      21.782   5.035  51.604  1.00  0.00    -0.224 NA
HETATM    6  C14 UNL     1      20.736   4.203  51.631  1.00  0.00     0.236 A 
HETATM    7  N5  UNL     1      20.917   2.931  52.022  1.00  0.00    -0.241 NA
HETATM    8  C15 UNL     1      22.157   2.556  52.370  1.00  0.00     0.075 A 
HETATM    9  C16 UNL     1      22.299   1.256  52.761  1.00  0.00     0.071 A 
HETATM   10  C17 UNL     1      23.553   0.774  53.140  1.00  0.00     0.101 A 
ENDROOT
BRANCH   4  11
HETATM   11  N3  UNL     1      24.131   5.643  51.903  1.00  0.00    -0.340 N 
HETATM   12  H9  UNL     1      24.444   6.141  52.745  1.00  0.00     0.167 HD
BRANCH  11  13
HETATM   13  C8  UNL     1      24.936   5.996  50.791  1.00  0.00     0.035 A 
HETATM   14  C9  UNL     1      25.485   5.075  49.939  1.00  0.00     0.032 A 
HETATM   15  C10 UNL     1      26.261   5.369  48.849  1.00  0.00     0.046 A 
HETATM   16  C11 UNL     1      26.539   6.685  48.546  1.00  0.00     0.138 A 
HETATM   17  F1  UNL     1      27.292   7.051  47.494  1.00  0.00    -0.204 F 
HETATM   18  C12 UNL     1      26.015   7.654  49.369  1.00  0.00     0.074 A 
HETATM   19 CL1  UNL     1      26.321   9.339  49.055  1.00  0.00    -0.081 Cl
HETATM   20  C13 UNL     1      25.243   7.293  50.447  1.00  0.00     0.056 A 
ENDBRANCH  11  13
ENDBRANCH   4  11
BRANCH   1  21
HETATM   21  N2  UNL     1      25.958   1.166  53.489  1.00  0.00    -0.376 N 
HETATM   22  C3  UNL     1      26.288   0.705  54.804  1.00  0.00     0.125 C 
HETATM   23  C2  UNL     1      27.685   0.155  54.740  1.00  0.00     0.056 C 
HETATM   24  C1  UNL     1      28.305   0.972  53.618  1.00  0.00     0.237 C 
HETATM   25  C19 UNL     1      27.138   1.095  52.652  1.00  0.00     0.158 C 
BRANCH  24  26
HETATM   26  N1  UNL     1      28.703   2.253  54.120  1.00  0.00     0.084 N 
HETATM   27  H1  UNL     1      27.949   2.587  54.758  1.00  0.00     0.313 HD
HETATM   28  H2  UNL     1      29.618   2.133  54.621  1.00  0.00     0.313 HD
ENDBRANCH  24  26
ENDBRANCH   1  21
BRANCH  10  29
HETATM   29  O1  UNL     1      23.643  -0.548  53.527  1.00  0.00    -0.310 OA
BRANCH  29  30
HETATM   30  C18 UNL     1      22.577  -1.199  54.178  1.00  0.00     0.568 C 
HETATM   31  O2  UNL     1      22.805  -1.387  55.417  1.00  0.00    -0.406 OA
ENDBRANCH  29  30
ENDBRANCH  10  29
TORSDOF 6
ENDMDL
MODEL 5
REMARK VINA RESULT:      -8.0      3.853      6.293
REMARK  6 active torsions:
REMARK  status: ('A' for Active; 'I' for Inactive)
REMARK    1  A    between atoms: N1_1  and  C1_2 
REMARK    2  A    between atoms: N2_5  and  C4_6 
REMARK    3  A    between atoms: C7_9  and  N3_10 
REMARK    4  A    between atoms: N3_10  and  C8_11 
REMARK    5  A    between atoms: C17_24  and  O1_25 
REMARK    6  A    between atoms: O1_25  and  C18_26 
ROOT
HETATM    1  C4  UNL     1      25.193   0.782  52.754  1.00  0.00     0.065 A 
HETATM    2  C5  UNL     1      25.176   1.667  51.699  1.00  0.00     0.050 A 
HETATM    3  C6  UNL     1      24.076   2.097  51.033  1.00  0.00     0.041 A 
HETATM    4  C7  UNL     1      24.085   2.983  49.977  1.00  0.00     0.142 A 
HETATM    5  N4  UNL     1      22.884   3.257  49.478  1.00  0.00    -0.224 NA
HETATM    6  C14 UNL     1      21.712   2.767  49.895  1.00  0.00     0.236 A 
HETATM    7  N5  UNL     1      21.690   1.901  50.923  1.00  0.00    -0.241 NA
HETATM    8  C15 UNL     1      22.862   1.570  51.484  1.00  0.00     0.075 A 
HETATM    9  C16 UNL     1      22.796   0.688  52.524  1.00  0.00     0.071 A 
HETATM   10  C17 UNL     1      23.965   0.283  53.172  1.00  0.00     0.101 A 
ENDROOT
BRANCH   4  11
HETATM   11  N3  UNL     1      25.314   3.519  49.526  1.00  0.00    -0.340 N 
HETATM   12  H9  UNL     1      26.057   2.922  49.145  1.00  0.00     0.167 HD
BRANCH  11  13
HETATM   13  C8  UNL     1      25.717   4.878  49.517  1.00  0.00     0.035 A 
HETATM   14  C9  UNL     1      25.122   5.843  50.284  1.00  0.00     0.032 A 
HETATM   15  C10 UNL     1      25.483   7.165  50.315  1.00  0.00     0.046 A 
HETATM   16  C11 UNL     1      26.524   7.604  49.525  1.00  0.00     0.138 A 
HETATM   17  F1  UNL     1      26.934   8.885  49.501  1.00  0.00    -0.204 F 
HETATM   18  C12 UNL     1      27.159   6.678  48.732  1.00  0.00     0.074 A 
HETATM   19 CL1  UNL     1      28.483   7.154  47.706  1.00  0.00    -0.081 Cl
HETATM   20  C13 UNL     1      26.749   5.366  48.748  1.00  0.00     0.056 A 
ENDBRANCH  11  13
ENDBRANCH   4  11
BRANCH   1  21
HETATM   21  N2  UNL     1      26.415   0.385  53.382  1.00  0.00    -0.376 N 
HETATM   22  C3  UNL     1      26.754   0.723  54.731  1.00  0.00     0.125 C 
HETATM   23  C2  UNL     1      28.017  -0.019  55.067  1.00  0.00     0.056 C 
HETATM   24  C1  UNL     1      28.690  -0.147  53.711  1.00  0.00     0.237 C 
HETATM   25  C19 UNL     1      27.495  -0.387  52.801  1.00  0.00     0.158 C 
BRANCH  24  26
HETATM   26  N1  UNL     1      29.354   1.079  53.385  1.00  0.00     0.084 N 
HETATM   27  H1  UNL     1      28.842   1.509  52.585  1.00  0.00     0.313 HD
HETATM   28  H2  UNL     1      29.337   1.691  54.238  1.00  0.00     0.313 HD
ENDBRANCH  24  26
ENDBRANCH   1  21
BRANCH  10  29
HETATM   29  O1  UNL     1      23.844  -0.609  54.217  1.00  0.00    -0.310 OA
BRANCH  29  30
HETATM   30  C18 UNL     1      22.587  -0.953  54.750  1.00  0.00     0.568 C 
HETATM   31  O2  UNL     1      22.663  -1.881  55.620  1.00  0.00    -0.406 OA
ENDBRANCH  29  30
ENDBRANCH  10  29
TORSDOF 6
ENDMDL
MODEL 6
REMARK VINA RESULT:      -7.9      3.688      5.503
REMARK  6 active torsions:
REMARK  status: ('A' for Active; 'I' for Inactive)
REMARK    1  A    between atoms: N1_1  and  C1_2 
REMARK    2  A    between atoms: N2_5  and  C4_6 
REMARK    3  A    between atoms: C7_9  and  N3_10 
REMARK    4  A    between atoms: N3_10  and  C8_11 
REMARK    5  A    between atoms: C17_24  and  O1_25 
REMARK    6  A    between atoms: O1_25  and  C18_26 
ROOT
HETATM    1  C4  UNL     1      22.609   1.235  52.188  1.00  0.00     0.065 A 
HETATM    2  C5  UNL     1      23.640   1.834  51.498  1.00  0.00     0.050 A 
HETATM    3  C6  UNL     1      24.954   1.792  51.829  1.00  0.00     0.041 A 
HETATM    4  C7  UNL     1      25.969   2.402  51.124  1.00  0.00     0.142 A 
HETATM    5  N4  UNL     1      27.181   2.225  51.639  1.00  0.00    -0.224 NA
HETATM    6  C14 UNL     1      27.490   1.534  52.741  1.00  0.00     0.236 A 
HETATM    7  N5  UNL     1      26.510   0.935  53.438  1.00  0.00    -0.241 NA
HETATM    8  C15 UNL     1      25.255   1.064  52.985  1.00  0.00     0.075 A 
HETATM    9  C16 UNL     1      24.289   0.441  53.722  1.00  0.00     0.071 A 
HETATM   10  C17 UNL     1      22.951   0.521  53.329  1.00  0.00     0.101 A 
ENDROOT
BRANCH   4  11
HETATM   11  N3  UNL     1      25.663   3.132  49.951  1.00  0.00    -0.340 N 
HETATM   12  H9  UNL     1      25.073   2.739  49.208  1.00  0.00     0.167 HD
BRANCH  11  13
HETATM   13  C8  UNL     1      26.082   4.442  49.610  1.00  0.00     0.035 A 
HETATM   14  C9  UNL     1      27.179   4.701  48.833  1.00  0.00     0.032 A 
HETATM   15  C10 UNL     1      27.615   5.948  48.470  1.00  0.00     0.046 A 
HETATM   16  C11 UNL     1      26.926   7.062  48.900  1.00  0.00     0.138 A 
HETATM   17  F1  UNL     1      27.294   8.317  48.585  1.00  0.00    -0.204 F 
HETATM   18  C12 UNL     1      25.814   6.863  49.685  1.00  0.00     0.074 A 
HETATM   19 CL1  UNL     1      24.890   8.218  50.267  1.00  0.00    -0.081 Cl
HETATM   20  C13 UNL     1      25.428   5.585  50.012  1.00  0.00     0.056 A 
ENDBRANCH  11  13
ENDBRANCH   4  11
BRANCH   1  21
HETATM   21  N2  UNL     1      21.250   1.350  51.756  1.00  0.00    -0.376 N 
HETATM   22  C3  UNL     1      20.315   2.268  52.334  1.00  0.00     0.125 C 
HETATM   23  C2  UNL     1      19.067   2.211  51.497  1.00  0.00     0.056 C 
HETATM   24  C1  UNL     1      19.101   0.790  50.961  1.00  0.00     0.237 C 
HETATM   25  C19 UNL     1      20.588   0.594  50.712  1.00  0.00     0.158 C 
BRANCH  24  26
HETATM   26  N1  UNL     1      18.617  -0.114  51.961  1.00  0.00     0.084 N 
HETATM   27  H1  UNL     1      17.578  -0.035  51.977  1.00  0.00     0.313 HD
HETATM   28  H2  UNL     1      18.935  -1.081  51.703  1.00  0.00     0.313 HD
ENDBRANCH  24  26
ENDBRANCH   1  21
BRANCH  10  29
HETATM   29  O1  UNL     1      22.013  -0.126  54.108  1.00  0.00    -0.310 OA
BRANCH  29  30
HETATM   30  C18 UNL     1      21.983  -1.531  54.209  1.00  0.00     0.568 C 
HETATM   31  O2  UNL     1      22.236  -1.940  55.389  1.00  0.00    -0.406 OA
ENDBRANCH  29  30
ENDBRANCH  10  29
TORSDOF 6
ENDMDL
MODEL 7
REMARK VINA RESULT:      -7.9      2.002      4.759
REMARK  6 active torsions:
REMARK  status: ('A' for Active; 'I' for Inactive)
REMARK    1  A    between atoms: N1_1  and  C1_2 
REMARK    2  A    between atoms: N2_5  and  C4_6 
REMARK    3  A    between atoms: C7_9  and  N3_10 
REMARK    4  A    between atoms: N3_10  and  C8_11 
REMARK    5  A    between atoms: C17_24  and  O1_25 
REMARK    6  A    between atoms: O1_25  and  C18_26 
ROOT
HETATM    1  C4  UNL     1      22.133   2.670  51.499  1.00  0.00     0.065 A 
HETATM    2  C5  UNL     1      23.001   1.684  51.914  1.00  0.00     0.050 A 
HETATM    3  C6  UNL     1      22.768   0.772  52.890  1.00  0.00     0.041 A 
HETATM    4  C7  UNL     1      23.654  -0.205  53.289  1.00  0.00     0.142 A 
HETATM    5  N4  UNL     1      23.208  -0.985  54.268  1.00  0.00    -0.224 NA
HETATM    6  C14 UNL     1      22.020  -0.908  54.877  1.00  0.00     0.236 A 
HETATM    7  N5  UNL     1      21.148   0.040  54.498  1.00  0.00    -0.241 NA
HETATM    8  C15 UNL     1      21.520   0.872  53.513  1.00  0.00     0.075 A 
HETATM    9  C16 UNL     1      20.605   1.821  53.158  1.00  0.00     0.071 A 
HETATM   10  C17 UNL     1      20.904   2.733  52.143  1.00  0.00     0.101 A 
ENDROOT
BRANCH   4  11
HETATM   11  N3  UNL     1      24.913  -0.308  52.652  1.00  0.00    -0.340 N 
HETATM   12  H9  UNL     1      25.030  -0.807  51.763  1.00  0.00     0.167 HD
BRANCH  11  13
HETATM   13  C8  UNL     1      26.153   0.220  53.090  1.00  0.00     0.035 A 
HETATM   14  C9  UNL     1      26.327   1.529  53.450  1.00  0.00     0.032 A 
HETATM   15  C10 UNL     1      27.503   2.081  53.888  1.00  0.00     0.046 A 
HETATM   16  C11 UNL     1      28.629   1.291  53.989  1.00  0.00     0.138 A 
HETATM   17  F1  UNL     1      29.817   1.761  54.409  1.00  0.00    -0.204 F 
HETATM   18  C12 UNL     1      28.514  -0.034  53.639  1.00  0.00     0.074 A 
HETATM   19 CL1  UNL     1      29.889  -1.096  53.738  1.00  0.00    -0.081 Cl
HETATM   20  C13 UNL     1      27.304  -0.526  53.208  1.00  0.00     0.056 A 
ENDBRANCH  11  13
ENDBRANCH   4  11
BRANCH   1  21
HETATM   21  N2  UNL     1      22.483   3.591  50.463  1.00  0.00    -0.376 N 
HETATM   22  C3  UNL     1      22.378   3.285  49.068  1.00  0.00     0.125 C 
HETATM   23  C2  UNL     1      22.666   4.555  48.316  1.00  0.00     0.056 C 
HETATM   24  C1  UNL     1      23.597   5.291  49.265  1.00  0.00     0.237 C 
HETATM   25  C19 UNL     1      22.995   4.938  50.615  1.00  0.00     0.158 C 
BRANCH  24  26
HETATM   26  N1  UNL     1      24.926   4.770  49.134  1.00  0.00     0.084 N 
HETATM   27  H1  UNL     1      24.876   3.943  48.502  1.00  0.00     0.313 HD
HETATM   28  H2  UNL     1      25.533   5.531  48.741  1.00  0.00     0.313 HD
ENDBRANCH  24  26
ENDBRANCH   1  21
BRANCH  10  29
HETATM   29  O1  UNL     1      19.946   3.673  51.822  1.00  0.00    -0.310 OA
BRANCH  29  30
HETATM   30  C18 UNL     1      18.686   3.296  51.316  1.00  0.00     0.568 C 
HETATM   31  O2  UNL     1      17.724   3.736  52.026  1.00  0.00    -0.406 OA
ENDBRANCH  29  30
ENDBRANCH  10  29
TORSDOF 6
ENDMDL
MODEL 8
REMARK VINA RESULT:      -7.7      7.492     10.965
REMARK  6 active torsions:
REMARK  status: ('A' for Active; 'I' for Inactive)
REMARK    1  A    between atoms: N1_1  and  C1_2 
REMARK    2  A    between atoms: N2_5  and  C4_6 
REMARK    3  A    between atoms: C7_9  and  N3_10 
REMARK    4  A    between atoms: N3_10  and  C8_11 
REMARK    5  A    between atoms: C17_24  and  O1_25 
REMARK    6  A    between atoms: O1_25  and  C18_26 
ROOT
HETATM    1  C4  UNL     1      31.794   6.362  47.824  1.00  0.00     0.065 A 
HETATM    2  C5  UNL     1      30.427   6.508  47.922  1.00  0.00     0.050 A 
HETATM    3  C6  UNL     1      29.773   7.567  48.459  1.00  0.00     0.041 A 
HETATM    4  C7  UNL     1      28.403   7.689  48.548  1.00  0.00     0.142 A 
HETATM    5  N4  UNL     1      27.986   8.816  49.116  1.00  0.00    -0.224 NA
HETATM    6  C14 UNL     1      28.752   9.804  49.591  1.00  0.00     0.236 A 
HETATM    7  N5  UNL     1      30.089   9.697  49.511  1.00  0.00    -0.241 NA
HETATM    8  C15 UNL     1      30.592   8.587  48.950  1.00  0.00     0.075 A 
HETATM    9  C16 UNL     1      31.955   8.517  48.889  1.00  0.00     0.071 A 
HETATM   10  C17 UNL     1      32.571   7.399  48.323  1.00  0.00     0.101 A 
ENDROOT
BRANCH   4  11
HETATM   11  N3  UNL     1      27.576   6.658  48.044  1.00  0.00    -0.340 N 
HETATM   12  H9  UNL     1      27.423   6.530  47.037  1.00  0.00     0.167 HD
BRANCH  11  13
HETATM   13  C8  UNL     1      26.859   5.682  48.780  1.00  0.00     0.035 A 
HETATM   14  C9  UNL     1      27.257   4.376  48.884  1.00  0.00     0.032 A 
HETATM   15  C10 UNL     1      26.603   3.402  49.591  1.00  0.00     0.046 A 
HETATM   16  C11 UNL     1      25.443   3.715  50.268  1.00  0.00     0.138 A 
HETATM   17  F1  UNL     1      24.746   2.814  50.982  1.00  0.00    -0.204 F 
HETATM   18  C12 UNL     1      24.994   5.013  50.199  1.00  0.00     0.074 A 
HETATM   19 CL1  UNL     1      23.538   5.488  51.027  1.00  0.00    -0.081 Cl
HETATM   20  C13 UNL     1      25.698   5.944  49.473  1.00  0.00     0.056 A 
ENDBRANCH  11  13
ENDBRANCH   4  11
BRANCH   1  21
HETATM   21  N2  UNL     1      32.384   5.194  47.246  1.00  0.00    -0.376 N 
HETATM   22  C3  UNL     1      32.823   5.124  45.885  1.00  0.00     0.125 C 
HETATM   23  C2  UNL     1      33.538   3.812  45.720  1.00  0.00     0.056 C 
HETATM   24  C1  UNL     1      32.850   2.935  46.753  1.00  0.00     0.237 C 
HETATM   25  C19 UNL     1      32.631   3.920  47.890  1.00  0.00     0.158 C 
BRANCH  24  26
HETATM   26  N1  UNL     1      31.604   2.461  46.228  1.00  0.00     0.084 N 
HETATM   27  H1  UNL     1      30.844   2.851  46.826  1.00  0.00     0.313 HD
HETATM   28  H2  UNL     1      31.529   2.785  45.232  1.00  0.00     0.313 HD
ENDBRANCH  24  26
ENDBRANCH   1  21
BRANCH  10  29
HETATM   29  O1  UNL     1      33.950   7.377  48.285  1.00  0.00    -0.310 OA
BRANCH  29  30
HETATM   30  C18 UNL     1      34.684   8.369  47.604  1.00  0.00     0.568 C 
HETATM   31  O2  UNL     1      35.773   8.662  48.198  1.00  0.00    -0.406 OA
ENDBRANCH  29  30
ENDBRANCH  10  29
TORSDOF 6
ENDMDL
MODEL 9
REMARK VINA RESULT:      -7.6      4.320      8.127
REMARK  6 active torsions:
REMARK  status: ('A' for Active; 'I' for Inactive)
REMARK    1  A    between atoms: N1_1  and  C1_2 
REMARK    2  A    between atoms: N2_5  and  C4_6 
REMARK    3  A    between atoms: C7_9  and  N3_10 
REMARK    4  A    between atoms: N3_10  and  C8_11 
REMARK    5  A    between atoms: C17_24  and  O1_25 
REMARK    6  A    between atoms: O1_25  and  C18_26 
ROOT
HETATM    1  C4  UNL     1      23.949   2.299  51.867  1.00  0.00     0.065 A 
HETATM    2  C5  UNL     1      22.728   1.853  52.322  1.00  0.00     0.050 A 
HETATM    3  C6  UNL     1      22.519   0.807  53.159  1.00  0.00     0.041 A 
HETATM    4  C7  UNL     1      21.286   0.379  53.600  1.00  0.00     0.142 A 
HETATM    5  N4  UNL     1      21.326  -0.670  54.415  1.00  0.00    -0.224 NA
HETATM    6  C14 UNL     1      22.418  -1.321  54.829  1.00  0.00     0.236 A 
HETATM    7  N5  UNL     1      23.627  -0.914  54.406  1.00  0.00    -0.241 NA
HETATM    8  C15 UNL     1      23.674   0.140  53.579  1.00  0.00     0.075 A 
HETATM    9  C16 UNL     1      24.921   0.522  53.173  1.00  0.00     0.071 A 
HETATM   10  C17 UNL     1      25.071   1.609  52.309  1.00  0.00     0.101 A 
ENDROOT
BRANCH   4  11
HETATM   11  N3  UNL     1      20.119   1.059  53.179  1.00  0.00    -0.340 N 
HETATM   12  H9  UNL     1      19.855   1.972  53.569  1.00  0.00     0.167 HD
BRANCH  11  13
HETATM   13  C8  UNL     1      19.170   0.640  52.214  1.00  0.00     0.035 A 
HETATM   14  C9  UNL     1      19.181   1.068  50.914  1.00  0.00     0.032 A 
HETATM   15  C10 UNL     1      18.291   0.683  49.945  1.00  0.00     0.046 A 
HETATM   16  C11 UNL     1      17.285  -0.205  50.260  1.00  0.00     0.138 A 
HETATM   17  F1  UNL     1      16.375  -0.628  49.365  1.00  0.00    -0.204 F 
HETATM   18  C12 UNL     1      17.223  -0.668  51.554  1.00  0.00     0.074 A 
HETATM   19 CL1  UNL     1      15.982  -1.792  52.031  1.00  0.00    -0.081 Cl
HETATM   20  C13 UNL     1      18.148  -0.244  52.478  1.00  0.00     0.056 A 
ENDBRANCH  11  13
ENDBRANCH   4  11
BRANCH   1  21
HETATM   21  N2  UNL     1      24.057   3.411  50.974  1.00  0.00    -0.376 N 
HETATM   22  C3  UNL     1      24.183   3.272  49.555  1.00  0.00     0.125 C 
HETATM   23  C2  UNL     1      24.090   4.653  48.967  1.00  0.00     0.056 C 
HETATM   24  C1  UNL     1      24.632   5.521  50.090  1.00  0.00     0.237 C 
HETATM   25  C19 UNL     1      24.070   4.819  51.315  1.00  0.00     0.158 C 
BRANCH  24  26
HETATM   26  N1  UNL     1      26.064   5.482  50.079  1.00  0.00     0.084 N 
HETATM   27  H1  UNL     1      26.366   5.346  49.090  1.00  0.00     0.313 HD
HETATM   28  H2  UNL     1      26.414   6.388  50.477  1.00  0.00     0.313 HD
ENDBRANCH  24  26
ENDBRANCH   1  21
BRANCH  10  29
HETATM   29  O1  UNL     1      26.352   1.954  51.928  1.00  0.00    -0.310 OA
BRANCH  29  30
HETATM   30  C18 UNL     1      27.469   1.628  52.721  1.00  0.00     0.568 C 
HETATM   31  O2  UNL     1      28.409   2.481  52.612  1.00  0.00    -0.406 OA
ENDBRANCH  29  30
ENDBRANCH  10  29
TORSDOF 6
ENDMDL
