MODEL 1
REMARK VINA RESULT:      -8.9      0.000      0.000
REMARK  5 active torsions:
REMARK  status: ('A' for Active; 'I' for Inactive)
REMARK    1  A    between atoms: C3_3  and  C5_5 
REMARK    2  A    between atoms: C5_5  and  O1_6 
REMARK    3  A    between atoms: C5_5  and  C6_7 
REMARK    4  A    between atoms: C7_8  and  C8_9 
REMARK    5  A    between atoms: C19_22  and  C20_23 
ROOT
HETATM    1  C8  UNL     1      25.777   1.016  52.386  1.00  0.00     0.005 C 
HETATM    2  C9  UNL     1      25.611   2.308  52.046  1.00  0.00    -0.054 C 
HETATM    3  C10 UNL     1      24.462   2.947  52.766  1.00  0.00     0.202 C 
HETATM    4  O2  UNL     1      23.509   3.412  51.950  1.00  0.00    -0.386 OA
HETATM    5  C11 UNL     1      22.373   4.021  52.385  1.00  0.00     0.176 C 
HETATM    6  C12 UNL     1      21.641   4.392  50.982  1.00  0.00     0.028 C 
HETATM    7  C13 UNL     1      21.414   3.039  50.355  1.00  0.00     0.016 C 
HETATM    8  C14 UNL     1      22.677   5.221  50.404  1.00  0.00    -0.015 C 
HETATM    9  C15 UNL     1      23.682   5.267  49.558  1.00  0.00    -0.049 C 
HETATM   10  C16 UNL     1      24.086   4.044  48.767  1.00  0.00     0.203 C 
HETATM   11  O3  UNL     1      24.716   3.248  49.721  1.00  0.00    -0.378 OA
HETATM   12  C17 UNL     1      26.045   3.278  49.800  1.00  0.00     0.149 C 
HETATM   13  C18 UNL     1      26.767   4.453  49.251  1.00  0.00     0.016 C 
HETATM   14  C19 UNL     1      26.709   5.711  48.788  1.00  0.00    -0.013 C 
HETATM   15  C22 UNL     1      25.586   6.633  48.889  1.00  0.00     0.163 C 
HETATM   16  O4  UNL     1      25.829   7.669  48.219  1.00  0.00    -0.292 OA
HETATM   17  C23 UNL     1      24.261   6.652  49.571  1.00  0.00     0.087 C 
HETATM   18  C24 UNL     1      24.366   7.207  50.962  1.00  0.00     0.023 C 
HETATM   19  C25 UNL     1      26.597   2.825  51.109  1.00  0.00     0.072 C 
ENDROOT
BRANCH   1  20
HETATM   20  C7  UNL     1      24.962   0.283  53.337  1.00  0.00    -0.001 C 
HETATM   21  C6  UNL     1      23.782  -0.210  53.011  1.00  0.00     0.009 C 
BRANCH  21  22
HETATM   22  C5  UNL     1      22.652  -0.962  53.538  1.00  0.00     0.169 C 
BRANCH  22  23
HETATM   23  C3  UNL     1      21.326  -0.281  53.372  1.00  0.00    -0.056 C 
HETATM   24  C2  UNL     1      20.714  -0.125  52.201  1.00  0.00    -0.026 C 
HETATM   25  C1  UNL     1      19.404   0.577  52.243  1.00  0.00     0.036 C 
HETATM   26  C4  UNL     1      20.747   0.213  54.656  1.00  0.00     0.046 C 
ENDBRANCH  22  23
BRANCH  22  27
HETATM   27  O1  UNL     1      22.876  -1.169  54.918  1.00  0.00    -0.387 OA
HETATM   28  H9  UNL     1      23.119  -2.135  54.984  1.00  0.00     0.210 HD
ENDBRANCH  22  27
ENDBRANCH  21  22
ENDBRANCH   1  20
BRANCH  14  29
HETATM   29  C20 UNL     1      27.904   6.218  48.104  1.00  0.00     0.037 C 
HETATM   30  C21 UNL     1      29.117   5.343  48.213  1.00  0.00     0.010 C 
ENDBRANCH  14  29
TORSDOF 5
ENDMDL
MODEL 2
REMARK VINA RESULT:      -8.6      1.802      7.877
REMARK  5 active torsions:
REMARK  status: ('A' for Active; 'I' for Inactive)
REMARK    1  A    between atoms: C3_3  and  C5_5 
REMARK    2  A    between atoms: C5_5  and  O1_6 
REMARK    3  A    between atoms: C5_5  and  C6_7 
REMARK    4  A    between atoms: C7_8  and  C8_9 
REMARK    5  A    between atoms: C19_22  and  C20_23 
ROOT
HETATM    1  C8  UNL     1      27.103   4.356  49.347  1.00  0.00     0.005 C 
HETATM    2  C9  UNL     1      26.143   3.496  49.738  1.00  0.00    -0.054 C 
HETATM    3  C10 UNL     1      24.790   3.874  49.217  1.00  0.00     0.202 C 
HETATM    4  O2  UNL     1      23.891   4.110  50.179  1.00  0.00    -0.386 OA
HETATM    5  C11 UNL     1      22.603   4.475  49.936  1.00  0.00     0.176 C 
HETATM    6  C12 UNL     1      22.001   4.578  51.444  1.00  0.00     0.028 C 
HETATM    7  C13 UNL     1      22.843   5.663  52.067  1.00  0.00     0.016 C 
HETATM    8  C14 UNL     1      22.251   3.218  51.875  1.00  0.00    -0.015 C 
HETATM    9  C15 UNL     1      23.049   2.428  52.557  1.00  0.00    -0.049 C 
HETATM   10  C16 UNL     1      24.276   2.975  53.249  1.00  0.00     0.203 C 
HETATM   11  O3  UNL     1      25.152   3.212  52.193  1.00  0.00    -0.378 OA
HETATM   12  C17 UNL     1      26.077   2.296  51.912  1.00  0.00     0.149 C 
HETATM   13  C18 UNL     1      25.861   0.901  52.370  1.00  0.00     0.016 C 
HETATM   14  C19 UNL     1      25.017  -0.018  52.864  1.00  0.00    -0.013 C 
HETATM   15  C22 UNL     1      23.567   0.081  52.958  1.00  0.00     0.163 C 
HETATM   16  O4  UNL     1      23.117  -0.899  53.605  1.00  0.00    -0.292 OA
HETATM   17  C23 UNL     1      22.516   1.027  52.487  1.00  0.00     0.087 C 
HETATM   18  C24 UNL     1      22.035   0.674  51.108  1.00  0.00     0.023 C 
HETATM   19  C25 UNL     1      26.616   2.368  50.524  1.00  0.00     0.072 C 
ENDROOT
BRANCH   1  20
HETATM   20  C7  UNL     1      26.899   5.528  48.516  1.00  0.00    -0.001 C 
HETATM   21  C6  UNL     1      27.861   6.407  48.299  1.00  0.00     0.009 C 
BRANCH  21  22
HETATM   22  C5  UNL     1      28.161   7.651  47.606  1.00  0.00     0.169 C 
BRANCH  22  23
HETATM   23  C3  UNL     1      28.808   8.696  48.466  1.00  0.00    -0.056 C 
HETATM   24  C2  UNL     1      30.068   9.100  48.320  1.00  0.00    -0.026 C 
HETATM   25  C1  UNL     1      30.526  10.148  49.271  1.00  0.00     0.036 C 
HETATM   26  C4  UNL     1      27.901   9.248  49.514  1.00  0.00     0.046 C 
ENDBRANCH  22  23
BRANCH  22  27
HETATM   27  O1  UNL     1      26.947   8.174  47.109  1.00  0.00    -0.387 OA
HETATM   28  H9  UNL     1      27.149   9.134  46.927  1.00  0.00     0.210 HD
ENDBRANCH  22  27
ENDBRANCH  21  22
ENDBRANCH   1  20
BRANCH  14  29
HETATM   29  C20 UNL     1      25.616  -1.260  53.369  1.00  0.00     0.037 C 
HETATM   30  C21 UNL     1      26.849  -1.709  52.645  1.00  0.00     0.010 C 
ENDBRANCH  14  29
TORSDOF 5
ENDMDL
MODEL 3
REMARK VINA RESULT:      -8.4      1.501      7.115
REMARK  5 active torsions:
REMARK  status: ('A' for Active; 'I' for Inactive)
REMARK    1  A    between atoms: C3_3  and  C5_5 
REMARK    2  A    between atoms: C5_5  and  O1_6 
REMARK    3  A    between atoms: C5_5  and  C6_7 
REMARK    4  A    between atoms: C7_8  and  C8_9 
REMARK    5  A    between atoms: C19_22  and  C20_23 
ROOT
HETATM    1  C8  UNL     1      26.922   4.508  49.309  1.00  0.00     0.005 C 
HETATM    2  C9  UNL     1      26.001   3.609  49.703  1.00  0.00    -0.054 C 
HETATM    3  C10 UNL     1      24.637   3.912  49.161  1.00  0.00     0.202 C 
HETATM    4  O2  UNL     1      23.716   4.119  50.109  1.00  0.00    -0.386 OA
HETATM    5  C11 UNL     1      22.415   4.417  49.846  1.00  0.00     0.176 C 
HETATM    6  C12 UNL     1      21.790   4.514  51.344  1.00  0.00     0.028 C 
HETATM    7  C13 UNL     1      22.571   5.649  51.960  1.00  0.00     0.016 C 
HETATM    8  C14 UNL     1      22.101   3.176  51.800  1.00  0.00    -0.015 C 
HETATM    9  C15 UNL     1      22.928   2.436  52.505  1.00  0.00    -0.049 C 
HETATM   10  C16 UNL     1      24.119   3.053  53.201  1.00  0.00     0.203 C 
HETATM   11  O3  UNL     1      24.995   3.316  52.151  1.00  0.00    -0.378 OA
HETATM   12  C17 UNL     1      25.967   2.442  51.896  1.00  0.00     0.149 C 
HETATM   13  C18 UNL     1      25.813   1.045  52.375  1.00  0.00     0.016 C 
HETATM   14  C19 UNL     1      25.009   0.094  52.874  1.00  0.00    -0.013 C 
HETATM   15  C22 UNL     1      23.554   0.123  52.950  1.00  0.00     0.163 C 
HETATM   16  O4  UNL     1      23.146  -0.866  53.608  1.00  0.00    -0.292 OA
HETATM   17  C23 UNL     1      22.465   1.010  52.451  1.00  0.00     0.087 C 
HETATM   18  C24 UNL     1      22.018   0.612  51.074  1.00  0.00     0.023 C 
HETATM   19  C25 UNL     1      26.518   2.518  50.513  1.00  0.00     0.072 C 
ENDROOT
BRANCH   1  20
HETATM   20  C7  UNL     1      26.672   5.656  48.457  1.00  0.00    -0.001 C 
HETATM   21  C6  UNL     1      26.500   6.868  48.950  1.00  0.00     0.009 C 
BRANCH  21  22
HETATM   22  C5  UNL     1      26.240   8.250  48.571  1.00  0.00     0.169 C 
BRANCH  22  23
HETATM   23  C3  UNL     1      24.811   8.676  48.732  1.00  0.00    -0.056 C 
HETATM   24  C2  UNL     1      23.914   8.006  49.451  1.00  0.00    -0.026 C 
HETATM   25  C1  UNL     1      22.547   8.590  49.488  1.00  0.00     0.036 C 
HETATM   26  C4  UNL     1      24.481   9.935  48.002  1.00  0.00     0.046 C 
ENDBRANCH  22  23
BRANCH  22  27
HETATM   27  O1  UNL     1      26.599   8.401  47.213  1.00  0.00    -0.387 OA
HETATM   28  H9  UNL     1      25.844   7.984  46.712  1.00  0.00     0.210 HD
ENDBRANCH  22  27
ENDBRANCH  21  22
ENDBRANCH   1  20
BRANCH  14  29
HETATM   29  C20 UNL     1      25.661  -1.109  53.406  1.00  0.00     0.037 C 
HETATM   30  C21 UNL     1      26.849  -1.584  52.624  1.00  0.00     0.010 C 
ENDBRANCH  14  29
TORSDOF 5
ENDMDL
MODEL 4
REMARK VINA RESULT:      -8.2      3.026      6.871
REMARK  5 active torsions:
REMARK  status: ('A' for Active; 'I' for Inactive)
REMARK    1  A    between atoms: C3_3  and  C5_5 
REMARK    2  A    between atoms: C5_5  and  O1_6 
REMARK    3  A    between atoms: C5_5  and  C6_7 
REMARK    4  A    between atoms: C7_8  and  C8_9 
REMARK    5  A    between atoms: C19_22  and  C20_23 
ROOT
HETATM    1  C8  UNL     1      23.694   1.645  52.681  1.00  0.00     0.005 C 
HETATM    2  C9  UNL     1      22.818   1.781  51.668  1.00  0.00    -0.054 C 
HETATM    3  C10 UNL     1      23.320   2.700  50.596  1.00  0.00     0.202 C 
HETATM    4  O2  UNL     1      22.537   3.766  50.392  1.00  0.00    -0.386 OA
HETATM    5  C11 UNL     1      22.804   4.735  49.475  1.00  0.00     0.176 C 
HETATM    6  C12 UNL     1      21.520   5.718  49.653  1.00  0.00     0.028 C 
HETATM    7  C13 UNL     1      21.643   6.174  51.085  1.00  0.00     0.016 C 
HETATM    8  C14 UNL     1      20.471   4.767  49.351  1.00  0.00    -0.015 C 
HETATM    9  C15 UNL     1      19.560   3.963  49.852  1.00  0.00    -0.049 C 
HETATM   10  C16 UNL     1      19.384   3.829  51.348  1.00  0.00     0.203 C 
HETATM   11  O3  UNL     1      20.490   3.074  51.728  1.00  0.00    -0.378 OA
HETATM   12  C17 UNL     1      20.342   1.760  51.886  1.00  0.00     0.149 C 
HETATM   13  C18 UNL     1      19.204   1.084  51.215  1.00  0.00     0.016 C 
HETATM   14  C19 UNL     1      18.221   1.143  50.304  1.00  0.00    -0.013 C 
HETATM   15  C22 UNL     1      18.047   2.147  49.262  1.00  0.00     0.163 C 
HETATM   16  O4  UNL     1      16.943   1.973  48.688  1.00  0.00    -0.292 OA
HETATM   17  C23 UNL     1      18.835   3.292  48.724  1.00  0.00     0.087 C 
HETATM   18  C24 UNL     1      19.769   2.854  47.633  1.00  0.00     0.023 C 
HETATM   19  C25 UNL     1      21.610   0.980  51.792  1.00  0.00     0.072 C 
ENDROOT
BRANCH   1  20
HETATM   20  C7  UNL     1      24.989   2.294  52.769  1.00  0.00    -0.001 C 
HETATM   21  C6  UNL     1      26.109   1.604  52.881  1.00  0.00     0.009 C 
BRANCH  21  22
HETATM   22  C5  UNL     1      27.554   1.747  52.997  1.00  0.00     0.169 C 
BRANCH  22  23
HETATM   23  C3  UNL     1      28.284   0.458  53.231  1.00  0.00    -0.056 C 
HETATM   24  C2  UNL     1      29.553   0.387  53.628  1.00  0.00    -0.026 C 
HETATM   25  C1  UNL     1      30.100  -0.985  53.805  1.00  0.00     0.036 C 
HETATM   26  C4  UNL     1      27.451  -0.753  52.975  1.00  0.00     0.046 C 
ENDBRANCH  22  23
BRANCH  22  27
HETATM   27  O1  UNL     1      27.818   2.611  54.083  1.00  0.00    -0.387 OA
HETATM   28  H9  UNL     1      28.209   3.426  53.658  1.00  0.00     0.210 HD
ENDBRANCH  22  27
ENDBRANCH  21  22
ENDBRANCH   1  20
BRANCH  14  29
HETATM   29  C20 UNL     1      17.205   0.085  50.359  1.00  0.00     0.037 C 
HETATM   30  C21 UNL     1      17.090  -0.614  51.681  1.00  0.00     0.010 C 
ENDBRANCH  14  29
TORSDOF 5
ENDMDL
MODEL 5
REMARK VINA RESULT:      -8.0      1.759      7.773
REMARK  5 active torsions:
REMARK  status: ('A' for Active; 'I' for Inactive)
REMARK    1  A    between atoms: C3_3  and  C5_5 
REMARK    2  A    between atoms: C5_5  and  O1_6 
REMARK    3  A    between atoms: C5_5  and  C6_7 
REMARK    4  A    between atoms: C7_8  and  C8_9 
REMARK    5  A    between atoms: C19_22  and  C20_23 
ROOT
HETATM    1  C8  UNL     1      26.621   3.892  49.577  1.00  0.00     0.005 C 
HETATM    2  C9  UNL     1      25.337   3.552  49.797  1.00  0.00    -0.054 C 
HETATM    3  C10 UNL     1      24.392   4.249  48.865  1.00  0.00     0.202 C 
HETATM    4  O2  UNL     1      23.489   5.014  49.490  1.00  0.00    -0.386 OA
HETATM    5  C11 UNL     1      22.541   5.744  48.843  1.00  0.00     0.176 C 
HETATM    6  C12 UNL     1      21.736   6.414  50.087  1.00  0.00     0.028 C 
HETATM    7  C13 UNL     1      22.798   7.244  50.765  1.00  0.00     0.016 C 
HETATM    8  C14 UNL     1      21.319   5.201  50.759  1.00  0.00    -0.015 C 
HETATM    9  C15 UNL     1      21.567   4.367  51.744  1.00  0.00    -0.049 C 
HETATM   10  C16 UNL     1      22.740   4.592  52.671  1.00  0.00     0.203 C 
HETATM   11  O3  UNL     1      23.834   4.239  51.885  1.00  0.00    -0.378 OA
HETATM   12  C17 UNL     1      24.343   3.015  52.010  1.00  0.00     0.149 C 
HETATM   13  C18 UNL     1      23.490   1.943  52.580  1.00  0.00     0.016 C 
HETATM   14  C19 UNL     1      22.264   1.532  52.939  1.00  0.00    -0.013 C 
HETATM   15  C22 UNL     1      20.993   2.160  52.603  1.00  0.00     0.163 C 
HETATM   16  O4  UNL     1      20.063   1.592  53.228  1.00  0.00    -0.292 OA
HETATM   17  C23 UNL     1      20.539   3.275  51.724  1.00  0.00     0.087 C 
HETATM   18  C24 UNL     1      20.250   2.796  50.331  1.00  0.00     0.023 C 
HETATM   19  C25 UNL     1      25.138   2.554  50.836  1.00  0.00     0.072 C 
ENDROOT
BRANCH   1  20
HETATM   20  C7  UNL     1      27.086   4.823  48.566  1.00  0.00    -0.001 C 
HETATM   21  C6  UNL     1      27.911   5.812  48.853  1.00  0.00     0.009 C 
BRANCH  21  22
HETATM   22  C5  UNL     1      28.625   6.936  48.265  1.00  0.00     0.169 C 
BRANCH  22  23
HETATM   23  C3  UNL     1      29.921   6.568  47.607  1.00  0.00    -0.056 C 
HETATM   24  C2  UNL     1      30.617   5.471  47.900  1.00  0.00    -0.026 C 
HETATM   25  C1  UNL     1      31.879   5.282  47.137  1.00  0.00     0.036 C 
HETATM   26  C4  UNL     1      30.369   7.555  46.581  1.00  0.00     0.046 C 
ENDBRANCH  22  23
BRANCH  22  27
HETATM   27  O1  UNL     1      28.898   7.863  49.296  1.00  0.00    -0.387 OA
HETATM   28  H9  UNL     1      29.778   7.569  49.663  1.00  0.00     0.210 HD
ENDBRANCH  22  27
ENDBRANCH  21  22
ENDBRANCH   1  20
BRANCH  14  29
HETATM   29  C20 UNL     1      22.189   0.320  53.763  1.00  0.00     0.037 C 
HETATM   30  C21 UNL     1      22.510  -0.956  53.044  1.00  0.00     0.010 C 
ENDBRANCH  14  29
TORSDOF 5
ENDMDL
MODEL 6
REMARK VINA RESULT:      -7.8      3.000      5.349
REMARK  5 active torsions:
REMARK  status: ('A' for Active; 'I' for Inactive)
REMARK    1  A    between atoms: C3_3  and  C5_5 
REMARK    2  A    between atoms: C5_5  and  O1_6 
REMARK    3  A    between atoms: C5_5  and  C6_7 
REMARK    4  A    between atoms: C7_8  and  C8_9 
REMARK    5  A    between atoms: C19_22  and  C20_23 
ROOT
HETATM    1  C8  UNL     1      25.313   2.553  51.112  1.00  0.00     0.005 C 
HETATM    2  C9  UNL     1      24.104   3.023  50.751  1.00  0.00    -0.054 C 
HETATM    3  C10 UNL     1      23.140   3.065  51.898  1.00  0.00     0.202 C 
HETATM    4  O2  UNL     1      22.048   2.315  51.709  1.00  0.00    -0.386 OA
HETATM    5  C11 UNL     1      21.046   2.197  52.621  1.00  0.00     0.176 C 
HETATM    6  C12 UNL     1      20.006   1.218  51.843  1.00  0.00     0.028 C 
HETATM    7  C13 UNL     1      20.814  -0.041  51.648  1.00  0.00     0.016 C 
HETATM    8  C14 UNL     1      19.767   2.037  50.672  1.00  0.00    -0.015 C 
HETATM    9  C15 UNL     1      20.073   2.238  49.410  1.00  0.00    -0.049 C 
HETATM   10  C16 UNL     1      21.081   1.358  48.707  1.00  0.00     0.203 C 
HETATM   11  O3  UNL     1      22.295   1.788  49.236  1.00  0.00    -0.378 OA
HETATM   12  C17 UNL     1      23.017   2.668  48.545  1.00  0.00     0.149 C 
HETATM   13  C18 UNL     1      22.336   3.508  47.528  1.00  0.00     0.016 C 
HETATM   14  C19 UNL     1      21.183   3.960  47.012  1.00  0.00    -0.013 C 
HETATM   15  C22 UNL     1      19.855   3.856  47.601  1.00  0.00     0.163 C 
HETATM   16  O4  UNL     1      18.994   4.255  46.776  1.00  0.00    -0.292 OA
HETATM   17  C23 UNL     1      19.283   3.408  48.902  1.00  0.00     0.087 C 
HETATM   18  C24 UNL     1      19.234   4.531  49.898  1.00  0.00     0.023 C 
HETATM   19  C25 UNL     1      24.000   3.437  49.361  1.00  0.00     0.072 C 
ENDROOT
BRANCH   1  20
HETATM   20  C7  UNL     1      25.688   2.125  52.447  1.00  0.00    -0.001 C 
HETATM   21  C6  UNL     1      26.878   1.618  52.710  1.00  0.00     0.009 C 
BRANCH  21  22
HETATM   22  C5  UNL     1      27.698   1.076  53.784  1.00  0.00     0.169 C 
BRANCH  22  23
HETATM   23  C3  UNL     1      28.219  -0.306  53.527  1.00  0.00    -0.056 C 
HETATM   24  C2  UNL     1      29.468  -0.687  53.783  1.00  0.00    -0.026 C 
HETATM   25  C1  UNL     1      29.793  -2.102  53.458  1.00  0.00     0.036 C 
HETATM   26  C4  UNL     1      27.198  -1.229  52.950  1.00  0.00     0.046 C 
ENDBRANCH  22  23
BRANCH  22  27
HETATM   27  O1  UNL     1      26.909   1.043  54.956  1.00  0.00    -0.387 OA
HETATM   28  H9  UNL     1      26.440   1.924  54.961  1.00  0.00     0.210 HD
ENDBRANCH  22  27
ENDBRANCH  21  22
ENDBRANCH   1  20
BRANCH  14  29
HETATM   29  C20 UNL     1      21.263   4.632  45.709  1.00  0.00     0.037 C 
HETATM   30  C21 UNL     1      22.245   5.763  45.638  1.00  0.00     0.010 C 
ENDBRANCH  14  29
TORSDOF 5
ENDMDL
MODEL 7
REMARK VINA RESULT:      -7.7      2.857      4.415
REMARK  5 active torsions:
REMARK  status: ('A' for Active; 'I' for Inactive)
REMARK    1  A    between atoms: C3_3  and  C5_5 
REMARK    2  A    between atoms: C5_5  and  O1_6 
REMARK    3  A    between atoms: C5_5  and  C6_7 
REMARK    4  A    between atoms: C7_8  and  C8_9 
REMARK    5  A    between atoms: C19_22  and  C20_23 
ROOT
HETATM    1  C8  UNL     1      20.706  -0.327  53.404  1.00  0.00     0.005 C 
HETATM    2  C9  UNL     1      21.308   0.826  53.054  1.00  0.00    -0.054 C 
HETATM    3  C10 UNL     1      20.351   1.978  53.000  1.00  0.00     0.202 C 
HETATM    4  O2  UNL     1      20.271   2.554  51.795  1.00  0.00    -0.386 OA
HETATM    5  C11 UNL     1      19.460   3.609  51.515  1.00  0.00     0.176 C 
HETATM    6  C12 UNL     1      19.811   3.887  49.952  1.00  0.00     0.028 C 
HETATM    7  C13 UNL     1      19.401   2.600  49.282  1.00  0.00     0.016 C 
HETATM    8  C14 UNL     1      21.232   4.138  50.085  1.00  0.00    -0.015 C 
HETATM    9  C15 UNL     1      22.437   3.629  49.967  1.00  0.00    -0.049 C 
HETATM   10  C16 UNL     1      22.634   2.197  49.526  1.00  0.00     0.203 C 
HETATM   11  O3  UNL     1      22.263   1.468  50.653  1.00  0.00    -0.378 OA
HETATM   12  C17 UNL     1      23.217   1.038  51.477  1.00  0.00     0.149 C 
HETATM   13  C18 UNL     1      24.535   1.721  51.462  1.00  0.00     0.016 C 
HETATM   14  C19 UNL     1      25.266   2.777  51.073  1.00  0.00    -0.013 C 
HETATM   15  C22 UNL     1      24.773   4.036  50.531  1.00  0.00     0.163 C 
HETATM   16  O4  UNL     1      25.741   4.736  50.140  1.00  0.00    -0.292 OA
HETATM   17  C23 UNL     1      23.443   4.680  50.334  1.00  0.00     0.087 C 
HETATM   18  C24 UNL     1      23.025   5.463  51.546  1.00  0.00     0.023 C 
HETATM   19  C25 UNL     1      22.746   0.730  52.858  1.00  0.00     0.072 C 
ENDROOT
BRANCH   1  20
HETATM   20  C7  UNL     1      19.296  -0.485  53.704  1.00  0.00    -0.001 C 
HETATM   21  C6  UNL     1      18.419  -0.833  52.780  1.00  0.00     0.009 C 
BRANCH  21  22
HETATM   22  C5  UNL     1      17.005  -1.106  52.565  1.00  0.00     0.169 C 
BRANCH  22  23
HETATM   23  C3  UNL     1      16.604  -2.527  52.830  1.00  0.00    -0.056 C 
HETATM   24  C2  UNL     1      17.320  -3.375  53.565  1.00  0.00    -0.026 C 
HETATM   25  C1  UNL     1      16.754  -4.742  53.711  1.00  0.00     0.036 C 
HETATM   26  C4  UNL     1      15.313  -2.910  52.188  1.00  0.00     0.046 C 
ENDBRANCH  22  23
BRANCH  22  27
HETATM   27  O1  UNL     1      16.706  -0.804  51.218  1.00  0.00    -0.387 OA
HETATM   28  H9  UNL     1      16.948   0.160  51.124  1.00  0.00     0.210 HD
ENDBRANCH  22  27
ENDBRANCH  21  22
ENDBRANCH   1  20
BRANCH  14  29
HETATM   29  C20 UNL     1      26.723   2.654  51.204  1.00  0.00     0.037 C 
HETATM   30  C21 UNL     1      27.186   1.756  52.311  1.00  0.00     0.010 C 
ENDBRANCH  14  29
TORSDOF 5
ENDMDL
MODEL 8
REMARK VINA RESULT:      -7.7      2.708      5.613
REMARK  5 active torsions:
REMARK  status: ('A' for Active; 'I' for Inactive)
REMARK    1  A    between atoms: C3_3  and  C5_5 
REMARK    2  A    between atoms: C5_5  and  O1_6 
REMARK    3  A    between atoms: C5_5  and  C6_7 
REMARK    4  A    between atoms: C7_8  and  C8_9 
REMARK    5  A    between atoms: C19_22  and  C20_23 
ROOT
HETATM    1  C8  UNL     1      25.440   3.326  49.638  1.00  0.00     0.005 C 
HETATM    2  C9  UNL     1      24.108   3.452  49.792  1.00  0.00    -0.054 C 
HETATM    3  C10 UNL     1      23.697   3.470  51.233  1.00  0.00     0.202 C 
HETATM    4  O2  UNL     1      22.863   2.478  51.567  1.00  0.00    -0.386 OA
HETATM    5  C11 UNL     1      22.370   2.295  52.821  1.00  0.00     0.176 C 
HETATM    6  C12 UNL     1      21.413   0.997  52.612  1.00  0.00     0.028 C 
HETATM    7  C13 UNL     1      22.385  -0.068  52.170  1.00  0.00     0.016 C 
HETATM    8  C14 UNL     1      20.524   1.538  51.604  1.00  0.00    -0.015 C 
HETATM    9  C15 UNL     1      20.245   1.590  50.321  1.00  0.00    -0.049 C 
HETATM   10  C16 UNL     1      21.094   0.849  49.313  1.00  0.00     0.203 C 
HETATM   11  O3  UNL     1      22.254   1.617  49.255  1.00  0.00    -0.378 OA
HETATM   12  C17 UNL     1      22.383   2.508  48.274  1.00  0.00     0.149 C 
HETATM   13  C18 UNL     1      21.160   2.998  47.590  1.00  0.00     0.016 C 
HETATM   14  C19 UNL     1      19.821   3.094  47.581  1.00  0.00    -0.013 C 
HETATM   15  C22 UNL     1      18.911   2.799  48.679  1.00  0.00     0.163 C 
HETATM   16  O4  UNL     1      17.724   2.858  48.271  1.00  0.00    -0.292 OA
HETATM   17  C23 UNL     1      19.037   2.458  50.124  1.00  0.00     0.087 C 
HETATM   18  C24 UNL     1      19.082   3.691  50.980  1.00  0.00     0.023 C 
HETATM   19  C25 UNL     1      23.361   3.598  48.553  1.00  0.00     0.072 C 
ENDROOT
BRANCH   1  20
HETATM   20  C7  UNL     1      26.407   3.217  50.715  1.00  0.00    -0.001 C 
HETATM   21  C6  UNL     1      26.580   2.094  51.387  1.00  0.00     0.009 C 
BRANCH  21  22
HETATM   22  C5  UNL     1      27.350   1.495  52.468  1.00  0.00     0.169 C 
BRANCH  22  23
HETATM   23  C3  UNL     1      26.670   0.342  53.145  1.00  0.00    -0.056 C 
HETATM   24  C2  UNL     1      25.679   0.477  54.023  1.00  0.00    -0.026 C 
HETATM   25  C1  UNL     1      25.134  -0.788  54.585  1.00  0.00     0.036 C 
HETATM   26  C4  UNL     1      27.212  -0.989  52.742  1.00  0.00     0.046 C 
ENDBRANCH  22  23
BRANCH  22  27
HETATM   27  O1  UNL     1      27.592   2.497  53.434  1.00  0.00    -0.387 OA
HETATM   28  H9  UNL     1      26.774   3.067  53.406  1.00  0.00     0.210 HD
ENDBRANCH  22  27
ENDBRANCH  21  22
ENDBRANCH   1  20
BRANCH  14  29
HETATM   29  C20 UNL     1      19.201   3.543  46.328  1.00  0.00     0.037 C 
HETATM   30  C21 UNL     1      20.161   3.835  45.214  1.00  0.00     0.010 C 
ENDBRANCH  14  29
TORSDOF 5
ENDMDL
MODEL 9
REMARK VINA RESULT:      -7.6      2.950      6.389
REMARK  5 active torsions:
REMARK  status: ('A' for Active; 'I' for Inactive)
REMARK    1  A    between atoms: C3_3  and  C5_5 
REMARK    2  A    between atoms: C5_5  and  O1_6 
REMARK    3  A    between atoms: C5_5  and  C6_7 
REMARK    4  A    between atoms: C7_8  and  C8_9 
REMARK    5  A    between atoms: C19_22  and  C20_23 
ROOT
HETATM    1  C8  UNL     1      22.905  -0.321  53.584  1.00  0.00     0.005 C 
HETATM    2  C9  UNL     1      22.441   0.275  52.470  1.00  0.00    -0.054 C 
HETATM    3  C10 UNL     1      23.503   1.049  51.749  1.00  0.00     0.202 C 
HETATM    4  O2  UNL     1      23.231   2.353  51.631  1.00  0.00    -0.386 OA
HETATM    5  C11 UNL     1      24.058   3.245  51.021  1.00  0.00     0.176 C 
HETATM    6  C12 UNL     1      23.204   4.624  51.148  1.00  0.00     0.028 C 
HETATM    7  C13 UNL     1      23.087   4.810  52.640  1.00  0.00     0.016 C 
HETATM    8  C14 UNL     1      22.010   4.210  50.439  1.00  0.00    -0.015 C 
HETATM    9  C15 UNL     1      20.777   3.774  50.558  1.00  0.00    -0.049 C 
HETATM   10  C16 UNL     1      20.168   3.534  51.920  1.00  0.00     0.203 C 
HETATM   11  O3  UNL     1      20.792   2.362  52.341  1.00  0.00    -0.378 OA
HETATM   12  C17 UNL     1      20.155   1.204  52.174  1.00  0.00     0.149 C 
HETATM   13  C18 UNL     1      19.078   1.122  51.156  1.00  0.00     0.016 C 
HETATM   14  C19 UNL     1      18.464   1.678  50.100  1.00  0.00    -0.013 C 
HETATM   15  C22 UNL     1      18.942   2.791  49.291  1.00  0.00     0.163 C 
HETATM   16  O4  UNL     1      18.045   3.141  48.483  1.00  0.00    -0.292 OA
HETATM   17  C23 UNL     1      20.195   3.591  49.187  1.00  0.00     0.087 C 
HETATM   18  C24 UNL     1      21.174   2.961  48.238  1.00  0.00     0.023 C 
HETATM   19  C25 UNL     1      21.043   0.006  52.169  1.00  0.00     0.072 C 
ENDROOT
BRANCH   1  20
HETATM   20  C7  UNL     1      24.270  -0.253  54.071  1.00  0.00    -0.001 C 
HETATM   21  C6  UNL     1      25.272  -0.822  53.426  1.00  0.00     0.009 C 
BRANCH  21  22
HETATM   22  C5  UNL     1      26.711  -1.038  53.475  1.00  0.00     0.169 C 
BRANCH  22  23
HETATM   23  C3  UNL     1      27.527   0.218  53.405  1.00  0.00    -0.056 C 
HETATM   24  C2  UNL     1      28.473   0.537  54.285  1.00  0.00    -0.026 C 
HETATM   25  C1  UNL     1      29.172   1.828  54.044  1.00  0.00     0.036 C 
HETATM   26  C4  UNL     1      27.177   1.091  52.247  1.00  0.00     0.046 C 
ENDBRANCH  22  23
BRANCH  22  27
HETATM   27  O1  UNL     1      27.062  -1.858  52.379  1.00  0.00    -0.387 OA
HETATM   28  H9  UNL     1      27.317  -1.212  51.662  1.00  0.00     0.210 HD
ENDBRANCH  22  27
ENDBRANCH  21  22
ENDBRANCH   1  20
BRANCH  14  29
HETATM   29  C20 UNL     1      17.167   1.108  49.717  1.00  0.00     0.037 C 
HETATM   30  C21 UNL     1      16.965  -0.327  50.104  1.00  0.00     0.010 C 
ENDBRANCH  14  29
TORSDOF 5
ENDMDL
