MODEL 1
REMARK VINA RESULT:      -6.8      0.000      0.000
REMARK  7 active torsions:
REMARK  status: ('A' for Active; 'I' for Inactive)
REMARK    1  A    between atoms: N1_1  and  C1_2 
REMARK    2  A    between atoms: C1_2  and  C2_3 
REMARK    3  A    between atoms: C5_9  and  C6_10 
REMARK    4  A    between atoms: C6_10  and  C7_11 
REMARK    5  A    between atoms: C8_12  and  C9_14 
REMARK    6  A    between atoms: C14_21  and  N5_22 
REMARK    7  A    between atoms: N5_22  and  C15_23 
ROOT
HETATM    1  C2  UNL     1      25.909  -0.312  54.264  1.00  0.00     0.184 C 
HETATM    2  O1  UNL     1      25.020   0.730  53.911  1.00  0.00    -0.323 OA
HETATM    3  C3  UNL     1      23.924   0.600  53.096  1.00  0.00     0.195 A 
HETATM    4  N2  UNL     1      23.036  -0.354  53.425  1.00  0.00    -0.216 NA
HETATM    5  C4  UNL     1      21.937  -0.544  52.676  1.00  0.00     0.236 A 
HETATM    6  N3  UNL     1      21.722   0.216  51.600  1.00  0.00    -0.244 NA
HETATM    7  C5  UNL     1      22.582   1.198  51.213  1.00  0.00     0.070 A 
HETATM    8  C10 UNL     1      23.727   1.398  51.991  1.00  0.00     0.107 A 
HETATM    9  N4  UNL     1      24.666   2.405  51.638  1.00  0.00    -0.381 N 
HETATM   10  C11 UNL     1      26.051   2.363  52.069  1.00  0.00     0.147 C 
HETATM   11  C12 UNL     1      26.622   1.104  51.559  1.00  0.00    -0.009 C 
HETATM   12  C13 UNL     1      27.155   0.092  52.236  1.00  0.00    -0.002 C 
HETATM   13  C14 UNL     1      27.266   0.080  53.722  1.00  0.00     0.138 C 
HETATM   14  H12 UNL     1      24.281   3.174  51.046  1.00  0.00     0.160 HD
ENDROOT
BRANCH   7  15
HETATM   15  C6  UNL     1      22.315   2.042  49.994  1.00  0.00     0.090 C 
BRANCH  15  16
HETATM   16  C7  UNL     1      21.375   3.119  50.343  1.00  0.00     0.001 C 
HETATM   17  C8  UNL     1      21.692   4.384  50.094  1.00  0.00     0.036 C 
HETATM   18 CL1  UNL     1      23.252   4.672  49.347  1.00  0.00    -0.087 Cl
BRANCH  17  19
HETATM   19  C9  UNL     1      20.977   5.659  50.322  1.00  0.00     0.273 C 
HETATM   20  F1  UNL     1      21.479   6.371  51.391  1.00  0.00    -0.250 F 
ENDBRANCH  17  19
ENDBRANCH  15  16
ENDBRANCH   7  15
BRANCH   1  21
HETATM   21  C1  UNL     1      25.954  -0.533  55.765  1.00  0.00     0.301 C 
BRANCH  21  22
HETATM   22  N1  UNL     1      24.889  -1.389  56.227  1.00  0.00     0.080 N 
HETATM   23  H1  UNL     1      25.228  -2.227  56.739  1.00  0.00     0.312 HD
HETATM   24  H2  UNL     1      24.165  -1.601  55.511  1.00  0.00     0.312 HD
ENDBRANCH  21  22
ENDBRANCH   1  21
BRANCH  13  25
HETATM   25  N5  UNL     1      28.277  -0.916  54.030  1.00  0.00    -0.358 N 
HETATM   26  H18 UNL     1      28.754  -0.868  54.951  1.00  0.00     0.162 HD
BRANCH  25  27
HETATM   27  C15 UNL     1      28.639  -1.951  53.122  1.00  0.00     0.349 C 
HETATM   28  O2  UNL     1      28.702  -3.164  53.486  1.00  0.00    -0.284 OA
ENDBRANCH  25  27
ENDBRANCH  13  25
TORSDOF 7
ENDMDL
MODEL 2
REMARK VINA RESULT:      -6.7      2.009      2.364
REMARK  7 active torsions:
REMARK  status: ('A' for Active; 'I' for Inactive)
REMARK    1  A    between atoms: N1_1  and  C1_2 
REMARK    2  A    between atoms: C1_2  and  C2_3 
REMARK    3  A    between atoms: C5_9  and  C6_10 
REMARK    4  A    between atoms: C6_10  and  C7_11 
REMARK    5  A    between atoms: C8_12  and  C9_14 
REMARK    6  A    between atoms: C14_21  and  N5_22 
REMARK    7  A    between atoms: N5_22  and  C15_23 
ROOT
HETATM    1  C2  UNL     1      24.675  -0.276  53.219  1.00  0.00     0.184 C 
HETATM    2  O1  UNL     1      24.374   1.085  52.982  1.00  0.00    -0.323 OA
HETATM    3  C3  UNL     1      23.750   1.580  51.864  1.00  0.00     0.195 A 
HETATM    4  N2  UNL     1      22.571   1.026  51.535  1.00  0.00    -0.216 NA
HETATM    5  C4  UNL     1      21.898   1.455  50.454  1.00  0.00     0.236 A 
HETATM    6  N3  UNL     1      22.400   2.436  49.701  1.00  0.00    -0.244 NA
HETATM    7  C5  UNL     1      23.590   3.038  49.979  1.00  0.00     0.070 A 
HETATM    8  C10 UNL     1      24.291   2.593  51.105  1.00  0.00     0.107 A 
HETATM    9  N4  UNL     1      25.541   3.178  51.447  1.00  0.00    -0.381 N 
HETATM   10  C11 UNL     1      26.526   2.490  52.260  1.00  0.00     0.147 C 
HETATM   11  C12 UNL     1      26.863   1.238  51.559  1.00  0.00    -0.009 C 
HETATM   12  C13 UNL     1      26.730  -0.016  51.977  1.00  0.00    -0.002 C 
HETATM   13  C14 UNL     1      26.182  -0.371  53.317  1.00  0.00     0.138 C 
HETATM   14  H12 UNL     1      25.692   4.139  51.068  1.00  0.00     0.160 HD
ENDROOT
BRANCH   7  15
HETATM   15  C6  UNL     1      24.133   4.144  49.113  1.00  0.00     0.090 C 
BRANCH  15  16
HETATM   16  C7  UNL     1      23.845   5.443  49.741  1.00  0.00     0.001 C 
HETATM   17  C8  UNL     1      24.792   6.371  49.811  1.00  0.00     0.036 C 
HETATM   18 CL1  UNL     1      26.352   5.957  49.126  1.00  0.00    -0.087 Cl
BRANCH  17  19
HETATM   19  C9  UNL     1      24.810   7.742  50.367  1.00  0.00     0.273 C 
HETATM   20  F1  UNL     1      23.665   8.050  51.071  1.00  0.00    -0.250 F 
ENDBRANCH  17  19
ENDBRANCH  15  16
ENDBRANCH   7  15
BRANCH   1  21
HETATM   21  C1  UNL     1      24.004  -0.793  54.478  1.00  0.00     0.301 C 
BRANCH  21  22
HETATM   22  N1  UNL     1      22.566  -0.801  54.371  1.00  0.00     0.080 N 
HETATM   23  H1  UNL     1      22.120  -1.599  54.866  1.00  0.00     0.312 HD
HETATM   24  H2  UNL     1      22.204  -0.652  53.406  1.00  0.00     0.312 HD
ENDBRANCH  21  22
ENDBRANCH   1  21
BRANCH  13  25
HETATM   25  N5  UNL     1      26.621  -1.732  53.570  1.00  0.00    -0.358 N 
HETATM   26  H18 UNL     1      26.226  -2.235  54.389  1.00  0.00     0.162 HD
BRANCH  25  27
HETATM   27  C15 UNL     1      27.567  -2.402  52.743  1.00  0.00     0.349 C 
HETATM   28  O2  UNL     1      28.561  -3.018  53.233  1.00  0.00    -0.284 OA
ENDBRANCH  25  27
ENDBRANCH  13  25
TORSDOF 7
ENDMDL
MODEL 3
REMARK VINA RESULT:      -6.6      3.928      6.994
REMARK  7 active torsions:
REMARK  status: ('A' for Active; 'I' for Inactive)
REMARK    1  A    between atoms: N1_1  and  C1_2 
REMARK    2  A    between atoms: C1_2  and  C2_3 
REMARK    3  A    between atoms: C5_9  and  C6_10 
REMARK    4  A    between atoms: C6_10  and  C7_11 
REMARK    5  A    between atoms: C8_12  and  C9_14 
REMARK    6  A    between atoms: C14_21  and  N5_22 
REMARK    7  A    between atoms: N5_22  and  C15_23 
ROOT
HETATM    1  C2  UNL     1      21.172   3.759  52.003  1.00  0.00     0.184 C 
HETATM    2  O1  UNL     1      21.630   2.463  51.670  1.00  0.00    -0.323 OA
HETATM    3  C3  UNL     1      21.897   1.458  52.565  1.00  0.00     0.195 A 
HETATM    4  N2  UNL     1      20.914   1.137  53.424  1.00  0.00    -0.216 NA
HETATM    5  C4  UNL     1      21.098   0.164  54.332  1.00  0.00     0.236 A 
HETATM    6  N3  UNL     1      22.260  -0.490  54.384  1.00  0.00    -0.244 NA
HETATM    7  C5  UNL     1      23.295  -0.214  53.543  1.00  0.00     0.070 A 
HETATM    8  C10 UNL     1      23.106   0.799  52.597  1.00  0.00     0.107 A 
HETATM    9  N4  UNL     1      24.149   1.139  51.693  1.00  0.00    -0.381 N 
HETATM   10  C11 UNL     1      24.224   2.433  51.042  1.00  0.00     0.147 C 
HETATM   11  C12 UNL     1      24.291   3.447  52.109  1.00  0.00    -0.009 C 
HETATM   12  C13 UNL     1      23.458   4.452  52.362  1.00  0.00    -0.002 C 
HETATM   13  C14 UNL     1      22.243   4.724  51.542  1.00  0.00     0.138 C 
HETATM   14  H12 UNL     1      24.853   0.384  51.535  1.00  0.00     0.160 HD
ENDROOT
BRANCH   7  15
HETATM   15  C6  UNL     1      24.597  -0.968  53.622  1.00  0.00     0.090 C 
BRANCH  15  16
HETATM   16  C7  UNL     1      25.540  -0.225  54.472  1.00  0.00     0.001 C 
HETATM   17  C8  UNL     1      26.817  -0.128  54.119  1.00  0.00     0.036 C 
HETATM   18 CL1  UNL     1      27.282  -0.918  52.625  1.00  0.00    -0.087 Cl
BRANCH  17  19
HETATM   19  C9  UNL     1      27.981   0.535  54.747  1.00  0.00     0.273 C 
HETATM   20  F1  UNL     1      29.055  -0.315  54.915  1.00  0.00    -0.250 F 
ENDBRANCH  17  19
ENDBRANCH  15  16
ENDBRANCH   7  15
BRANCH   1  21
HETATM   21  C1  UNL     1      19.834   4.069  51.360  1.00  0.00     0.301 C 
BRANCH  21  22
HETATM   22  N1  UNL     1      18.825   3.094  51.693  1.00  0.00     0.080 N 
HETATM   23  H1  UNL     1      17.856   3.466  51.634  1.00  0.00     0.312 HD
HETATM   24  H2  UNL     1      19.014   2.559  52.565  1.00  0.00     0.312 HD
ENDBRANCH  21  22
ENDBRANCH   1  21
BRANCH  13  25
HETATM   25  N5  UNL     1      21.884   6.102  51.824  1.00  0.00    -0.358 N 
HETATM   26  H18 UNL     1      21.586   6.349  52.788  1.00  0.00     0.162 HD
BRANCH  25  27
HETATM   27  C15 UNL     1      21.925   7.126  50.835  1.00  0.00     0.349 C 
HETATM   28  O2  UNL     1      20.870   7.697  50.424  1.00  0.00    -0.284 OA
ENDBRANCH  25  27
ENDBRANCH  13  25
TORSDOF 7
ENDMDL
MODEL 4
REMARK VINA RESULT:      -6.5      3.739      5.551
REMARK  7 active torsions:
REMARK  status: ('A' for Active; 'I' for Inactive)
REMARK    1  A    between atoms: N1_1  and  C1_2 
REMARK    2  A    between atoms: C1_2  and  C2_3 
REMARK    3  A    between atoms: C5_9  and  C6_10 
REMARK    4  A    between atoms: C6_10  and  C7_11 
REMARK    5  A    between atoms: C8_12  and  C9_14 
REMARK    6  A    between atoms: C14_21  and  N5_22 
REMARK    7  A    between atoms: N5_22  and  C15_23 
ROOT
HETATM    1  C2  UNL     1      21.557   1.746  52.267  1.00  0.00     0.184 C 
HETATM    2  O1  UNL     1      22.297   2.945  52.149  1.00  0.00    -0.323 OA
HETATM    3  C3  UNL     1      22.867   3.419  50.993  1.00  0.00     0.195 A 
HETATM    4  N2  UNL     1      22.056   3.546  49.929  1.00  0.00    -0.216 NA
HETATM    5  C4  UNL     1      22.538   4.003  48.761  1.00  0.00     0.236 A 
HETATM    6  N3  UNL     1      23.827   4.333  48.653  1.00  0.00    -0.244 NA
HETATM    7  C5  UNL     1      24.700   4.227  49.693  1.00  0.00     0.070 A 
HETATM    8  C10 UNL     1      24.200   3.752  50.910  1.00  0.00     0.107 A 
HETATM    9  N4  UNL     1      25.061   3.614  52.033  1.00  0.00    -0.381 N 
HETATM   10  C11 UNL     1      24.768   2.715  53.133  1.00  0.00     0.147 C 
HETATM   11  C12 UNL     1      24.655   1.361  52.562  1.00  0.00    -0.009 C 
HETATM   12  C13 UNL     1      23.619   0.528  52.581  1.00  0.00    -0.002 C 
HETATM   13  C14 UNL     1      22.321   0.864  53.231  1.00  0.00     0.138 C 
HETATM   14  H12 UNL     1      25.917   4.211  52.003  1.00  0.00     0.160 HD
ENDROOT
BRANCH   7  15
HETATM   15  C6  UNL     1      26.150   4.607  49.545  1.00  0.00     0.090 C 
BRANCH  15  16
HETATM   16  C7  UNL     1      26.244   5.958  48.970  1.00  0.00     0.001 C 
HETATM   17  C8  UNL     1      27.364   6.350  48.375  1.00  0.00     0.036 C 
HETATM   18 CL1  UNL     1      28.676   5.188  48.324  1.00  0.00    -0.087 Cl
BRANCH  17  19
HETATM   19  C9  UNL     1      27.758   7.615  47.716  1.00  0.00     0.273 C 
HETATM   20  F1  UNL     1      28.406   7.414  46.515  1.00  0.00    -0.250 F 
ENDBRANCH  17  19
ENDBRANCH  15  16
ENDBRANCH   7  15
BRANCH   1  21
HETATM   21  C1  UNL     1      20.142   2.000  52.751  1.00  0.00     0.301 C 
BRANCH  21  22
HETATM   22  N1  UNL     1      19.429   2.926  51.905  1.00  0.00     0.080 N 
HETATM   23  H1  UNL     1      18.398   2.885  52.027  1.00  0.00     0.312 HD
HETATM   24  H2  UNL     1      19.734   2.924  50.911  1.00  0.00     0.312 HD
ENDBRANCH  21  22
ENDBRANCH   1  21
BRANCH  13  25
HETATM   25  N5  UNL     1      21.652  -0.407  53.445  1.00  0.00    -0.358 N 
HETATM   26  H18 UNL     1      21.311  -0.932  52.615  1.00  0.00     0.162 HD
BRANCH  25  27
HETATM   27  C15 UNL     1      21.444  -0.960  54.740  1.00  0.00     0.349 C 
HETATM   28  O2  UNL     1      22.124  -1.945  55.160  1.00  0.00    -0.284 OA
ENDBRANCH  25  27
ENDBRANCH  13  25
TORSDOF 7
ENDMDL
MODEL 5
REMARK VINA RESULT:      -6.5      3.507      4.967
REMARK  7 active torsions:
REMARK  status: ('A' for Active; 'I' for Inactive)
REMARK    1  A    between atoms: N1_1  and  C1_2 
REMARK    2  A    between atoms: C1_2  and  C2_3 
REMARK    3  A    between atoms: C5_9  and  C6_10 
REMARK    4  A    between atoms: C6_10  and  C7_11 
REMARK    5  A    between atoms: C8_12  and  C9_14 
REMARK    6  A    between atoms: C14_21  and  N5_22 
REMARK    7  A    between atoms: N5_22  and  C15_23 
ROOT
HETATM    1  C2  UNL     1      25.723   2.431  51.997  1.00  0.00     0.184 C 
HETATM    2  O1  UNL     1      24.765   1.483  51.568  1.00  0.00    -0.323 OA
HETATM    3  C3  UNL     1      23.405   1.600  51.718  1.00  0.00     0.195 A 
HETATM    4  N2  UNL     1      22.841   2.724  51.244  1.00  0.00    -0.216 NA
HETATM    5  C4  UNL     1      21.515   2.915  51.353  1.00  0.00     0.236 A 
HETATM    6  N3  UNL     1      20.752   1.986  51.933  1.00  0.00    -0.244 NA
HETATM    7  C5  UNL     1      21.262   0.826  52.433  1.00  0.00     0.070 A 
HETATM    8  C10 UNL     1      22.642   0.626  52.320  1.00  0.00     0.107 A 
HETATM    9  N4  UNL     1      23.237  -0.562  52.826  1.00  0.00    -0.381 N 
HETATM   10  C11 UNL     1      24.641  -0.639  53.183  1.00  0.00     0.147 C 
HETATM   11  C12 UNL     1      24.877   0.384  54.218  1.00  0.00    -0.009 C 
HETATM   12  C13 UNL     1      25.704   1.424  54.192  1.00  0.00    -0.002 C 
HETATM   13  C14 UNL     1      26.583   1.733  53.029  1.00  0.00     0.138 C 
HETATM   14  H12 UNL     1      22.584  -1.372  52.919  1.00  0.00     0.160 HD
ENDROOT
BRANCH   7  15
HETATM   15  C6  UNL     1      20.379  -0.206  53.082  1.00  0.00     0.090 C 
BRANCH  15  16
HETATM   16  C7  UNL     1      19.021  -0.108  52.524  1.00  0.00     0.001 C 
HETATM   17  C8  UNL     1      18.111  -1.026  52.823  1.00  0.00     0.036 C 
HETATM   18 CL1  UNL     1      18.621  -2.319  53.892  1.00  0.00    -0.087 Cl
BRANCH  17  19
HETATM   19  C9  UNL     1      16.695  -1.199  52.430  1.00  0.00     0.273 C 
HETATM   20  F1  UNL     1      16.154  -0.063  51.864  1.00  0.00    -0.250 F 
ENDBRANCH  17  19
ENDBRANCH  15  16
ENDBRANCH   7  15
BRANCH   1  21
HETATM   21  C1  UNL     1      26.557   2.954  50.843  1.00  0.00     0.301 C 
BRANCH  21  22
HETATM   22  N1  UNL     1      26.190   4.297  50.464  1.00  0.00     0.080 N 
HETATM   23  H1  UNL     1      26.994   4.955  50.451  1.00  0.00     0.312 HD
HETATM   24  H2  UNL     1      25.352   4.670  50.955  1.00  0.00     0.312 HD
ENDBRANCH  21  22
ENDBRANCH   1  21
BRANCH  13  25
HETATM   25  N5  UNL     1      27.620   2.609  53.546  1.00  0.00    -0.358 N 
HETATM   26  H18 UNL     1      27.383   3.604  53.725  1.00  0.00     0.162 HD
BRANCH  25  27
HETATM   27  C15 UNL     1      28.944   2.158  53.816  1.00  0.00     0.349 C 
HETATM   28  O2  UNL     1      29.453   2.244  54.974  1.00  0.00    -0.284 OA
ENDBRANCH  25  27
ENDBRANCH  13  25
TORSDOF 7
ENDMDL
MODEL 6
REMARK VINA RESULT:      -6.5      2.200      2.339
REMARK  7 active torsions:
REMARK  status: ('A' for Active; 'I' for Inactive)
REMARK    1  A    between atoms: N1_1  and  C1_2 
REMARK    2  A    between atoms: C1_2  and  C2_3 
REMARK    3  A    between atoms: C5_9  and  C6_10 
REMARK    4  A    between atoms: C6_10  and  C7_11 
REMARK    5  A    between atoms: C8_12  and  C9_14 
REMARK    6  A    between atoms: C14_21  and  N5_22 
REMARK    7  A    between atoms: N5_22  and  C15_23 
ROOT
HETATM    1  C2  UNL     1      24.865  -0.401  53.492  1.00  0.00     0.184 C 
HETATM    2  O1  UNL     1      24.277   0.842  53.159  1.00  0.00    -0.323 OA
HETATM    3  C3  UNL     1      23.428   1.065  52.104  1.00  0.00     0.195 A 
HETATM    4  N2  UNL     1      22.345   0.273  52.023  1.00  0.00    -0.216 NA
HETATM    5  C4  UNL     1      21.466   0.428  51.019  1.00  0.00     0.236 A 
HETATM    6  N3  UNL     1      21.665   1.371  50.096  1.00  0.00    -0.244 NA
HETATM    7  C5  UNL     1      22.742   2.205  50.121  1.00  0.00     0.070 A 
HETATM    8  C10 UNL     1      23.658   2.046  51.166  1.00  0.00     0.107 A 
HETATM    9  N4  UNL     1      24.804   2.883  51.247  1.00  0.00    -0.381 N 
HETATM   10  C11 UNL     1      26.002   2.494  51.968  1.00  0.00     0.147 C 
HETATM   11  C12 UNL     1      26.480   1.239  51.362  1.00  0.00    -0.009 C 
HETATM   12  C13 UNL     1      26.649   0.048  51.928  1.00  0.00    -0.002 C 
HETATM   13  C14 UNL     1      26.361  -0.215  53.366  1.00  0.00     0.138 C 
HETATM   14  H12 UNL     1      24.715   3.796  50.749  1.00  0.00     0.160 HD
ENDROOT
BRANCH   7  15
HETATM   15  C6  UNL     1      22.942   3.263  49.068  1.00  0.00     0.090 C 
BRANCH  15  16
HETATM   16  C7  UNL     1      22.076   2.974  47.915  1.00  0.00     0.001 C 
HETATM   17  C8  UNL     1      21.837   3.916  47.010  1.00  0.00     0.036 C 
HETATM   18 CL1  UNL     1      22.600   5.472  47.275  1.00  0.00    -0.087 Cl
BRANCH  17  19
HETATM   19  C9  UNL     1      21.030   3.932  45.771  1.00  0.00     0.273 C 
HETATM   20  F1  UNL     1      21.741   3.521  44.662  1.00  0.00    -0.250 F 
ENDBRANCH  17  19
ENDBRANCH  15  16
ENDBRANCH   7  15
BRANCH   1  21
HETATM   21  C1  UNL     1      24.478  -0.854  54.887  1.00  0.00     0.301 C 
BRANCH  21  22
HETATM   22  N1  UNL     1      23.068  -1.135  55.003  1.00  0.00     0.080 N 
HETATM   23  H1  UNL     1      22.783  -1.422  55.960  1.00  0.00     0.312 HD
HETATM   24  H2  UNL     1      22.687  -1.746  54.252  1.00  0.00     0.312 HD
ENDBRANCH  21  22
ENDBRANCH   1  21
BRANCH  13  25
HETATM   25  N5  UNL     1      27.085  -1.431  53.693  1.00  0.00    -0.358 N 
HETATM   26  H18 UNL     1      26.731  -2.023  54.469  1.00  0.00     0.162 HD
BRANCH  25  27
HETATM   27  C15 UNL     1      28.255  -1.841  52.994  1.00  0.00     0.349 C 
HETATM   28  O2  UNL     1      28.922  -2.859  53.352  1.00  0.00    -0.284 OA
ENDBRANCH  25  27
ENDBRANCH  13  25
TORSDOF 7
ENDMDL
MODEL 7
REMARK VINA RESULT:      -6.4      3.528      5.660
REMARK  7 active torsions:
REMARK  status: ('A' for Active; 'I' for Inactive)
REMARK    1  A    between atoms: N1_1  and  C1_2 
REMARK    2  A    between atoms: C1_2  and  C2_3 
REMARK    3  A    between atoms: C5_9  and  C6_10 
REMARK    4  A    between atoms: C6_10  and  C7_11 
REMARK    5  A    between atoms: C8_12  and  C9_14 
REMARK    6  A    between atoms: C14_21  and  N5_22 
REMARK    7  A    between atoms: N5_22  and  C15_23 
ROOT
HETATM    1  C2  UNL     1      21.333  -0.278  53.420  1.00  0.00     0.184 C 
HETATM    2  O1  UNL     1      22.306  -0.089  52.411  1.00  0.00    -0.323 OA
HETATM    3  C3  UNL     1      23.098   1.022  52.266  1.00  0.00     0.195 A 
HETATM    4  N2  UNL     1      23.810   1.400  53.342  1.00  0.00    -0.216 NA
HETATM    5  C4  UNL     1      24.609   2.478  53.281  1.00  0.00     0.236 A 
HETATM    6  N3  UNL     1      24.700   3.179  52.149  1.00  0.00    -0.244 NA
HETATM    7  C5  UNL     1      24.005   2.849  51.025  1.00  0.00     0.070 A 
HETATM    8  C10 UNL     1      23.173   1.727  51.086  1.00  0.00     0.107 A 
HETATM    9  N4  UNL     1      22.418   1.332  49.948  1.00  0.00    -0.381 N 
HETATM   10  C11 UNL     1      21.218   0.524  50.052  1.00  0.00     0.147 C 
HETATM   11  C12 UNL     1      20.273   1.267  50.906  1.00  0.00    -0.009 C 
HETATM   12  C13 UNL     1      19.724   0.903  52.060  1.00  0.00    -0.002 C 
HETATM   13  C14 UNL     1      20.002  -0.408  52.712  1.00  0.00     0.138 C 
HETATM   14  H12 UNL     1      22.797   1.668  49.035  1.00  0.00     0.160 HD
ENDROOT
BRANCH   7  15
HETATM   15  C6  UNL     1      24.127   3.657  49.760  1.00  0.00     0.090 C 
BRANCH  15  16
HETATM   16  C7  UNL     1      25.549   3.878  49.456  1.00  0.00     0.001 C 
HETATM   17  C8  UNL     1      25.961   5.065  49.028  1.00  0.00     0.036 C 
HETATM   18 CL1  UNL     1      24.736   6.307  48.856  1.00  0.00    -0.087 Cl
BRANCH  17  19
HETATM   19  C9  UNL     1      27.292   5.586  48.648  1.00  0.00     0.273 C 
HETATM   20  F1  UNL     1      28.176   4.589  48.291  1.00  0.00    -0.250 F 
ENDBRANCH  17  19
ENDBRANCH  15  16
ENDBRANCH   7  15
BRANCH   1  21
HETATM   21  C1  UNL     1      21.629  -1.499  54.270  1.00  0.00     0.301 C 
BRANCH  21  22
HETATM   22  N1  UNL     1      22.757  -1.298  55.147  1.00  0.00     0.080 N 
HETATM   23  H1  UNL     1      22.782  -0.350  55.574  1.00  0.00     0.312 HD
HETATM   24  H2  UNL     1      23.669  -1.604  54.753  1.00  0.00     0.312 HD
ENDBRANCH  21  22
ENDBRANCH   1  21
BRANCH  13  25
HETATM   25  N5  UNL     1      18.911  -0.615  53.649  1.00  0.00    -0.358 N 
HETATM   26  H18 UNL     1      18.921  -0.087  54.544  1.00  0.00     0.162 HD
BRANCH  25  27
HETATM   27  C15 UNL     1      17.834  -1.510  53.391  1.00  0.00     0.349 C 
HETATM   28  O2  UNL     1      17.851  -2.709  53.802  1.00  0.00    -0.284 OA
ENDBRANCH  25  27
ENDBRANCH  13  25
TORSDOF 7
ENDMDL
MODEL 8
REMARK VINA RESULT:      -6.4      3.966      7.508
REMARK  7 active torsions:
REMARK  status: ('A' for Active; 'I' for Inactive)
REMARK    1  A    between atoms: N1_1  and  C1_2 
REMARK    2  A    between atoms: C1_2  and  C2_3 
REMARK    3  A    between atoms: C5_9  and  C6_10 
REMARK    4  A    between atoms: C6_10  and  C7_11 
REMARK    5  A    between atoms: C8_12  and  C9_14 
REMARK    6  A    between atoms: C14_21  and  N5_22 
REMARK    7  A    between atoms: N5_22  and  C15_23 
ROOT
HETATM    1  C2  UNL     1      21.320   2.948  51.374  1.00  0.00     0.184 C 
HETATM    2  O1  UNL     1      22.257   2.595  52.373  1.00  0.00    -0.323 OA
HETATM    3  C3  UNL     1      23.545   2.178  52.146  1.00  0.00     0.195 A 
HETATM    4  N2  UNL     1      24.313   2.978  51.386  1.00  0.00    -0.216 NA
HETATM    5  C4  UNL     1      25.585   2.640  51.118  1.00  0.00     0.236 A 
HETATM    6  N3  UNL     1      26.092   1.506  51.606  1.00  0.00    -0.244 NA
HETATM    7  C5  UNL     1      25.367   0.653  52.381  1.00  0.00     0.070 A 
HETATM    8  C10 UNL     1      24.042   1.003  52.662  1.00  0.00     0.107 A 
HETATM    9  N4  UNL     1      23.231   0.153  53.462  1.00  0.00    -0.381 N 
HETATM   10  C11 UNL     1      21.782   0.179  53.403  1.00  0.00     0.147 C 
HETATM   11  C12 UNL     1      21.403  -0.122  52.011  1.00  0.00    -0.009 C 
HETATM   12  C13 UNL     1      20.711   0.621  51.153  1.00  0.00    -0.002 C 
HETATM   13  C14 UNL     1      20.173   1.968  51.497  1.00  0.00     0.138 C 
HETATM   14  H12 UNL     1      23.761  -0.488  54.094  1.00  0.00     0.160 HD
ENDROOT
BRANCH   7  15
HETATM   15  C6  UNL     1      25.964  -0.621  52.920  1.00  0.00     0.090 C 
BRANCH  15  16
HETATM   16  C7  UNL     1      27.412  -0.628  52.663  1.00  0.00     0.001 C 
HETATM   17  C8  UNL     1      28.260  -0.286  53.625  1.00  0.00     0.036 C 
HETATM   18 CL1  UNL     1      27.559   0.159  55.170  1.00  0.00    -0.087 Cl
BRANCH  17  19
HETATM   19  C9  UNL     1      29.736  -0.196  53.675  1.00  0.00     0.273 C 
HETATM   20  F1  UNL     1      30.342  -1.424  53.843  1.00  0.00    -0.250 F 
ENDBRANCH  17  19
ENDBRANCH  15  16
ENDBRANCH   7  15
BRANCH   1  21
HETATM   21  C1  UNL     1      20.843   4.380  51.526  1.00  0.00     0.301 C 
BRANCH  21  22
HETATM   22  N1  UNL     1      21.901   5.337  51.314  1.00  0.00     0.080 N 
HETATM   23  H1  UNL     1      21.609   6.319  51.487  1.00  0.00     0.312 HD
HETATM   24  H2  UNL     1      22.428   5.208  50.426  1.00  0.00     0.312 HD
ENDBRANCH  21  22
ENDBRANCH   1  21
BRANCH  13  25
HETATM   25  N5  UNL     1      19.131   2.232  50.520  1.00  0.00    -0.358 N 
HETATM   26  H18 UNL     1      19.333   2.900  49.751  1.00  0.00     0.162 HD
BRANCH  25  27
HETATM   27  C15 UNL     1      17.850   1.614  50.575  1.00  0.00     0.349 C 
HETATM   28  O2  UNL     1      17.024   1.875  51.500  1.00  0.00    -0.284 OA
ENDBRANCH  25  27
ENDBRANCH  13  25
TORSDOF 7
ENDMDL
MODEL 9
REMARK VINA RESULT:      -6.4      4.083      7.658
REMARK  7 active torsions:
REMARK  status: ('A' for Active; 'I' for Inactive)
REMARK    1  A    between atoms: N1_1  and  C1_2 
REMARK    2  A    between atoms: C1_2  and  C2_3 
REMARK    3  A    between atoms: C5_9  and  C6_10 
REMARK    4  A    between atoms: C6_10  and  C7_11 
REMARK    5  A    between atoms: C8_12  and  C9_14 
REMARK    6  A    between atoms: C14_21  and  N5_22 
REMARK    7  A    between atoms: N5_22  and  C15_23 
ROOT
HETATM    1  C2  UNL     1      22.090   4.989  50.795  1.00  0.00     0.184 C 
HETATM    2  O1  UNL     1      23.157   4.563  51.621  1.00  0.00    -0.323 OA
HETATM    3  C3  UNL     1      24.354   4.058  51.179  1.00  0.00     0.195 A 
HETATM    4  N2  UNL     1      25.036   4.807  50.295  1.00  0.00    -0.216 NA
HETATM    5  C4  UNL     1      26.216   4.381  49.815  1.00  0.00     0.236 A 
HETATM    6  N3  UNL     1      26.718   3.211  50.215  1.00  0.00    -0.244 NA
HETATM    7  C5  UNL     1      26.077   2.406  51.107  1.00  0.00     0.070 A 
HETATM    8  C10 UNL     1      24.848   2.847  51.609  1.00  0.00     0.107 A 
HETATM    9  N4  UNL     1      24.127   2.051  52.540  1.00  0.00    -0.381 N 
HETATM   10  C11 UNL     1      22.695   2.180  52.730  1.00  0.00     0.147 C 
HETATM   11  C12 UNL     1      22.063   1.917  51.424  1.00  0.00    -0.009 C 
HETATM   12  C13 UNL     1      21.289   2.713  50.693  1.00  0.00    -0.002 C 
HETATM   13  C14 UNL     1      20.915   4.092  51.117  1.00  0.00     0.138 C 
HETATM   14  H12 UNL     1      24.710   1.369  53.075  1.00  0.00     0.160 HD
ENDROOT
BRANCH   7  15
HETATM   15  C6  UNL     1      26.665   1.089  51.543  1.00  0.00     0.090 C 
BRANCH  15  16
HETATM   16  C7  UNL     1      27.528   1.304  52.715  1.00  0.00     0.001 C 
HETATM   17  C8  UNL     1      27.925   0.270  53.446  1.00  0.00     0.036 C 
HETATM   18 CL1  UNL     1      27.372  -1.313  52.935  1.00  0.00    -0.087 Cl
BRANCH  17  19
HETATM   19  C9  UNL     1      28.774   0.164  54.652  1.00  0.00     0.273 C 
HETATM   20  F1  UNL     1      29.376   1.358  54.991  1.00  0.00    -0.250 F 
ENDBRANCH  17  19
ENDBRANCH  15  16
ENDBRANCH   7  15
BRANCH   1  21
HETATM   21  C1  UNL     1      21.750   6.450  51.018  1.00  0.00     0.301 C 
BRANCH  21  22
HETATM   22  N1  UNL     1      22.916   7.249  51.302  1.00  0.00     0.080 N 
HETATM   23  H1  UNL     1      22.767   8.266  51.145  1.00  0.00     0.312 HD
HETATM   24  H2  UNL     1      23.799   6.887  50.887  1.00  0.00     0.312 HD
ENDBRANCH  21  22
ENDBRANCH   1  21
BRANCH  13  25
HETATM   25  N5  UNL     1      19.743   4.436  50.331  1.00  0.00    -0.358 N 
HETATM   26  H18 UNL     1      19.878   4.969  49.450  1.00  0.00     0.162 HD
BRANCH  25  27
HETATM   27  C15 UNL     1      18.422   4.073  50.720  1.00  0.00     0.349 C 
HETATM   28  O2  UNL     1      18.129   3.818  51.927  1.00  0.00    -0.284 OA
ENDBRANCH  25  27
ENDBRANCH  13  25
TORSDOF 7
ENDMDL
