MODEL 1
REMARK VINA RESULT:     -10.2      0.000      0.000
REMARK  3 active torsions:
REMARK  status: ('A' for Active; 'I' for Inactive)
REMARK    1  A    between atoms: O1_1  and  C1_2 
REMARK    2  A    between atoms: C3_5  and  N1_6 
REMARK    3  A    between atoms: C4_8  and  C5_9 
ROOT
HETATM    1  N1  UNL     1      26.305   0.726  53.575  1.00  0.00    -0.240 N 
HETATM    2  N2  UNL     1      25.154  -0.022  54.080  1.00  0.00    -0.169 NA
HETATM    3  C4  UNL     1      23.995   0.390  53.573  1.00  0.00     0.093 C 
HETATM    4  C11 UNL     1      24.332   1.617  52.860  1.00  0.00    -0.025 C 
HETATM    5  C12 UNL     1      23.971   1.637  51.538  1.00  0.00     0.011 C 
HETATM    6  C13 UNL     1      24.649   2.494  50.492  1.00  0.00     0.020 C 
HETATM    7  C14 UNL     1      25.964   2.838  50.718  1.00  0.00     0.013 C 
HETATM    8 CL1  UNL     1      26.340   4.067  49.491  1.00  0.00    -0.089 Cl
HETATM    9  C15 UNL     1      26.947   2.326  51.755  1.00  0.00     0.079 C 
HETATM   10  C16 UNL     1      26.533   2.129  53.125  1.00  0.00     0.122 C 
HETATM   11  C17 UNL     1      25.165   2.755  53.488  1.00  0.00     0.068 C 
ENDROOT
BRANCH   1  12
HETATM   12  C3  UNL     1      27.488  -0.159  53.525  1.00  0.00     0.192 A 
HETATM   13  S1  UNL     1      29.141   0.195  53.849  1.00  0.00    -0.058 SA
HETATM   14  C2  UNL     1      29.848  -1.438  53.549  1.00  0.00     0.111 A 
HETATM   15  C1  UNL     1      28.604  -2.076  53.214  1.00  0.00     0.171 A 
HETATM   16  N3  UNL     1      27.364  -1.580  53.158  1.00  0.00    -0.198 NA
BRANCH  15  17
HETATM   17  O1  UNL     1      28.421  -3.434  52.855  1.00  0.00    -0.344 OA
HETATM   18  H1  UNL     1      28.633  -4.149  53.562  1.00  0.00     0.219 HD
ENDBRANCH  15  17
ENDBRANCH   1  12
BRANCH   3  19
HETATM   19  C5  UNL     1      22.646   0.020  53.409  1.00  0.00    -0.005 A 
HETATM   20  C6  UNL     1      22.386  -1.084  54.241  1.00  0.00     0.017 A 
HETATM   21  C7  UNL     1      21.120  -1.668  54.365  1.00  0.00     0.043 A 
HETATM   22  C8  UNL     1      20.070  -1.151  53.646  1.00  0.00     0.116 A 
HETATM   23  F1  UNL     1      18.781  -1.571  53.628  1.00  0.00    -0.206 F 
HETATM   24  C9  UNL     1      20.363  -0.069  52.843  1.00  0.00     0.043 A 
HETATM   25  C10 UNL     1      21.599   0.513  52.713  1.00  0.00     0.017 A 
ENDBRANCH   3  19
TORSDOF 3
ENDMDL
MODEL 2
REMARK VINA RESULT:      -8.8      4.929      7.461
REMARK  3 active torsions:
REMARK  status: ('A' for Active; 'I' for Inactive)
REMARK    1  A    between atoms: O1_1  and  C1_2 
REMARK    2  A    between atoms: C3_5  and  N1_6 
REMARK    3  A    between atoms: C4_8  and  C5_9 
ROOT
HETATM    1  N1  UNL     1      26.160   2.621  50.709  1.00  0.00    -0.240 N 
HETATM    2  N2  UNL     1      27.145   3.256  49.834  1.00  0.00    -0.169 NA
HETATM    3  C4  UNL     1      26.719   4.400  49.305  1.00  0.00     0.093 C 
HETATM    4  C11 UNL     1      25.302   4.447  49.648  1.00  0.00    -0.025 C 
HETATM    5  C12 UNL     1      24.906   5.573  50.325  1.00  0.00     0.011 C 
HETATM    6  C13 UNL     1      23.699   5.628  51.234  1.00  0.00     0.020 C 
HETATM    7  C14 UNL     1      23.307   4.450  51.831  1.00  0.00     0.013 C 
HETATM    8 CL1  UNL     1      21.723   4.801  52.556  1.00  0.00    -0.089 Cl
HETATM    9  C15 UNL     1      24.012   3.107  51.908  1.00  0.00     0.079 C 
HETATM   10  C16 UNL     1      24.671   2.557  50.745  1.00  0.00     0.122 C 
HETATM   11  C17 UNL     1      24.337   3.266  49.411  1.00  0.00     0.068 C 
ENDROOT
BRANCH   1  12
HETATM   12  C3  UNL     1      26.856   1.882  51.783  1.00  0.00     0.192 A 
HETATM   13  S1  UNL     1      26.657   0.255  52.306  1.00  0.00    -0.058 SA
HETATM   14  C2  UNL     1      27.888   0.224  53.626  1.00  0.00     0.111 A 
HETATM   15  C1  UNL     1      28.312   1.588  53.461  1.00  0.00     0.171 A 
HETATM   16  N3  UNL     1      27.900   2.525  52.601  1.00  0.00    -0.198 NA
BRANCH  15  17
HETATM   17  O1  UNL     1      29.307   2.260  54.212  1.00  0.00    -0.344 OA
HETATM   18  H1  UNL     1      29.873   2.968  53.730  1.00  0.00     0.219 HD
ENDBRANCH  15  17
ENDBRANCH   1  12
BRANCH   3  19
HETATM   19  C5  UNL     1      27.158   5.568  48.651  1.00  0.00    -0.005 A 
HETATM   20  C6  UNL     1      28.535   5.439  48.394  1.00  0.00     0.017 A 
HETATM   21  C7  UNL     1      29.278   6.402  47.699  1.00  0.00     0.043 A 
HETATM   22  C8  UNL     1      28.647   7.533  47.241  1.00  0.00     0.116 A 
HETATM   23  F1  UNL     1      29.185   8.570  46.555  1.00  0.00    -0.206 F 
HETATM   24  C9  UNL     1      27.297   7.623  47.511  1.00  0.00     0.043 A 
HETATM   25  C10 UNL     1      26.559   6.686  48.189  1.00  0.00     0.017 A 
ENDBRANCH   3  19
TORSDOF 3
ENDMDL
MODEL 3
REMARK VINA RESULT:      -8.5      4.809      6.507
REMARK  3 active torsions:
REMARK  status: ('A' for Active; 'I' for Inactive)
REMARK    1  A    between atoms: O1_1  and  C1_2 
REMARK    2  A    between atoms: C3_5  and  N1_6 
REMARK    3  A    between atoms: C4_8  and  C5_9 
ROOT
HETATM    1  N1  UNL     1      23.174   4.625  51.537  1.00  0.00    -0.240 N 
HETATM    2  N2  UNL     1      24.141   3.860  52.321  1.00  0.00    -0.169 NA
HETATM    3  C4  UNL     1      23.923   2.548  52.291  1.00  0.00     0.093 C 
HETATM    4  C11 UNL     1      22.623   2.416  51.645  1.00  0.00    -0.025 C 
HETATM    5  C12 UNL     1      22.604   1.607  50.538  1.00  0.00     0.011 C 
HETATM    6  C13 UNL     1      21.588   1.728  49.423  1.00  0.00     0.020 C 
HETATM    7  C14 UNL     1      21.023   2.967  49.220  1.00  0.00     0.013 C 
HETATM    8 CL1  UNL     1      19.688   2.688  48.081  1.00  0.00    -0.089 Cl
HETATM    9  C15 UNL     1      21.397   4.322  49.793  1.00  0.00     0.079 C 
HETATM   10  C16 UNL     1      21.732   4.460  51.192  1.00  0.00     0.122 C 
HETATM   11  C17 UNL     1      21.383   3.234  52.070  1.00  0.00     0.068 C 
ENDROOT
BRANCH   1  12
HETATM   12  C3  UNL     1      23.826   5.832  50.987  1.00  0.00     0.192 A 
HETATM   13  S1  UNL     1      23.191   7.415  50.753  1.00  0.00    -0.058 SA
HETATM   14  C2  UNL     1      24.654   8.211  50.057  1.00  0.00     0.111 A 
HETATM   15  C1  UNL     1      25.493   7.045  50.109  1.00  0.00     0.171 A 
HETATM   16  N3  UNL     1      25.229   5.807  50.540  1.00  0.00    -0.198 NA
BRANCH  15  17
HETATM   17  O1  UNL     1      26.844   6.957  49.696  1.00  0.00    -0.344 OA
HETATM   18  H1  UNL     1      27.379   6.128  49.982  1.00  0.00     0.219 HD
ENDBRANCH  15  17
ENDBRANCH   1  12
BRANCH   3  19
HETATM   19  C5  UNL     1      24.524   1.303  52.561  1.00  0.00    -0.005 A 
HETATM   20  C6  UNL     1      25.758   1.251  51.888  1.00  0.00     0.017 A 
HETATM   21  C7  UNL     1      26.642   0.170  51.991  1.00  0.00     0.043 A 
HETATM   22  C8  UNL     1      26.303  -0.900  52.783  1.00  0.00     0.116 A 
HETATM   23  F1  UNL     1      27.016  -2.030  53.010  1.00  0.00    -0.206 F 
HETATM   24  C9  UNL     1      25.087  -0.813  53.428  1.00  0.00     0.043 A 
HETATM   25  C10 UNL     1      24.213   0.241  53.336  1.00  0.00     0.017 A 
ENDBRANCH   3  19
TORSDOF 3
ENDMDL
MODEL 4
REMARK VINA RESULT:      -8.4      4.387      6.560
REMARK  3 active torsions:
REMARK  status: ('A' for Active; 'I' for Inactive)
REMARK    1  A    between atoms: O1_1  and  C1_2 
REMARK    2  A    between atoms: C3_5  and  N1_6 
REMARK    3  A    between atoms: C4_8  and  C5_9 
ROOT
HETATM    1  N1  UNL     1      21.768   0.826  51.497  1.00  0.00    -0.240 N 
HETATM    2  N2  UNL     1      22.729  -0.096  52.102  1.00  0.00    -0.169 NA
HETATM    3  C4  UNL     1      23.864   0.493  52.469  1.00  0.00     0.093 C 
HETATM    4  C11 UNL     1      23.776   1.830  51.893  1.00  0.00    -0.025 C 
HETATM    5  C12 UNL     1      23.921   2.858  52.789  1.00  0.00     0.011 C 
HETATM    6  C13 UNL     1      23.355   4.245  52.579  1.00  0.00     0.020 C 
HETATM    7  C14 UNL     1      22.239   4.353  51.778  1.00  0.00     0.013 C 
HETATM    8 CL1  UNL     1      22.035   6.096  51.500  1.00  0.00    -0.089 Cl
HETATM    9  C15 UNL     1      21.324   3.278  51.220  1.00  0.00     0.079 C 
HETATM   10  C16 UNL     1      21.873   2.061  50.668  1.00  0.00     0.122 C 
HETATM   11  C17 UNL     1      23.400   2.090  50.418  1.00  0.00     0.068 C 
ENDROOT
BRANCH   1  12
HETATM   12  C3  UNL     1      20.393   0.381  51.806  1.00  0.00     0.192 A 
HETATM   13  S1  UNL     1      18.920   0.706  50.978  1.00  0.00    -0.058 SA
HETATM   14  C2  UNL     1      17.786  -0.219  52.034  1.00  0.00     0.111 A 
HETATM   15  C1  UNL     1      18.790  -0.687  52.951  1.00  0.00     0.171 A 
HETATM   16  N3  UNL     1      20.110  -0.476  52.970  1.00  0.00    -0.198 NA
BRANCH  15  17
HETATM   17  O1  UNL     1      18.582  -1.510  54.084  1.00  0.00    -0.344 OA
HETATM   18  H1  UNL     1      17.699  -1.404  54.597  1.00  0.00     0.219 HD
ENDBRANCH  15  17
ENDBRANCH   1  12
BRANCH   3  19
HETATM   19  C5  UNL     1      25.015   0.318  53.262  1.00  0.00    -0.005 A 
HETATM   20  C6  UNL     1      26.134   0.261  52.412  1.00  0.00     0.017 A 
HETATM   21  C7  UNL     1      27.448   0.151  52.882  1.00  0.00     0.043 A 
HETATM   22  C8  UNL     1      27.673   0.094  54.236  1.00  0.00     0.116 A 
HETATM   23  F1  UNL     1      28.860  -0.013  54.882  1.00  0.00    -0.206 F 
HETATM   24  C9  UNL     1      26.552   0.153  55.037  1.00  0.00     0.043 A 
HETATM   25  C10 UNL     1      25.260   0.262  54.589  1.00  0.00     0.017 A 
ENDBRANCH   3  19
TORSDOF 3
ENDMDL
MODEL 5
REMARK VINA RESULT:      -8.3      4.832      7.389
REMARK  3 active torsions:
REMARK  status: ('A' for Active; 'I' for Inactive)
REMARK    1  A    between atoms: O1_1  and  C1_2 
REMARK    2  A    between atoms: C3_5  and  N1_6 
REMARK    3  A    between atoms: C4_8  and  C5_9 
ROOT
HETATM    1  N1  UNL     1      23.329   2.244  52.117  1.00  0.00    -0.240 N 
HETATM    2  N2  UNL     1      23.579   3.401  51.260  1.00  0.00    -0.169 NA
HETATM    3  C4  UNL     1      24.864   3.565  50.959  1.00  0.00     0.093 C 
HETATM    4  C11 UNL     1      25.558   2.618  51.822  1.00  0.00    -0.025 C 
HETATM    5  C12 UNL     1      26.373   1.728  51.170  1.00  0.00     0.011 C 
HETATM    6  C13 UNL     1      26.751   0.371  51.721  1.00  0.00     0.020 C 
HETATM    7  C14 UNL     1      25.868  -0.219  52.598  1.00  0.00     0.013 C 
HETATM    8 CL1  UNL     1      26.743  -1.612  53.271  1.00  0.00    -0.089 Cl
HETATM    9  C15 UNL     1      24.445   0.163  52.963  1.00  0.00     0.079 C 
HETATM   10  C16 UNL     1      24.092   1.545  53.192  1.00  0.00     0.122 C 
HETATM   11  C17 UNL     1      25.294   2.509  53.340  1.00  0.00     0.068 C 
ENDROOT
BRANCH   1  12
HETATM   12  C3  UNL     1      21.999   1.677  51.810  1.00  0.00     0.192 A 
HETATM   13  S1  UNL     1      20.849   0.938  52.856  1.00  0.00    -0.058 SA
HETATM   14  C2  UNL     1      19.560   0.565  51.649  1.00  0.00     0.111 A 
HETATM   15  C1  UNL     1      20.259   1.109  50.517  1.00  0.00     0.171 A 
HETATM   16  N3  UNL     1      21.462   1.688  50.438  1.00  0.00    -0.198 NA
BRANCH  15  17
HETATM   17  O1  UNL     1      19.798   1.150  49.178  1.00  0.00    -0.344 OA
HETATM   18  H1  UNL     1      19.662   2.072  48.747  1.00  0.00     0.219 HD
ENDBRANCH  15  17
ENDBRANCH   1  12
BRANCH   3  19
HETATM   19  C5  UNL     1      25.734   4.230  50.072  1.00  0.00    -0.005 A 
HETATM   20  C6  UNL     1      25.320   5.570  49.966  1.00  0.00     0.017 A 
HETATM   21  C7  UNL     1      26.005   6.526  49.207  1.00  0.00     0.043 A 
HETATM   22  C8  UNL     1      27.138   6.153  48.525  1.00  0.00     0.116 A 
HETATM   23  F1  UNL     1      27.933   6.923  47.742  1.00  0.00    -0.206 F 
HETATM   24  C9  UNL     1      27.513   4.833  48.653  1.00  0.00     0.043 A 
HETATM   25  C10 UNL     1      26.851   3.887  49.395  1.00  0.00     0.017 A 
ENDBRANCH   3  19
TORSDOF 3
ENDMDL
MODEL 6
REMARK VINA RESULT:      -8.3      1.960      2.353
REMARK  3 active torsions:
REMARK  status: ('A' for Active; 'I' for Inactive)
REMARK    1  A    between atoms: O1_1  and  C1_2 
REMARK    2  A    between atoms: C3_5  and  N1_6 
REMARK    3  A    between atoms: C4_8  and  C5_9 
ROOT
HETATM    1  N1  UNL     1      24.538   1.611  53.091  1.00  0.00    -0.240 N 
HETATM    2  N2  UNL     1      23.385   0.776  53.423  1.00  0.00    -0.169 NA
HETATM    3  C4  UNL     1      22.307   1.050  52.692  1.00  0.00     0.093 C 
HETATM    4  C11 UNL     1      22.660   2.273  51.981  1.00  0.00    -0.025 C 
HETATM    5  C12 UNL     1      22.549   2.204  50.616  1.00  0.00     0.011 C 
HETATM    6  C13 UNL     1      23.330   3.079  49.661  1.00  0.00     0.020 C 
HETATM    7  C14 UNL     1      24.544   3.559  50.100  1.00  0.00     0.013 C 
HETATM    8 CL1  UNL     1      25.030   4.767  48.891  1.00  0.00    -0.089 Cl
HETATM    9  C15 UNL     1      25.361   3.189  51.325  1.00  0.00     0.079 C 
HETATM   10  C16 UNL     1      24.720   3.010  52.607  1.00  0.00     0.122 C 
HETATM   11  C17 UNL     1      23.258   3.513  52.681  1.00  0.00     0.068 C 
ENDROOT
BRANCH   1  12
HETATM   12  C3  UNL     1      25.783   0.844  53.306  1.00  0.00     0.192 A 
HETATM   13  S1  UNL     1      26.343  -0.586  52.529  1.00  0.00    -0.058 SA
HETATM   14  C2  UNL     1      27.908  -0.795  53.403  1.00  0.00     0.111 A 
HETATM   15  C1  UNL     1      27.763   0.366  54.240  1.00  0.00     0.171 A 
HETATM   16  N3  UNL     1      26.777   1.267  54.308  1.00  0.00    -0.198 NA
BRANCH  15  17
HETATM   17  O1  UNL     1      28.680   0.823  55.217  1.00  0.00    -0.344 OA
HETATM   18  H1  UNL     1      28.298   1.252  56.068  1.00  0.00     0.219 HD
ENDBRANCH  15  17
ENDBRANCH   1  12
BRANCH   3  19
HETATM   19  C5  UNL     1      21.050   0.544  52.310  1.00  0.00    -0.005 A 
HETATM   20  C6  UNL     1      20.519  -0.183  53.391  1.00  0.00     0.017 A 
HETATM   21  C7  UNL     1      19.249  -0.773  53.368  1.00  0.00     0.043 A 
HETATM   22  C8  UNL     1      18.472  -0.646  52.242  1.00  0.00     0.116 A 
HETATM   23  F1  UNL     1      17.229  -1.140  52.025  1.00  0.00    -0.206 F 
HETATM   24  C9  UNL     1      19.026   0.074  51.204  1.00  0.00     0.043 A 
HETATM   25  C10 UNL     1      20.267   0.657  51.215  1.00  0.00     0.017 A 
ENDBRANCH   3  19
TORSDOF 3
ENDMDL
MODEL 7
REMARK VINA RESULT:      -8.2      5.813      7.695
REMARK  3 active torsions:
REMARK  status: ('A' for Active; 'I' for Inactive)
REMARK    1  A    between atoms: O1_1  and  C1_2 
REMARK    2  A    between atoms: C3_5  and  N1_6 
REMARK    3  A    between atoms: C4_8  and  C5_9 
ROOT
HETATM    1  N1  UNL     1      19.635   3.003  50.636  1.00  0.00    -0.240 N 
HETATM    2  N2  UNL     1      19.813   1.707  51.289  1.00  0.00    -0.169 NA
HETATM    3  C4  UNL     1      21.029   1.539  51.801  1.00  0.00     0.093 C 
HETATM    4  C11 UNL     1      21.793   2.670  51.289  1.00  0.00    -0.025 C 
HETATM    5  C12 UNL     1      22.399   3.442  52.247  1.00  0.00     0.011 C 
HETATM    6  C13 UNL     1      22.763   4.897  52.051  1.00  0.00     0.020 C 
HETATM    7  C14 UNL     1      22.013   5.615  51.145  1.00  0.00     0.013 C 
HETATM    8 CL1  UNL     1      22.883   7.151  50.937  1.00  0.00    -0.089 Cl
HETATM    9  C15 UNL     1      20.717   5.257  50.441  1.00  0.00     0.079 C 
HETATM   10  C16 UNL     1      20.525   3.936  49.887  1.00  0.00     0.122 C 
HETATM   11  C17 UNL     1      21.807   3.073  49.798  1.00  0.00     0.068 C 
ENDROOT
BRANCH   1  12
HETATM   12  C3  UNL     1      18.230   3.439  50.777  1.00  0.00     0.192 A 
HETATM   13  S1  UNL     1      16.990   3.558  49.589  1.00  0.00    -0.058 SA
HETATM   14  C2  UNL     1      15.646   4.156  50.635  1.00  0.00     0.111 A 
HETATM   15  C1  UNL     1      16.409   4.181  51.853  1.00  0.00     0.171 A 
HETATM   16  N3  UNL     1      17.687   3.859  52.081  1.00  0.00    -0.198 NA
BRANCH  15  17
HETATM   17  O1  UNL     1      15.946   4.572  53.133  1.00  0.00    -0.344 OA
HETATM   18  H1  UNL     1      15.681   3.831  53.793  1.00  0.00     0.219 HD
ENDBRANCH  15  17
ENDBRANCH   1  12
BRANCH   3  19
HETATM   19  C5  UNL     1      21.770   0.745  52.699  1.00  0.00    -0.005 A 
HETATM   20  C6  UNL     1      20.938   0.409  53.782  1.00  0.00     0.017 A 
HETATM   21  C7  UNL     1      21.345  -0.425  54.831  1.00  0.00     0.043 A 
HETATM   22  C8  UNL     1      22.616  -0.947  54.817  1.00  0.00     0.116 A 
HETATM   23  F1  UNL     1      23.193  -1.766  55.730  1.00  0.00    -0.206 F 
HETATM   24  C9  UNL     1      23.401  -0.596  53.739  1.00  0.00     0.043 A 
HETATM   25  C10 UNL     1      23.014   0.218  52.705  1.00  0.00     0.017 A 
ENDBRANCH   3  19
TORSDOF 3
ENDMDL
MODEL 8
REMARK VINA RESULT:      -8.2      4.763      6.984
REMARK  3 active torsions:
REMARK  status: ('A' for Active; 'I' for Inactive)
REMARK    1  A    between atoms: O1_1  and  C1_2 
REMARK    2  A    between atoms: C3_5  and  N1_6 
REMARK    3  A    between atoms: C4_8  and  C5_9 
ROOT
HETATM    1  N1  UNL     1      23.765   2.783  51.022  1.00  0.00    -0.240 N 
HETATM    2  N2  UNL     1      25.171   2.400  50.909  1.00  0.00    -0.169 NA
HETATM    3  C4  UNL     1      25.577   1.590  51.884  1.00  0.00     0.093 C 
HETATM    4  C11 UNL     1      24.470   1.591  52.833  1.00  0.00    -0.025 C 
HETATM    5  C12 UNL     1      23.967   0.352  53.139  1.00  0.00     0.011 C 
HETATM    6  C13 UNL     1      22.555   0.112  53.626  1.00  0.00     0.020 C 
HETATM    7  C14 UNL     1      21.597   1.027  53.249  1.00  0.00     0.013 C 
HETATM    8 CL1  UNL     1      20.165   0.627  54.222  1.00  0.00    -0.089 Cl
HETATM    9  C15 UNL     1      21.661   2.152  52.231  1.00  0.00     0.079 C 
HETATM   10  C16 UNL     1      22.823   3.007  52.156  1.00  0.00     0.122 C 
HETATM   11  C17 UNL     1      23.801   2.884  53.348  1.00  0.00     0.068 C 
ENDROOT
BRANCH   1  12
HETATM   12  C3  UNL     1      23.197   2.985  49.672  1.00  0.00     0.192 A 
HETATM   13  S1  UNL     1      22.377   1.874  48.646  1.00  0.00    -0.058 SA
HETATM   14  C2  UNL     1      22.052   2.963  47.243  1.00  0.00     0.111 A 
HETATM   15  C1  UNL     1      22.675   4.125  47.815  1.00  0.00     0.171 A 
HETATM   16  N3  UNL     1      23.279   4.292  48.996  1.00  0.00    -0.198 NA
BRANCH  15  17
HETATM   17  O1  UNL     1      22.785   5.405  47.218  1.00  0.00    -0.344 OA
HETATM   18  H1  UNL     1      22.746   5.460  46.194  1.00  0.00     0.219 HD
ENDBRANCH  15  17
ENDBRANCH   1  12
BRANCH   3  19
HETATM   19  C5  UNL     1      26.606   0.701  52.251  1.00  0.00    -0.005 A 
HETATM   20  C6  UNL     1      27.604   1.432  52.920  1.00  0.00     0.017 A 
HETATM   21  C7  UNL     1      28.747   0.840  53.472  1.00  0.00     0.043 A 
HETATM   22  C8  UNL     1      28.916  -0.519  53.364  1.00  0.00     0.116 A 
HETATM   23  F1  UNL     1      29.943  -1.273  53.826  1.00  0.00    -0.206 F 
HETATM   24  C9  UNL     1      27.917  -1.202  52.702  1.00  0.00     0.043 A 
HETATM   25  C10 UNL     1      26.793  -0.633  52.158  1.00  0.00     0.017 A 
ENDBRANCH   3  19
TORSDOF 3
ENDMDL
MODEL 9
REMARK VINA RESULT:      -7.9      4.999      6.572
REMARK  3 active torsions:
REMARK  status: ('A' for Active; 'I' for Inactive)
REMARK    1  A    between atoms: O1_1  and  C1_2 
REMARK    2  A    between atoms: C3_5  and  N1_6 
REMARK    3  A    between atoms: C4_8  and  C5_9 
ROOT
HETATM    1  N1  UNL     1      23.906   5.472  50.296  1.00  0.00    -0.240 N 
HETATM    2  N2  UNL     1      24.236   4.716  51.502  1.00  0.00    -0.169 NA
HETATM    3  C4  UNL     1      23.686   3.504  51.531  1.00  0.00     0.093 C 
HETATM    4  C11 UNL     1      22.758   3.506  50.406  1.00  0.00    -0.025 C 
HETATM    5  C12 UNL     1      22.943   2.494  49.499  1.00  0.00     0.011 C 
HETATM    6  C13 UNL     1      22.518   2.573  48.050  1.00  0.00     0.020 C 
HETATM    7  C14 UNL     1      22.449   3.827  47.483  1.00  0.00     0.013 C 
HETATM    8 CL1  UNL     1      21.640   3.585  45.919  1.00  0.00    -0.089 Cl
HETATM    9  C15 UNL     1      22.937   5.167  48.003  1.00  0.00     0.079 C 
HETATM   10  C16 UNL     1      22.728   5.538  49.383  1.00  0.00     0.122 C 
HETATM   11  C17 UNL     1      21.736   4.637  50.157  1.00  0.00     0.068 C 
ENDROOT
BRANCH   1  12
HETATM   12  C3  UNL     1      25.032   6.365  49.948  1.00  0.00     0.192 A 
HETATM   13  S1  UNL     1      26.358   6.099  48.884  1.00  0.00    -0.058 SA
HETATM   14  C2  UNL     1      27.202   7.683  49.073  1.00  0.00     0.111 A 
HETATM   15  C1  UNL     1      26.260   8.238  50.008  1.00  0.00     0.171 A 
HETATM   16  N3  UNL     1      25.148   7.713  50.531  1.00  0.00    -0.198 NA
BRANCH  15  17
HETATM   17  O1  UNL     1      26.316   9.522  50.601  1.00  0.00    -0.344 OA
HETATM   18  H1  UNL     1      27.153   9.761  51.147  1.00  0.00     0.219 HD
ENDBRANCH  15  17
ENDBRANCH   1  12
BRANCH   3  19
HETATM   19  C5  UNL     1      23.758   2.253  52.174  1.00  0.00    -0.005 A 
HETATM   20  C6  UNL     1      25.112   1.890  52.287  1.00  0.00     0.017 A 
HETATM   21  C7  UNL     1      25.541   0.725  52.933  1.00  0.00     0.043 A 
HETATM   22  C8  UNL     1      24.608  -0.117  53.487  1.00  0.00     0.116 A 
HETATM   23  F1  UNL     1      24.820  -1.281  54.147  1.00  0.00    -0.206 F 
HETATM   24  C9  UNL     1      23.291   0.273  53.358  1.00  0.00     0.043 A 
HETATM   25  C10 UNL     1      22.858   1.412  52.729  1.00  0.00     0.017 A 
ENDBRANCH   3  19
TORSDOF 3
ENDMDL
