MODEL 1
REMARK VINA RESULT:      -9.2      0.000      0.000
REMARK  3 active torsions:
REMARK  status: ('A' for Active; 'I' for Inactive)
REMARK    1  A    between atoms: S1_2  and  C2_3 
REMARK       I    between atoms: C2_3  and  N1_5 
REMARK    2  A    between atoms: C7_12  and  N4_13 
REMARK    3  A    between atoms: N4_13  and  C8_14 
ROOT
HETATM    1  C2  UNL     1      22.751  -0.342  53.585  1.00  0.00     0.282 C 
HETATM    2  O1  UNL     1      22.762  -1.292  54.429  1.00  0.00    -0.260 OA
HETATM    3  N1  UNL     1      24.121   0.027  53.587  1.00  0.00    -0.338 N 
HETATM    4  C3  UNL     1      24.886  -0.799  54.503  1.00  0.00     0.155 C 
HETATM    5  C4  UNL     1      26.122  -0.034  54.813  1.00  0.00     0.021 C 
HETATM    6  C5  UNL     1      26.803   0.811  54.018  1.00  0.00     0.046 A 
HETATM    7  N2  UNL     1      27.987   1.486  54.450  1.00  0.00    -0.246 NA
HETATM    8  C6  UNL     1      28.557   2.304  53.611  1.00  0.00     0.235 A 
HETATM    9  N3  UNL     1      28.027   2.524  52.308  1.00  0.00    -0.228 NA
HETATM   10  C7  UNL     1      26.938   1.898  51.917  1.00  0.00     0.117 A 
HETATM   11  C14 UNL     1      26.161   0.939  52.682  1.00  0.00     0.125 A 
HETATM   12  C15 UNL     1      24.690   1.108  52.760  1.00  0.00     0.145 C 
ENDROOT
BRANCH  10  13
HETATM   13  N4  UNL     1      26.525   2.221  50.586  1.00  0.00    -0.344 N 
HETATM   14  H8  UNL     1      26.337   1.383  49.960  1.00  0.00     0.167 HD
BRANCH  13  15
HETATM   15  C8  UNL     1      26.354   3.512  50.078  1.00  0.00     0.034 A 
HETATM   16  C9  UNL     1      27.124   4.143  49.162  1.00  0.00     0.029 A 
HETATM   17  C10 UNL     1      26.904   5.425  48.691  1.00  0.00     0.004 A 
HETATM   18  C11 UNL     1      25.827   6.135  49.174  1.00  0.00     0.019 A 
HETATM   19  C12 UNL     1      25.013   5.555  50.099  1.00  0.00     0.013 A 
HETATM   20 BR1  UNL     1      23.504   6.480  50.811  1.00  0.00    -0.051 Br
HETATM   21  C13 UNL     1      25.277   4.275  50.535  1.00  0.00     0.048 A 
ENDBRANCH  13  15
ENDBRANCH  10  13
BRANCH   1  22
HETATM   22  S1  UNL     1      21.353   0.283  52.698  1.00  0.00    -0.076 SA
HETATM   23  C1  UNL     1      19.771  -0.244  53.331  1.00  0.00     0.102 C 
HETATM   24  C16 UNL     1      21.519   0.293  50.871  1.00  0.00     0.090 C 
HETATM   25  C17 UNL     1      22.520   1.422  50.755  1.00  0.00     0.058 C 
HETATM   26  C18 UNL     1      22.013   2.422  51.703  1.00  0.00     0.097 C 
HETATM   27  N5  UNL     1      21.389   2.171  52.765  1.00  0.00    -0.246 NA
ENDBRANCH   1  22
TORSDOF 3
ENDMDL
MODEL 2
REMARK VINA RESULT:      -9.1      2.500      5.580
REMARK  3 active torsions:
REMARK  status: ('A' for Active; 'I' for Inactive)
REMARK    1  A    between atoms: S1_2  and  C2_3 
REMARK       I    between atoms: C2_3  and  N1_5 
REMARK    2  A    between atoms: C7_12  and  N4_13 
REMARK    3  A    between atoms: N4_13  and  C8_14 
ROOT
HETATM    1  C2  UNL     1      25.098  -0.593  54.532  1.00  0.00     0.282 C 
HETATM    2  O1  UNL     1      25.191  -1.323  55.569  1.00  0.00    -0.260 OA
HETATM    3  N1  UNL     1      23.689  -0.542  54.372  1.00  0.00    -0.338 N 
HETATM    4  C3  UNL     1      23.015  -1.306  55.405  1.00  0.00     0.155 C 
HETATM    5  C4  UNL     1      21.662  -1.614  54.874  1.00  0.00     0.021 C 
HETATM    6  C5  UNL     1      20.901  -0.873  54.048  1.00  0.00     0.046 A 
HETATM    7  N2  UNL     1      19.606  -1.295  53.611  1.00  0.00    -0.246 NA
HETATM    8  C6  UNL     1      18.961  -0.515  52.791  1.00  0.00     0.235 A 
HETATM    9  N3  UNL     1      19.516   0.715  52.340  1.00  0.00    -0.228 NA
HETATM   10  C7  UNL     1      20.707   1.098  52.747  1.00  0.00     0.117 A 
HETATM   11  C14 UNL     1      21.583   0.394  53.668  1.00  0.00     0.125 A 
HETATM   12  C15 UNL     1      23.004   0.196  53.294  1.00  0.00     0.145 C 
ENDROOT
BRANCH  10  13
HETATM   13  N4  UNL     1      21.133   2.353  52.209  1.00  0.00    -0.344 N 
HETATM   14  H8  UNL     1      20.880   3.201  52.798  1.00  0.00     0.167 HD
BRANCH  13  15
HETATM   15  C8  UNL     1      21.835   2.529  51.013  1.00  0.00     0.034 A 
HETATM   16  C9  UNL     1      21.553   1.983  49.808  1.00  0.00     0.029 A 
HETATM   17  C10 UNL     1      22.283   2.196  48.652  1.00  0.00     0.004 A 
HETATM   18  C11 UNL     1      23.384   3.023  48.704  1.00  0.00     0.019 A 
HETATM   19  C12 UNL     1      23.721   3.604  49.889  1.00  0.00     0.013 A 
HETATM   20 BR1  UNL     1      25.232   4.759  50.034  1.00  0.00    -0.051 Br
HETATM   21  C13 UNL     1      22.960   3.358  51.011  1.00  0.00     0.048 A 
ENDBRANCH  13  15
ENDBRANCH  10  13
BRANCH   1  22
HETATM   22  S1  UNL     1      26.427   0.121  53.607  1.00  0.00    -0.076 SA
HETATM   23  C1  UNL     1      26.584   1.890  53.770  1.00  0.00     0.102 C 
HETATM   24  C16 UNL     1      26.659  -0.549  51.916  1.00  0.00     0.090 C 
HETATM   25  C17 UNL     1      27.209  -1.907  52.299  1.00  0.00     0.058 C 
HETATM   26  C18 UNL     1      28.160  -1.595  53.374  1.00  0.00     0.097 C 
HETATM   27  N5  UNL     1      28.051  -0.648  54.193  1.00  0.00    -0.246 NA
ENDBRANCH   1  22
TORSDOF 3
ENDMDL
MODEL 3
REMARK VINA RESULT:      -9.1      1.087      1.212
REMARK  3 active torsions:
REMARK  status: ('A' for Active; 'I' for Inactive)
REMARK    1  A    between atoms: S1_2  and  C2_3 
REMARK       I    between atoms: C2_3  and  N1_5 
REMARK    2  A    between atoms: C7_12  and  N4_13 
REMARK    3  A    between atoms: N4_13  and  C8_14 
ROOT
HETATM    1  C2  UNL     1      22.003   0.410  52.607  1.00  0.00     0.282 C 
HETATM    2  O1  UNL     1      21.788  -0.586  53.368  1.00  0.00    -0.260 OA
HETATM    3  N1  UNL     1      23.405   0.564  52.764  1.00  0.00    -0.338 N 
HETATM    4  C3  UNL     1      23.942  -0.429  53.676  1.00  0.00     0.155 C 
HETATM    5  C4  UNL     1      25.238   0.114  54.159  1.00  0.00     0.021 C 
HETATM    6  C5  UNL     1      26.113   0.897  53.501  1.00  0.00     0.046 A 
HETATM    7  N2  UNL     1      27.333   1.352  54.093  1.00  0.00    -0.246 NA
HETATM    8  C6  UNL     1      28.098   2.127  53.379  1.00  0.00     0.235 A 
HETATM    9  N3  UNL     1      27.743   2.513  52.056  1.00  0.00    -0.228 NA
HETATM   10  C7  UNL     1      26.620   2.088  51.517  1.00  0.00     0.117 A 
HETATM   11  C14 UNL     1      25.637   1.210  52.127  1.00  0.00     0.125 A 
HETATM   12  C15 UNL     1      24.207   1.598  52.083  1.00  0.00     0.145 C 
ENDROOT
BRANCH  10  13
HETATM   13  N4  UNL     1      26.397   2.559  50.184  1.00  0.00    -0.344 N 
HETATM   14  H8  UNL     1      26.206   1.798  49.467  1.00  0.00     0.167 HD
BRANCH  13  15
HETATM   15  C8  UNL     1      26.410   3.897  49.782  1.00  0.00     0.034 A 
HETATM   16  C9  UNL     1      27.275   4.491  48.928  1.00  0.00     0.029 A 
HETATM   17  C10 UNL     1      27.238   5.824  48.561  1.00  0.00     0.004 A 
HETATM   18  C11 UNL     1      26.254   6.631  49.090  1.00  0.00     0.019 A 
HETATM   19  C12 UNL     1      25.351   6.093  49.956  1.00  0.00     0.013 A 
HETATM   20 BR1  UNL     1      23.963   7.152  50.726  1.00  0.00    -0.051 Br
HETATM   21  C13 UNL     1      25.434   4.759  50.288  1.00  0.00     0.048 A 
ENDBRANCH  13  15
ENDBRANCH  10  13
BRANCH   1  22
HETATM   22  S1  UNL     1      20.809   1.298  51.649  1.00  0.00    -0.076 SA
HETATM   23  C1  UNL     1      19.408   0.331  51.118  1.00  0.00     0.102 C 
HETATM   24  C16 UNL     1      21.500   2.454  50.404  1.00  0.00     0.090 C 
HETATM   25  C17 UNL     1      22.017   3.510  51.358  1.00  0.00     0.058 C 
HETATM   26  C18 UNL     1      20.926   3.648  52.332  1.00  0.00     0.097 C 
HETATM   27  N5  UNL     1      20.146   2.730  52.690  1.00  0.00    -0.246 NA
ENDBRANCH   1  22
TORSDOF 3
ENDMDL
MODEL 4
REMARK VINA RESULT:      -9.0      2.248      5.346
REMARK  3 active torsions:
REMARK  status: ('A' for Active; 'I' for Inactive)
REMARK    1  A    between atoms: S1_2  and  C2_3 
REMARK       I    between atoms: C2_3  and  N1_5 
REMARK    2  A    between atoms: C7_12  and  N4_13 
REMARK    3  A    between atoms: N4_13  and  C8_14 
ROOT
HETATM    1  C2  UNL     1      25.242  -0.845  54.274  1.00  0.00     0.282 C 
HETATM    2  O1  UNL     1      25.267  -1.093  55.521  1.00  0.00    -0.260 OA
HETATM    3  N1  UNL     1      23.851  -0.642  54.075  1.00  0.00    -0.338 N 
HETATM    4  C3  UNL     1      23.115  -0.801  55.316  1.00  0.00     0.155 C 
HETATM    5  C4  UNL     1      21.708  -1.080  54.927  1.00  0.00     0.021 C 
HETATM    6  C5  UNL     1      21.034  -0.631  53.853  1.00  0.00     0.046 A 
HETATM    7  N2  UNL     1      19.672  -0.983  53.598  1.00  0.00    -0.246 NA
HETATM    8  C6  UNL     1      19.118  -0.515  52.516  1.00  0.00     0.235 A 
HETATM    9  N3  UNL     1      19.834   0.319  51.613  1.00  0.00    -0.228 NA
HETATM   10  C7  UNL     1      21.087   0.641  51.854  1.00  0.00     0.117 A 
HETATM   11  C14 UNL     1      21.884   0.245  53.002  1.00  0.00     0.125 A 
HETATM   12  C15 UNL     1      23.240  -0.310  52.774  1.00  0.00     0.145 C 
ENDROOT
BRANCH  10  13
HETATM   13  N4  UNL     1      21.676   1.483  50.859  1.00  0.00    -0.344 N 
HETATM   14  H8  UNL     1      21.549   1.149  49.858  1.00  0.00     0.167 HD
BRANCH  13  15
HETATM   15  C8  UNL     1      22.374   2.668  51.106  1.00  0.00     0.034 A 
HETATM   16  C9  UNL     1      21.993   3.697  51.898  1.00  0.00     0.029 A 
HETATM   17  C10 UNL     1      22.729   4.848  52.110  1.00  0.00     0.004 A 
HETATM   18  C11 UNL     1      23.947   4.984  51.481  1.00  0.00     0.019 A 
HETATM   19  C12 UNL     1      24.389   3.983  50.670  1.00  0.00     0.013 A 
HETATM   20 BR1  UNL     1      26.065   4.103  49.766  1.00  0.00    -0.051 Br
HETATM   21  C13 UNL     1      23.615   2.856  50.492  1.00  0.00     0.048 A 
ENDBRANCH  13  15
ENDBRANCH  10  13
BRANCH   1  22
HETATM   22  S1  UNL     1      26.622  -0.791  53.168  1.00  0.00    -0.076 SA
HETATM   23  C1  UNL     1      26.901  -2.293  52.249  1.00  0.00     0.102 C 
HETATM   24  C16 UNL     1      28.123   0.037  53.820  1.00  0.00     0.090 C 
HETATM   25  C17 UNL     1      27.611   1.461  53.788  1.00  0.00     0.058 C 
HETATM   26  C18 UNL     1      26.926   1.544  52.491  1.00  0.00     0.097 C 
HETATM   27  N5  UNL     1      26.337   0.595  51.915  1.00  0.00    -0.246 NA
ENDBRANCH   1  22
TORSDOF 3
ENDMDL
MODEL 5
REMARK VINA RESULT:      -8.8      3.110      6.762
REMARK  3 active torsions:
REMARK  status: ('A' for Active; 'I' for Inactive)
REMARK    1  A    between atoms: S1_2  and  C2_3 
REMARK       I    between atoms: C2_3  and  N1_5 
REMARK    2  A    between atoms: C7_12  and  N4_13 
REMARK    3  A    between atoms: N4_13  and  C8_14 
ROOT
HETATM    1  C2  UNL     1      26.802   1.621  52.351  1.00  0.00     0.282 C 
HETATM    2  O1  UNL     1      27.866   2.252  52.058  1.00  0.00    -0.260 OA
HETATM    3  N1  UNL     1      25.867   2.278  51.509  1.00  0.00    -0.338 N 
HETATM    4  C3  UNL     1      26.506   3.323  50.730  1.00  0.00     0.155 C 
HETATM    5  C4  UNL     1      25.419   4.244  50.307  1.00  0.00     0.021 C 
HETATM    6  C5  UNL     1      24.137   3.949  50.025  1.00  0.00     0.046 A 
HETATM    7  N2  UNL     1      23.189   4.944  49.628  1.00  0.00    -0.246 NA
HETATM    8  C6  UNL     1      21.966   4.557  49.402  1.00  0.00     0.235 A 
HETATM    9  N3  UNL     1      21.576   3.196  49.542  1.00  0.00    -0.228 NA
HETATM   10  C7  UNL     1      22.454   2.285  49.905  1.00  0.00     0.117 A 
HETATM   11  C14 UNL     1      23.863   2.496  50.188  1.00  0.00     0.125 A 
HETATM   12  C15 UNL     1      24.434   1.935  51.436  1.00  0.00     0.145 C 
ENDROOT
BRANCH  10  13
HETATM   13  N4  UNL     1      21.917   0.963  50.005  1.00  0.00    -0.344 N 
HETATM   14  H8  UNL     1      22.265   0.282  49.267  1.00  0.00     0.167 HD
BRANCH  13  15
HETATM   15  C8  UNL     1      21.007   0.526  50.972  1.00  0.00     0.034 A 
HETATM   16  C9  UNL     1      19.657   0.582  50.914  1.00  0.00     0.029 A 
HETATM   17  C10 UNL     1      18.802   0.128  51.903  1.00  0.00     0.004 A 
HETATM   18  C11 UNL     1      19.341  -0.428  53.043  1.00  0.00     0.019 A 
HETATM   19  C12 UNL     1      20.695  -0.514  53.162  1.00  0.00     0.013 A 
HETATM   20 BR1  UNL     1      21.509  -1.271  54.713  1.00  0.00    -0.051 Br
HETATM   21  C13 UNL     1      21.501  -0.046  52.147  1.00  0.00     0.048 A 
ENDBRANCH  13  15
ENDBRANCH  10  13
BRANCH   1  22
HETATM   22  S1  UNL     1      26.632   0.296  53.510  1.00  0.00    -0.076 SA
HETATM   23  C1  UNL     1      24.957  -0.038  54.022  1.00  0.00     0.102 C 
HETATM   24  C16 UNL     1      27.898   0.241  54.837  1.00  0.00     0.090 C 
HETATM   25  C17 UNL     1      29.072  -0.202  53.991  1.00  0.00     0.058 C 
HETATM   26  C18 UNL     1      28.497  -1.248  53.135  1.00  0.00     0.097 C 
HETATM   27  N5  UNL     1      27.309  -1.284  52.725  1.00  0.00    -0.246 NA
ENDBRANCH   1  22
TORSDOF 3
ENDMDL
MODEL 6
REMARK VINA RESULT:      -8.6      3.127      7.252
REMARK  3 active torsions:
REMARK  status: ('A' for Active; 'I' for Inactive)
REMARK    1  A    between atoms: S1_2  and  C2_3 
REMARK       I    between atoms: C2_3  and  N1_5 
REMARK    2  A    between atoms: C7_12  and  N4_13 
REMARK    3  A    between atoms: N4_13  and  C8_14 
ROOT
HETATM    1  C2  UNL     1      26.665   1.221  52.800  1.00  0.00     0.282 C 
HETATM    2  O1  UNL     1      27.482   1.807  52.022  1.00  0.00    -0.260 OA
HETATM    3  N1  UNL     1      25.442   1.815  52.394  1.00  0.00    -0.338 N 
HETATM    4  C3  UNL     1      25.655   2.777  51.329  1.00  0.00     0.155 C 
HETATM    5  C4  UNL     1      24.471   3.674  51.342  1.00  0.00     0.021 C 
HETATM    6  C5  UNL     1      23.200   3.376  51.669  1.00  0.00     0.046 A 
HETATM    7  N2  UNL     1      22.150   4.346  51.638  1.00  0.00    -0.246 NA
HETATM    8  C6  UNL     1      20.960   3.960  51.999  1.00  0.00     0.235 A 
HETATM    9  N3  UNL     1      20.702   2.622  52.410  1.00  0.00    -0.228 NA
HETATM   10  C7  UNL     1      21.673   1.734  52.434  1.00  0.00     0.117 A 
HETATM   11  C14 UNL     1      23.059   1.947  52.059  1.00  0.00     0.125 A 
HETATM   12  C15 UNL     1      24.128   1.489  52.979  1.00  0.00     0.145 C 
ENDROOT
BRANCH  10  13
HETATM   13  N4  UNL     1      21.264   0.434  52.870  1.00  0.00    -0.344 N 
HETATM   14  H8  UNL     1      22.028  -0.144  53.330  1.00  0.00     0.167 HD
BRANCH  13  15
HETATM   15  C8  UNL     1      19.979  -0.101  52.739  1.00  0.00     0.034 A 
HETATM   16  C9  UNL     1      19.334  -0.911  53.609  1.00  0.00     0.029 A 
HETATM   17  C10 UNL     1      18.056  -1.408  53.429  1.00  0.00     0.004 A 
HETATM   18  C11 UNL     1      17.365  -1.068  52.287  1.00  0.00     0.019 A 
HETATM   19  C12 UNL     1      17.960  -0.255  51.370  1.00  0.00     0.013 A 
HETATM   20 BR1  UNL     1      17.063   0.256  49.766  1.00  0.00    -0.051 Br
HETATM   21  C13 UNL     1      19.236   0.212  51.599  1.00  0.00     0.048 A 
ENDBRANCH  13  15
ENDBRANCH  10  13
BRANCH   1  22
HETATM   22  S1  UNL     1      27.047   0.005  54.028  1.00  0.00    -0.076 SA
HETATM   23  C1  UNL     1      25.672  -0.470  55.060  1.00  0.00     0.102 C 
HETATM   24  C16 UNL     1      28.651   0.229  54.889  1.00  0.00     0.090 C 
HETATM   25  C17 UNL     1      29.562  -0.154  53.743  1.00  0.00     0.058 C 
HETATM   26  C18 UNL     1      28.907  -1.340  53.173  1.00  0.00     0.097 C 
HETATM   27  N5  UNL     1      27.669  -1.554  53.160  1.00  0.00    -0.246 NA
ENDBRANCH   1  22
TORSDOF 3
ENDMDL
MODEL 7
REMARK VINA RESULT:      -8.5      2.711      5.158
REMARK  3 active torsions:
REMARK  status: ('A' for Active; 'I' for Inactive)
REMARK    1  A    between atoms: S1_2  and  C2_3 
REMARK       I    between atoms: C2_3  and  N1_5 
REMARK    2  A    between atoms: C7_12  and  N4_13 
REMARK    3  A    between atoms: N4_13  and  C8_14 
ROOT
HETATM    1  C2  UNL     1      23.971   0.678  52.479  1.00  0.00     0.282 C 
HETATM    2  O1  UNL     1      23.069  -0.131  52.865  1.00  0.00    -0.260 OA
HETATM    3  N1  UNL     1      23.295   1.338  51.420  1.00  0.00    -0.338 N 
HETATM    4  C3  UNL     1      21.948   0.824  51.254  1.00  0.00     0.155 C 
HETATM    5  C4  UNL     1      21.539   1.178  49.871  1.00  0.00     0.021 C 
HETATM    6  C5  UNL     1      21.889   2.257  49.147  1.00  0.00     0.046 A 
HETATM    7  N2  UNL     1      21.417   2.475  47.815  1.00  0.00    -0.246 NA
HETATM    8  C6  UNL     1      21.836   3.539  47.191  1.00  0.00     0.235 A 
HETATM    9  N3  UNL     1      22.732   4.459  47.805  1.00  0.00    -0.228 NA
HETATM   10  C7  UNL     1      23.160   4.254  49.032  1.00  0.00     0.117 A 
HETATM   11  C14 UNL     1      22.807   3.149  49.906  1.00  0.00     0.125 A 
HETATM   12  C15 UNL     1      23.890   2.410  50.599  1.00  0.00     0.145 C 
ENDROOT
BRANCH  10  13
HETATM   13  N4  UNL     1      24.054   5.261  49.515  1.00  0.00    -0.344 N 
HETATM   14  H8  UNL     1      23.646   5.904  50.256  1.00  0.00     0.167 HD
BRANCH  13  15
HETATM   15  C8  UNL     1      25.376   5.443  49.097  1.00  0.00     0.034 A 
HETATM   16  C9  UNL     1      26.394   4.557  49.183  1.00  0.00     0.029 A 
HETATM   17  C10 UNL     1      27.686   4.790  48.747  1.00  0.00     0.004 A 
HETATM   18  C11 UNL     1      27.985   6.008  48.176  1.00  0.00     0.019 A 
HETATM   19  C12 UNL     1      27.002   6.944  48.059  1.00  0.00     0.013 A 
HETATM   20 BR1  UNL     1      27.345   8.651  47.280  1.00  0.00    -0.051 Br
HETATM   21  C13 UNL     1      25.732   6.660  48.511  1.00  0.00     0.048 A 
ENDBRANCH  13  15
ENDBRANCH  10  13
BRANCH   1  22
HETATM   22  S1  UNL     1      25.600   0.857  53.146  1.00  0.00    -0.076 SA
HETATM   23  C1  UNL     1      25.912   2.422  53.943  1.00  0.00     0.102 C 
HETATM   24  C16 UNL     1      26.957   0.211  52.095  1.00  0.00     0.090 C 
HETATM   25  C17 UNL     1      26.682  -1.266  52.277  1.00  0.00     0.058 C 
HETATM   26  C18 UNL     1      26.408  -1.384  53.715  1.00  0.00     0.097 C 
HETATM   27  N5  UNL     1      25.878  -0.499  54.432  1.00  0.00    -0.246 NA
ENDBRANCH   1  22
TORSDOF 3
ENDMDL
MODEL 8
REMARK VINA RESULT:      -8.3      2.367      5.235
REMARK  3 active torsions:
REMARK  status: ('A' for Active; 'I' for Inactive)
REMARK    1  A    between atoms: S1_2  and  C2_3 
REMARK       I    between atoms: C2_3  and  N1_5 
REMARK    2  A    between atoms: C7_12  and  N4_13 
REMARK    3  A    between atoms: N4_13  and  C8_14 
ROOT
HETATM    1  C2  UNL     1      24.078   0.555  53.272  1.00  0.00     0.282 C 
HETATM    2  O1  UNL     1      23.425  -0.442  53.714  1.00  0.00    -0.260 OA
HETATM    3  N1  UNL     1      23.018   1.385  52.822  1.00  0.00    -0.338 N 
HETATM    4  C3  UNL     1      21.728   0.760  53.052  1.00  0.00     0.155 C 
HETATM    5  C4  UNL     1      20.778   1.423  52.123  1.00  0.00     0.021 C 
HETATM    6  C5  UNL     1      20.786   2.697  51.687  1.00  0.00     0.046 A 
HETATM    7  N2  UNL     1      19.802   3.207  50.785  1.00  0.00    -0.246 NA
HETATM    8  C6  UNL     1      19.915   4.448  50.405  1.00  0.00     0.235 A 
HETATM    9  N3  UNL     1      20.977   5.275  50.867  1.00  0.00    -0.228 NA
HETATM   10  C7  UNL     1      21.878   4.799  51.699  1.00  0.00     0.117 A 
HETATM   11  C14 UNL     1      21.930   3.460  52.257  1.00  0.00     0.125 A 
HETATM   12  C15 UNL     1      23.208   2.711  52.205  1.00  0.00     0.145 C 
ENDROOT
BRANCH  10  13
HETATM   13  N4  UNL     1      22.884   5.745  52.074  1.00  0.00    -0.344 N 
HETATM   14  H8  UNL     1      22.922   5.971  53.111  1.00  0.00     0.167 HD
BRANCH  13  15
HETATM   15  C8  UNL     1      23.786   6.361  51.201  1.00  0.00     0.034 A 
HETATM   16  C9  UNL     1      23.842   7.672  50.868  1.00  0.00     0.029 A 
HETATM   17  C10 UNL     1      24.763   8.229  49.999  1.00  0.00     0.004 A 
HETATM   18  C11 UNL     1      25.705   7.411  49.415  1.00  0.00     0.019 A 
HETATM   19  C12 UNL     1      25.702   6.081  49.709  1.00  0.00     0.013 A 
HETATM   20 BR1  UNL     1      26.976   4.891  48.937  1.00  0.00    -0.051 Br
HETATM   21  C13 UNL     1      24.762   5.577  50.582  1.00  0.00     0.048 A 
ENDBRANCH  13  15
ENDBRANCH  10  13
BRANCH   1  22
HETATM   22  S1  UNL     1      25.835   0.762  53.264  1.00  0.00    -0.076 SA
HETATM   23  C1  UNL     1      26.403   2.354  53.832  1.00  0.00     0.102 C 
HETATM   24  C16 UNL     1      26.702   0.082  51.797  1.00  0.00     0.090 C 
HETATM   25  C17 UNL     1      26.538  -1.389  52.116  1.00  0.00     0.058 C 
HETATM   26  C18 UNL     1      26.833  -1.457  53.554  1.00  0.00     0.097 C 
HETATM   27  N5  UNL     1      26.602  -0.548  54.390  1.00  0.00    -0.246 NA
ENDBRANCH   1  22
TORSDOF 3
ENDMDL
MODEL 9
REMARK VINA RESULT:      -8.1      2.756      3.484
REMARK  3 active torsions:
REMARK  status: ('A' for Active; 'I' for Inactive)
REMARK    1  A    between atoms: S1_2  and  C2_3 
REMARK       I    between atoms: C2_3  and  N1_5 
REMARK    2  A    between atoms: C7_12  and  N4_13 
REMARK    3  A    between atoms: N4_13  and  C8_14 
ROOT
HETATM    1  C2  UNL     1      21.164   2.491  51.260  1.00  0.00     0.282 C 
HETATM    2  O1  UNL     1      20.523   1.597  51.897  1.00  0.00    -0.260 OA
HETATM    3  N1  UNL     1      22.499   2.157  51.607  1.00  0.00    -0.338 N 
HETATM    4  C3  UNL     1      22.538   1.005  52.490  1.00  0.00     0.155 C 
HETATM    5  C4  UNL     1      23.853   1.060  53.180  1.00  0.00     0.021 C 
HETATM    6  C5  UNL     1      25.024   1.528  52.710  1.00  0.00     0.046 A 
HETATM    7  N2  UNL     1      26.223   1.521  53.489  1.00  0.00    -0.246 NA
HETATM    8  C6  UNL     1      27.298   2.020  52.949  1.00  0.00     0.235 A 
HETATM    9  N3  UNL     1      27.291   2.556  51.631  1.00  0.00    -0.228 NA
HETATM   10  C7  UNL     1      26.184   2.557  50.918  1.00  0.00     0.117 A 
HETATM   11  C14 UNL     1      24.888   2.038  51.318  1.00  0.00     0.125 A 
HETATM   12  C15 UNL     1      23.687   2.886  51.128  1.00  0.00     0.145 C 
ENDROOT
BRANCH  10  13
HETATM   13  N4  UNL     1      26.329   3.128  49.615  1.00  0.00    -0.344 N 
HETATM   14  H8  UNL     1      26.267   2.434  48.813  1.00  0.00     0.167 HD
BRANCH  13  15
HETATM   15  C8  UNL     1      26.534   4.483  49.339  1.00  0.00     0.034 A 
HETATM   16  C9  UNL     1      25.710   5.515  49.632  1.00  0.00     0.029 A 
HETATM   17  C10 UNL     1      25.967   6.842  49.338  1.00  0.00     0.004 A 
HETATM   18  C11 UNL     1      27.145   7.165  48.701  1.00  0.00     0.019 A 
HETATM   19  C12 UNL     1      28.018   6.171  48.378  1.00  0.00     0.013 A 
HETATM   20 BR1  UNL     1      29.666   6.547  47.494  1.00  0.00    -0.051 Br
HETATM   21  C13 UNL     1      27.713   4.866  48.693  1.00  0.00     0.048 A 
ENDBRANCH  13  15
ENDBRANCH  10  13
BRANCH   1  22
HETATM   22  S1  UNL     1      20.485   3.768  50.240  1.00  0.00    -0.076 SA
HETATM   23  C1  UNL     1      21.045   5.414  50.633  1.00  0.00     0.102 C 
HETATM   24  C16 UNL     1      18.699   3.603  49.855  1.00  0.00     0.090 C 
HETATM   25  C17 UNL     1      18.794   2.430  48.904  1.00  0.00     0.058 C 
HETATM   26  C18 UNL     1      19.955   2.766  48.068  1.00  0.00     0.097 C 
HETATM   27  N5  UNL     1      20.959   3.422  48.444  1.00  0.00    -0.246 NA
ENDBRANCH   1  22
TORSDOF 3
ENDMDL
