MODEL 1
REMARK VINA RESULT:      -7.8      0.000      0.000
REMARK  10 active torsions:
REMARK  status: ('A' for Active; 'I' for Inactive)
REMARK    1  A    between atoms: C3_3  and  C5_5 
REMARK    2  A    between atoms: C5_5  and  O1_7 
REMARK    3  A    between atoms: C5_5  and  C7_8 
REMARK    4  A    between atoms: C8_9  and  C10_11 
REMARK    5  A    between atoms: C10_11  and  C11_12 
REMARK    6  A    between atoms: C11_12  and  C12_13 
REMARK    7  A    between atoms: C12_13  and  C13_14 
REMARK    8  A    between atoms: C13_14  and  C15_16 
REMARK    9  A    between atoms: C15_16  and  C16_17 
REMARK   10  A    between atoms: C21_23  and  O3_24 
ROOT
HETATM    1  C12 UNL     1      22.262   0.362  52.878  1.00  0.00     0.031 C 
ENDROOT
BRANCH   1   2
HETATM    2  C11 UNL     1      22.530   1.204  51.687  1.00  0.00    -0.026 C 
BRANCH   2   3
HETATM    3  C10 UNL     1      23.050   2.101  50.906  1.00  0.00     0.002 C 
BRANCH   3   4
HETATM    4  C8  UNL     1      23.160   2.491  49.507  1.00  0.00    -0.063 C 
HETATM    5  C7  UNL     1      24.211   3.267  49.411  1.00  0.00     0.021 C 
HETATM    6  C9  UNL     1      22.077   1.896  48.694  1.00  0.00     0.048 C 
BRANCH   5   7
HETATM    7  C5  UNL     1      25.242   3.798  50.338  1.00  0.00     0.095 C 
HETATM    8  C6  UNL     1      26.111   2.656  50.809  1.00  0.00     0.055 C 
BRANCH   7   9
HETATM    9  C3  UNL     1      26.016   4.798  49.557  1.00  0.00    -0.051 C 
HETATM   10  C2  UNL     1      25.799   6.064  49.271  1.00  0.00    -0.025 C 
HETATM   11  C1  UNL     1      26.858   6.707  48.442  1.00  0.00     0.036 C 
HETATM   12  C4  UNL     1      27.259   4.251  49.010  1.00  0.00     0.046 C 
ENDBRANCH   7   9
BRANCH   7  13
HETATM   13  O1  UNL     1      24.555   4.407  51.396  1.00  0.00    -0.382 OA
HETATM   14  H11 UNL     1      24.002   5.173  51.062  1.00  0.00     0.211 HD
ENDBRANCH   7  13
ENDBRANCH   5   7
ENDBRANCH   3   4
ENDBRANCH   2   3
ENDBRANCH   1   2
BRANCH   1  15
HETATM   15  C13 UNL     1      23.563  -0.055  53.539  1.00  0.00    -0.009 C 
HETATM   16  C14 UNL     1      23.343  -0.862  54.771  1.00  0.00     0.010 C 
BRANCH  15  17
HETATM   17  C15 UNL     1      24.478  -0.644  52.526  1.00  0.00     0.070 C 
BRANCH  17  18
HETATM   18  C16 UNL     1      25.902  -0.690  52.908  1.00  0.00     0.060 A 
HETATM   19  C17 UNL     1      26.576  -1.881  52.626  1.00  0.00     0.088 A 
HETATM   20  C18 UNL     1      27.918  -1.897  52.996  1.00  0.00     0.184 A 
HETATM   21  O2  UNL     1      28.555  -2.940  52.763  1.00  0.00    -0.288 OA
HETATM   22  C19 UNL     1      28.504  -0.783  53.602  1.00  0.00     0.046 A 
HETATM   23  C20 UNL     1      29.935  -0.944  53.941  1.00  0.00     0.058 C 
HETATM   24  C21 UNL     1      27.741   0.342  53.832  1.00  0.00     0.195 A 
HETATM   25  O4  UNL     1      26.457   0.371  53.484  1.00  0.00    -0.292 OA
BRANCH  24  26
HETATM   26  O3  UNL     1      28.396   1.411  54.440  1.00  0.00    -0.335 OA
HETATM   27  C22 UNL     1      28.686   2.547  53.618  1.00  0.00     0.212 C 
ENDBRANCH  24  26
ENDBRANCH  17  18
ENDBRANCH  15  17
ENDBRANCH   1  15
TORSDOF 10
ENDMDL
MODEL 2
REMARK VINA RESULT:      -7.7      1.130      2.241
REMARK  10 active torsions:
REMARK  status: ('A' for Active; 'I' for Inactive)
REMARK    1  A    between atoms: C3_3  and  C5_5 
REMARK    2  A    between atoms: C5_5  and  O1_7 
REMARK    3  A    between atoms: C5_5  and  C7_8 
REMARK    4  A    between atoms: C8_9  and  C10_11 
REMARK    5  A    between atoms: C10_11  and  C11_12 
REMARK    6  A    between atoms: C11_12  and  C12_13 
REMARK    7  A    between atoms: C12_13  and  C13_14 
REMARK    8  A    between atoms: C13_14  and  C15_16 
REMARK    9  A    between atoms: C15_16  and  C16_17 
REMARK   10  A    between atoms: C21_23  and  O3_24 
ROOT
HETATM    1  C12 UNL     1      21.908   0.118  52.074  1.00  0.00     0.031 C 
ENDROOT
BRANCH   1   2
HETATM    2  C11 UNL     1      22.589   0.979  51.077  1.00  0.00    -0.026 C 
BRANCH   2   3
HETATM    3  C10 UNL     1      23.121   2.016  50.507  1.00  0.00     0.002 C 
BRANCH   3   4
HETATM    4  C8  UNL     1      23.110   2.788  49.271  1.00  0.00    -0.063 C 
HETATM    5  C7  UNL     1      24.208   3.503  49.261  1.00  0.00     0.021 C 
HETATM    6  C9  UNL     1      21.896   2.511  48.473  1.00  0.00     0.048 C 
BRANCH   5   7
HETATM    7  C5  UNL     1      25.377   3.690  50.157  1.00  0.00     0.095 C 
HETATM    8  C6  UNL     1      26.134   2.386  50.249  1.00  0.00     0.055 C 
BRANCH   7   9
HETATM    9  C3  UNL     1      26.195   4.764  49.540  1.00  0.00    -0.051 C 
HETATM   10  C2  UNL     1      27.300   4.741  48.824  1.00  0.00    -0.025 C 
HETATM   11  C1  UNL     1      27.793   6.080  48.393  1.00  0.00     0.036 C 
HETATM   12  C4  UNL     1      25.650   6.102  49.781  1.00  0.00     0.046 C 
ENDBRANCH   7   9
BRANCH   7  13
HETATM   13  O1  UNL     1      24.870   4.092  51.400  1.00  0.00    -0.382 OA
HETATM   14  H11 UNL     1      25.251   3.525  52.134  1.00  0.00     0.211 HD
ENDBRANCH   7  13
ENDBRANCH   5   7
ENDBRANCH   3   4
ENDBRANCH   2   3
ENDBRANCH   1   2
BRANCH   1  15
HETATM   15  C13 UNL     1      22.684   0.096  53.378  1.00  0.00    -0.009 C 
HETATM   16  C14 UNL     1      21.798  -0.043  54.566  1.00  0.00     0.010 C 
BRANCH  15  17
HETATM   17  C15 UNL     1      23.807  -0.874  53.281  1.00  0.00     0.070 C 
BRANCH  17  18
HETATM   18  C16 UNL     1      25.152  -0.313  53.507  1.00  0.00     0.060 A 
HETATM   19  C17 UNL     1      25.236   1.081  53.561  1.00  0.00     0.088 A 
HETATM   20  C18 UNL     1      26.516   1.582  53.775  1.00  0.00     0.184 A 
HETATM   21  O2  UNL     1      26.636   2.819  53.829  1.00  0.00    -0.288 OA
HETATM   22  C19 UNL     1      27.606   0.720  53.921  1.00  0.00     0.046 A 
HETATM   23  C20 UNL     1      28.904   1.394  54.142  1.00  0.00     0.058 C 
HETATM   24  C21 UNL     1      27.405  -0.642  53.850  1.00  0.00     0.195 A 
HETATM   25  O4  UNL     1      26.186  -1.136  53.645  1.00  0.00    -0.292 OA
BRANCH  24  26
HETATM   26  O3  UNL     1      28.539  -1.436  54.004  1.00  0.00    -0.335 OA
HETATM   27  C22 UNL     1      28.878  -2.303  52.917  1.00  0.00     0.212 C 
ENDBRANCH  24  26
ENDBRANCH  17  18
ENDBRANCH  15  17
ENDBRANCH   1  15
TORSDOF 10
ENDMDL
MODEL 3
REMARK VINA RESULT:      -7.6      1.618      6.392
REMARK  10 active torsions:
REMARK  status: ('A' for Active; 'I' for Inactive)
REMARK    1  A    between atoms: C3_3  and  C5_5 
REMARK    2  A    between atoms: C5_5  and  O1_7 
REMARK    3  A    between atoms: C5_5  and  C7_8 
REMARK    4  A    between atoms: C8_9  and  C10_11 
REMARK    5  A    between atoms: C10_11  and  C11_12 
REMARK    6  A    between atoms: C11_12  and  C12_13 
REMARK    7  A    between atoms: C12_13  and  C13_14 
REMARK    8  A    between atoms: C13_14  and  C15_16 
REMARK    9  A    between atoms: C15_16  and  C16_17 
REMARK   10  A    between atoms: C21_23  and  O3_24 
ROOT
HETATM    1  C12 UNL     1      21.587   0.638  51.097  1.00  0.00     0.031 C 
ENDROOT
BRANCH   1   2
HETATM    2  C11 UNL     1      22.535   0.718  52.234  1.00  0.00    -0.026 C 
BRANCH   2   3
HETATM    3  C10 UNL     1      23.561   0.498  52.998  1.00  0.00     0.002 C 
BRANCH   3   4
HETATM    4  C8  UNL     1      24.072  -0.414  54.013  1.00  0.00    -0.063 C 
HETATM    5  C7  UNL     1      25.379  -0.336  53.969  1.00  0.00     0.021 C 
HETATM    6  C9  UNL     1      22.972  -1.097  54.727  1.00  0.00     0.048 C 
BRANCH   5   7
HETATM    7  C5  UNL     1      26.385   0.417  53.177  1.00  0.00     0.095 C 
HETATM    8  C6  UNL     1      26.495   1.816  53.733  1.00  0.00     0.055 C 
BRANCH   7   9
HETATM    9  C3  UNL     1      27.657  -0.337  53.313  1.00  0.00    -0.051 C 
HETATM   10  C2  UNL     1      28.849   0.003  53.757  1.00  0.00    -0.025 C 
HETATM   11  C1  UNL     1      29.863  -1.089  53.721  1.00  0.00     0.036 C 
HETATM   12  C4  UNL     1      27.544  -1.726  52.865  1.00  0.00     0.046 C 
ENDBRANCH   7   9
BRANCH   7  13
HETATM   13  O1  UNL     1      25.935   0.413  51.850  1.00  0.00    -0.382 OA
HETATM   14  H11 UNL     1      26.657   0.087  51.236  1.00  0.00     0.211 HD
ENDBRANCH   7  13
ENDBRANCH   5   7
ENDBRANCH   3   4
ENDBRANCH   2   3
ENDBRANCH   1   2
BRANCH   1  15
HETATM   15  C13 UNL     1      22.060   1.508  49.947  1.00  0.00    -0.009 C 
HETATM   16  C14 UNL     1      21.250   1.312  48.713  1.00  0.00     0.010 C 
BRANCH  15  17
HETATM   17  C15 UNL     1      22.219   2.912  50.409  1.00  0.00     0.070 C 
BRANCH  17  18
HETATM   18  C16 UNL     1      23.465   3.581  49.987  1.00  0.00     0.060 A 
HETATM   19  C17 UNL     1      24.656   2.982  50.404  1.00  0.00     0.088 A 
HETATM   20  C18 UNL     1      25.815   3.633  49.992  1.00  0.00     0.184 A 
HETATM   21  O2  UNL     1      26.899   3.133  50.343  1.00  0.00    -0.288 OA
HETATM   22  C19 UNL     1      25.744   4.796  49.221  1.00  0.00     0.046 A 
HETATM   23  C20 UNL     1      27.055   5.379  48.859  1.00  0.00     0.058 C 
HETATM   24  C21 UNL     1      24.511   5.300  48.867  1.00  0.00     0.195 A 
HETATM   25  O4  UNL     1      23.394   4.687  49.254  1.00  0.00    -0.292 OA
BRANCH  24  26
HETATM   26  O3  UNL     1      24.522   6.461  48.099  1.00  0.00    -0.335 OA
HETATM   27  C22 UNL     1      23.692   7.541  48.540  1.00  0.00     0.212 C 
ENDBRANCH  24  26
ENDBRANCH  17  18
ENDBRANCH  15  17
ENDBRANCH   1  15
TORSDOF 10
ENDMDL
MODEL 4
REMARK VINA RESULT:      -7.4      2.834      6.808
REMARK  10 active torsions:
REMARK  status: ('A' for Active; 'I' for Inactive)
REMARK    1  A    between atoms: C3_3  and  C5_5 
REMARK    2  A    between atoms: C5_5  and  O1_7 
REMARK    3  A    between atoms: C5_5  and  C7_8 
REMARK    4  A    between atoms: C8_9  and  C10_11 
REMARK    5  A    between atoms: C10_11  and  C11_12 
REMARK    6  A    between atoms: C11_12  and  C12_13 
REMARK    7  A    between atoms: C12_13  and  C13_14 
REMARK    8  A    between atoms: C13_14  and  C15_16 
REMARK    9  A    between atoms: C15_16  and  C16_17 
REMARK   10  A    between atoms: C21_23  and  O3_24 
ROOT
HETATM    1  C12 UNL     1      22.511   3.452  52.037  1.00  0.00     0.031 C 
ENDROOT
BRANCH   1   2
HETATM    2  C11 UNL     1      23.938   3.231  52.376  1.00  0.00    -0.026 C 
BRANCH   2   3
HETATM    3  C10 UNL     1      25.132   2.725  52.399  1.00  0.00     0.002 C 
BRANCH   3   4
HETATM    4  C8  UNL     1      26.196   2.232  51.533  1.00  0.00    -0.063 C 
HETATM    5  C7  UNL     1      26.772   1.241  52.167  1.00  0.00     0.021 C 
HETATM    6  C9  UNL     1      26.260   2.998  50.269  1.00  0.00     0.048 C 
BRANCH   5   7
HETATM    7  C5  UNL     1      26.599   0.555  53.472  1.00  0.00     0.095 C 
HETATM    8  C6  UNL     1      25.363  -0.310  53.409  1.00  0.00     0.055 C 
BRANCH   7   9
HETATM    9  C3  UNL     1      27.830  -0.251  53.675  1.00  0.00    -0.051 C 
HETATM   10  C2  UNL     1      28.344  -1.270  53.019  1.00  0.00    -0.025 C 
HETATM   11  C1  UNL     1      29.627  -1.787  53.575  1.00  0.00     0.036 C 
HETATM   12  C4  UNL     1      28.614   0.192  54.830  1.00  0.00     0.046 C 
ENDBRANCH   7   9
BRANCH   7  13
HETATM   13  O1  UNL     1      26.488   1.559  54.442  1.00  0.00    -0.382 OA
HETATM   14  H11 UNL     1      27.098   1.371  55.215  1.00  0.00     0.211 HD
ENDBRANCH   7  13
ENDBRANCH   5   7
ENDBRANCH   3   4
ENDBRANCH   2   3
ENDBRANCH   1   2
BRANCH   1  15
HETATM   15  C13 UNL     1      22.193   2.870  50.672  1.00  0.00    -0.009 C 
HETATM   16  C14 UNL     1      22.917   3.567  49.573  1.00  0.00     0.010 C 
BRANCH  15  17
HETATM   17  C15 UNL     1      22.328   1.390  50.709  1.00  0.00     0.070 C 
BRANCH  17  18
HETATM   18  C16 UNL     1      21.266   0.675  51.441  1.00  0.00     0.060 A 
HETATM   19  C17 UNL     1      19.993   0.709  50.866  1.00  0.00     0.088 A 
HETATM   20  C18 UNL     1      19.010   0.025  51.577  1.00  0.00     0.184 A 
HETATM   21  O2  UNL     1      17.862   0.031  51.099  1.00  0.00    -0.288 OA
HETATM   22  C19 UNL     1      19.320  -0.632  52.770  1.00  0.00     0.046 A 
HETATM   23  C20 UNL     1      18.176  -1.314  53.415  1.00  0.00     0.058 C 
HETATM   24  C21 UNL     1      20.614  -0.599  53.245  1.00  0.00     0.195 A 
HETATM   25  O4  UNL     1      21.563   0.051  52.576  1.00  0.00    -0.292 OA
BRANCH  24  26
HETATM   26  O3  UNL     1      20.844  -1.276  54.440  1.00  0.00    -0.335 OA
HETATM   27  C22 UNL     1      22.160  -1.184  54.996  1.00  0.00     0.212 C 
ENDBRANCH  24  26
ENDBRANCH  17  18
ENDBRANCH  15  17
ENDBRANCH   1  15
TORSDOF 10
ENDMDL
MODEL 5
REMARK VINA RESULT:      -7.4      2.407      4.810
REMARK  10 active torsions:
REMARK  status: ('A' for Active; 'I' for Inactive)
REMARK    1  A    between atoms: C3_3  and  C5_5 
REMARK    2  A    between atoms: C5_5  and  O1_7 
REMARK    3  A    between atoms: C5_5  and  C7_8 
REMARK    4  A    between atoms: C8_9  and  C10_11 
REMARK    5  A    between atoms: C10_11  and  C11_12 
REMARK    6  A    between atoms: C11_12  and  C12_13 
REMARK    7  A    between atoms: C12_13  and  C13_14 
REMARK    8  A    between atoms: C13_14  and  C15_16 
REMARK    9  A    between atoms: C15_16  and  C16_17 
REMARK   10  A    between atoms: C21_23  and  O3_24 
ROOT
HETATM    1  C12 UNL     1      26.762   1.344  51.585  1.00  0.00     0.031 C 
ENDROOT
BRANCH   1   2
HETATM    2  C11 UNL     1      25.837   2.393  51.092  1.00  0.00    -0.026 C 
BRANCH   2   3
HETATM    3  C10 UNL     1      25.384   3.447  50.485  1.00  0.00     0.002 C 
BRANCH   3   4
HETATM    4  C8  UNL     1      24.417   3.877  49.483  1.00  0.00    -0.063 C 
HETATM    5  C7  UNL     1      24.908   4.954  48.921  1.00  0.00     0.021 C 
HETATM    6  C9  UNL     1      23.244   2.977  49.443  1.00  0.00     0.048 C 
BRANCH   5   7
HETATM    7  C5  UNL     1      26.137   5.775  49.063  1.00  0.00     0.095 C 
HETATM    8  C6  UNL     1      27.337   4.917  48.743  1.00  0.00     0.055 C 
BRANCH   7   9
HETATM    9  C3  UNL     1      25.988   6.900  48.104  1.00  0.00    -0.051 C 
HETATM   10  C2  UNL     1      26.864   7.664  47.487  1.00  0.00    -0.025 C 
HETATM   11  C1  UNL     1      26.270   8.695  46.588  1.00  0.00     0.036 C 
HETATM   12  C4  UNL     1      24.589   7.199  47.795  1.00  0.00     0.046 C 
ENDBRANCH   7   9
BRANCH   7  13
HETATM   13  O1  UNL     1      26.160   6.239  50.385  1.00  0.00    -0.382 OA
HETATM   14  H11 UNL     1      26.254   7.236  50.406  1.00  0.00     0.211 HD
ENDBRANCH   7  13
ENDBRANCH   5   7
ENDBRANCH   3   4
ENDBRANCH   2   3
ENDBRANCH   1   2
BRANCH   1  15
HETATM   15  C13 UNL     1      25.984   0.201  52.211  1.00  0.00    -0.009 C 
HETATM   16  C14 UNL     1      26.828  -1.006  52.437  1.00  0.00     0.010 C 
BRANCH  15  17
HETATM   17  C15 UNL     1      25.220   0.694  53.387  1.00  0.00     0.070 C 
BRANCH  17  18
HETATM   18  C16 UNL     1      23.785   0.353  53.400  1.00  0.00     0.060 A 
HETATM   19  C17 UNL     1      23.412  -0.708  54.228  1.00  0.00     0.088 A 
HETATM   20  C18 UNL     1      22.053  -1.007  54.221  1.00  0.00     0.184 A 
HETATM   21  O2  UNL     1      21.678  -1.947  54.945  1.00  0.00    -0.288 OA
HETATM   22  C19 UNL     1      21.165  -0.275  53.429  1.00  0.00     0.046 A 
HETATM   23  C20 UNL     1      19.753  -0.707  53.522  1.00  0.00     0.058 C 
HETATM   24  C21 UNL     1      21.646   0.754  52.648  1.00  0.00     0.195 A 
HETATM   25  O4  UNL     1      22.943   1.052  52.644  1.00  0.00    -0.292 OA
BRANCH  24  26
HETATM   26  O3  UNL     1      20.700   1.437  51.886  1.00  0.00    -0.335 OA
HETATM   27  C22 UNL     1      20.313   2.737  52.343  1.00  0.00     0.212 C 
ENDBRANCH  24  26
ENDBRANCH  17  18
ENDBRANCH  15  17
ENDBRANCH   1  15
TORSDOF 10
ENDMDL
MODEL 6
REMARK VINA RESULT:      -7.4      2.664      6.599
REMARK  10 active torsions:
REMARK  status: ('A' for Active; 'I' for Inactive)
REMARK    1  A    between atoms: C3_3  and  C5_5 
REMARK    2  A    between atoms: C5_5  and  O1_7 
REMARK    3  A    between atoms: C5_5  and  C7_8 
REMARK    4  A    between atoms: C8_9  and  C10_11 
REMARK    5  A    between atoms: C10_11  and  C11_12 
REMARK    6  A    between atoms: C11_12  and  C12_13 
REMARK    7  A    between atoms: C12_13  and  C13_14 
REMARK    8  A    between atoms: C13_14  and  C15_16 
REMARK    9  A    between atoms: C15_16  and  C16_17 
REMARK   10  A    between atoms: C21_23  and  O3_24 
ROOT
HETATM    1  C12 UNL     1      22.954  -1.060  54.655  1.00  0.00     0.031 C 
ENDROOT
BRANCH   1   2
HETATM    2  C11 UNL     1      24.293  -0.887  54.041  1.00  0.00    -0.026 C 
BRANCH   2   3
HETATM    3  C10 UNL     1      25.570  -0.700  53.907  1.00  0.00     0.002 C 
BRANCH   3   4
HETATM    4  C8  UNL     1      26.663  -0.832  52.953  1.00  0.00    -0.063 C 
HETATM    5  C7  UNL     1      27.275   0.326  52.916  1.00  0.00     0.021 C 
HETATM    6  C9  UNL     1      26.709  -2.189  52.367  1.00  0.00     0.048 C 
BRANCH   5   7
HETATM    7  C5  UNL     1      27.119   1.646  53.579  1.00  0.00     0.095 C 
HETATM    8  C6  UNL     1      28.425   2.397  53.486  1.00  0.00     0.055 C 
BRANCH   7   9
HETATM    9  C3  UNL     1      26.027   2.340  52.850  1.00  0.00    -0.051 C 
HETATM   10  C2  UNL     1      24.868   2.829  53.239  1.00  0.00    -0.025 C 
HETATM   11  C1  UNL     1      24.062   3.462  52.156  1.00  0.00     0.036 C 
HETATM   12  C4  UNL     1      26.315   2.508  51.424  1.00  0.00     0.046 C 
ENDBRANCH   7   9
BRANCH   7  13
HETATM   13  O1  UNL     1      26.755   1.388  54.907  1.00  0.00    -0.382 OA
HETATM   14  H11 UNL     1      27.471   1.700  55.534  1.00  0.00     0.211 HD
ENDBRANCH   7  13
ENDBRANCH   5   7
ENDBRANCH   3   4
ENDBRANCH   2   3
ENDBRANCH   1   2
BRANCH   1  15
HETATM   15  C13 UNL     1      21.864  -0.669  53.674  1.00  0.00    -0.009 C 
HETATM   16  C14 UNL     1      20.556  -1.308  53.991  1.00  0.00     0.010 C 
BRANCH  15  17
HETATM   17  C15 UNL     1      21.846   0.808  53.502  1.00  0.00     0.070 C 
BRANCH  17  18
HETATM   18  C16 UNL     1      21.221   1.294  52.257  1.00  0.00     0.060 A 
HETATM   19  C17 UNL     1      21.706   0.742  51.069  1.00  0.00     0.088 A 
HETATM   20  C18 UNL     1      21.099   1.218  49.911  1.00  0.00     0.184 A 
HETATM   21  O2  UNL     1      21.502   0.752  48.830  1.00  0.00    -0.288 OA
HETATM   22  C19 UNL     1      20.084   2.176  49.979  1.00  0.00     0.046 A 
HETATM   23  C20 UNL     1      19.533   2.588  48.669  1.00  0.00     0.058 C 
HETATM   24  C21 UNL     1      19.684   2.652  51.210  1.00  0.00     0.195 A 
HETATM   25  O4  UNL     1      20.256   2.206  52.326  1.00  0.00    -0.292 OA
BRANCH  24  26
HETATM   26  O3  UNL     1      18.669   3.605  51.196  1.00  0.00    -0.335 OA
HETATM   27  C22 UNL     1      17.368   3.175  51.613  1.00  0.00     0.212 C 
ENDBRANCH  24  26
ENDBRANCH  17  18
ENDBRANCH  15  17
ENDBRANCH   1  15
TORSDOF 10
ENDMDL
MODEL 7
REMARK VINA RESULT:      -7.4      2.375      6.575
REMARK  10 active torsions:
REMARK  status: ('A' for Active; 'I' for Inactive)
REMARK    1  A    between atoms: C3_3  and  C5_5 
REMARK    2  A    between atoms: C5_5  and  O1_7 
REMARK    3  A    between atoms: C5_5  and  C7_8 
REMARK    4  A    between atoms: C8_9  and  C10_11 
REMARK    5  A    between atoms: C10_11  and  C11_12 
REMARK    6  A    between atoms: C11_12  and  C12_13 
REMARK    7  A    between atoms: C12_13  and  C13_14 
REMARK    8  A    between atoms: C13_14  and  C15_16 
REMARK    9  A    between atoms: C15_16  and  C16_17 
REMARK   10  A    between atoms: C21_23  and  O3_24 
ROOT
HETATM    1  C12 UNL     1      21.446  -0.241  54.227  1.00  0.00     0.031 C 
ENDROOT
BRANCH   1   2
HETATM    2  C11 UNL     1      22.854  -0.098  53.785  1.00  0.00    -0.026 C 
BRANCH   2   3
HETATM    3  C10 UNL     1      23.915   0.343  53.182  1.00  0.00     0.002 C 
BRANCH   3   4
HETATM    4  C8  UNL     1      24.881   1.434  53.194  1.00  0.00    -0.063 C 
HETATM    5  C7  UNL     1      26.060   0.895  53.388  1.00  0.00     0.021 C 
HETATM    6  C9  UNL     1      24.222   2.741  52.988  1.00  0.00     0.048 C 
BRANCH   5   7
HETATM    7  C5  UNL     1      26.594  -0.477  53.584  1.00  0.00     0.095 C 
HETATM    8  C6  UNL     1      26.198  -1.329  52.403  1.00  0.00     0.055 C 
BRANCH   7   9
HETATM    9  C3  UNL     1      28.068  -0.327  53.690  1.00  0.00    -0.051 C 
HETATM   10  C2  UNL     1      29.067  -1.133  53.399  1.00  0.00    -0.025 C 
HETATM   11  C1  UNL     1      30.422  -0.570  53.664  1.00  0.00     0.036 C 
HETATM   12  C4  UNL     1      28.469   0.978  54.220  1.00  0.00     0.046 C 
ENDBRANCH   7   9
BRANCH   7  13
HETATM   13  O1  UNL     1      26.048  -0.953  54.782  1.00  0.00    -0.382 OA
HETATM   14  H11 UNL     1      26.699  -1.554  55.251  1.00  0.00     0.211 HD
ENDBRANCH   7  13
ENDBRANCH   5   7
ENDBRANCH   3   4
ENDBRANCH   2   3
ENDBRANCH   1   2
BRANCH   1  15
HETATM   15  C13 UNL     1      20.496   0.047  53.080  1.00  0.00    -0.009 C 
HETATM   16  C14 UNL     1      19.194  -0.662  53.225  1.00  0.00     0.010 C 
BRANCH  15  17
HETATM   17  C15 UNL     1      20.419   1.513  52.844  1.00  0.00     0.070 C 
BRANCH  17  18
HETATM   18  C16 UNL     1      20.916   1.972  51.532  1.00  0.00     0.060 A 
HETATM   19  C17 UNL     1      21.057   0.988  50.550  1.00  0.00     0.088 A 
HETATM   20  C18 UNL     1      21.526   1.449  49.323  1.00  0.00     0.184 A 
HETATM   21  O2  UNL     1      21.667   0.604  48.420  1.00  0.00    -0.288 OA
HETATM   22  C19 UNL     1      21.821   2.801  49.134  1.00  0.00     0.046 A 
HETATM   23  C20 UNL     1      22.311   3.144  47.780  1.00  0.00     0.058 C 
HETATM   24  C21 UNL     1      21.643   3.685  50.177  1.00  0.00     0.195 A 
HETATM   25  O4  UNL     1      21.195   3.259  51.355  1.00  0.00    -0.292 OA
BRANCH  24  26
HETATM   26  O3  UNL     1      21.958   5.016  49.911  1.00  0.00    -0.335 OA
HETATM   27  C22 UNL     1      23.077   5.571  50.611  1.00  0.00     0.212 C 
ENDBRANCH  24  26
ENDBRANCH  17  18
ENDBRANCH  15  17
ENDBRANCH   1  15
TORSDOF 10
ENDMDL
MODEL 8
REMARK VINA RESULT:      -7.3      2.049      6.508
REMARK  10 active torsions:
REMARK  status: ('A' for Active; 'I' for Inactive)
REMARK    1  A    between atoms: C3_3  and  C5_5 
REMARK    2  A    between atoms: C5_5  and  O1_7 
REMARK    3  A    between atoms: C5_5  and  C7_8 
REMARK    4  A    between atoms: C8_9  and  C10_11 
REMARK    5  A    between atoms: C10_11  and  C11_12 
REMARK    6  A    between atoms: C11_12  and  C12_13 
REMARK    7  A    between atoms: C12_13  and  C13_14 
REMARK    8  A    between atoms: C13_14  and  C15_16 
REMARK    9  A    between atoms: C15_16  and  C16_17 
REMARK   10  A    between atoms: C21_23  and  O3_24 
ROOT
HETATM    1  C12 UNL     1      22.081   1.552  50.066  1.00  0.00     0.031 C 
ENDROOT
BRANCH   1   2
HETATM    2  C11 UNL     1      22.733   1.638  51.395  1.00  0.00    -0.026 C 
BRANCH   2   3
HETATM    3  C10 UNL     1      23.606   1.882  52.323  1.00  0.00     0.002 C 
BRANCH   3   4
HETATM    4  C8  UNL     1      24.359   2.963  52.946  1.00  0.00    -0.063 C 
HETATM    5  C7  UNL     1      25.522   2.467  53.289  1.00  0.00     0.021 C 
HETATM    6  C9  UNL     1      23.577   4.218  52.976  1.00  0.00     0.048 C 
BRANCH   5   7
HETATM    7  C5  UNL     1      26.197   1.147  53.195  1.00  0.00     0.095 C 
HETATM    8  C6  UNL     1      26.268   0.738  51.743  1.00  0.00     0.055 C 
BRANCH   7   9
HETATM    9  C3  UNL     1      27.547   1.338  53.784  1.00  0.00    -0.051 C 
HETATM   10  C2  UNL     1      28.417   2.323  53.713  1.00  0.00    -0.025 C 
HETATM   11  C1  UNL     1      29.678   2.099  54.477  1.00  0.00     0.036 C 
HETATM   12  C4  UNL     1      27.975   0.201  54.601  1.00  0.00     0.046 C 
ENDBRANCH   7   9
BRANCH   7  13
HETATM   13  O1  UNL     1      25.436   0.251  53.956  1.00  0.00    -0.382 OA
HETATM   14  H11 UNL     1      24.488   0.231  53.631  1.00  0.00     0.211 HD
ENDBRANCH   7  13
ENDBRANCH   5   7
ENDBRANCH   3   4
ENDBRANCH   2   3
ENDBRANCH   1   2
BRANCH   1  15
HETATM   15  C13 UNL     1      22.849   2.370  49.043  1.00  0.00    -0.009 C 
HETATM   16  C14 UNL     1      22.447   2.055  47.644  1.00  0.00     0.010 C 
BRANCH  15  17
HETATM   17  C15 UNL     1      22.823   3.807  49.424  1.00  0.00     0.070 C 
BRANCH  17  18
HETATM   18  C16 UNL     1      24.066   4.555  49.158  1.00  0.00     0.060 A 
HETATM   19  C17 UNL     1      25.260   3.891  49.454  1.00  0.00     0.088 A 
HETATM   20  C18 UNL     1      26.416   4.620  49.194  1.00  0.00     0.184 A 
HETATM   21  O2  UNL     1      27.501   4.065  49.444  1.00  0.00    -0.288 OA
HETATM   22  C19 UNL     1      26.342   5.916  48.676  1.00  0.00     0.046 A 
HETATM   23  C20 UNL     1      27.650   6.568  48.451  1.00  0.00     0.058 C 
HETATM   24  C21 UNL     1      25.107   6.473  48.422  1.00  0.00     0.195 A 
HETATM   25  O4  UNL     1      23.992   5.788  48.666  1.00  0.00    -0.292 OA
BRANCH  24  26
HETATM   26  O3  UNL     1      25.114   7.767  47.907  1.00  0.00    -0.335 OA
HETATM   27  C22 UNL     1      24.616   8.807  48.756  1.00  0.00     0.212 C 
ENDBRANCH  24  26
ENDBRANCH  17  18
ENDBRANCH  15  17
ENDBRANCH   1  15
TORSDOF 10
ENDMDL
MODEL 9
REMARK VINA RESULT:      -7.3      2.065      6.843
REMARK  10 active torsions:
REMARK  status: ('A' for Active; 'I' for Inactive)
REMARK    1  A    between atoms: C3_3  and  C5_5 
REMARK    2  A    between atoms: C5_5  and  O1_7 
REMARK    3  A    between atoms: C5_5  and  C7_8 
REMARK    4  A    between atoms: C8_9  and  C10_11 
REMARK    5  A    between atoms: C10_11  and  C11_12 
REMARK    6  A    between atoms: C11_12  and  C12_13 
REMARK    7  A    between atoms: C12_13  and  C13_14 
REMARK    8  A    between atoms: C13_14  and  C15_16 
REMARK    9  A    between atoms: C15_16  and  C16_17 
REMARK   10  A    between atoms: C21_23  and  O3_24 
ROOT
HETATM    1  C12 UNL     1      22.255   3.400  51.135  1.00  0.00     0.031 C 
ENDROOT
BRANCH   1   2
HETATM    2  C11 UNL     1      22.764   2.398  52.103  1.00  0.00    -0.026 C 
BRANCH   2   3
HETATM    3  C10 UNL     1      23.563   1.596  52.738  1.00  0.00     0.002 C 
BRANCH   3   4
HETATM    4  C8  UNL     1      23.768   0.191  53.066  1.00  0.00    -0.063 C 
HETATM    5  C7  UNL     1      25.063  -0.011  53.074  1.00  0.00     0.021 C 
HETATM    6  C9  UNL     1      22.482  -0.508  53.273  1.00  0.00     0.048 C 
BRANCH   5   7
HETATM    7  C5  UNL     1      26.279   0.809  52.841  1.00  0.00     0.095 C 
HETATM    8  C6  UNL     1      26.279   1.968  53.809  1.00  0.00     0.055 C 
BRANCH   7   9
HETATM    9  C3  UNL     1      27.432  -0.101  53.066  1.00  0.00    -0.051 C 
HETATM   10  C2  UNL     1      28.659   0.106  53.494  1.00  0.00    -0.025 C 
HETATM   11  C1  UNL     1      29.508  -1.117  53.574  1.00  0.00     0.036 C 
HETATM   12  C4  UNL     1      27.122  -1.497  52.748  1.00  0.00     0.046 C 
ENDBRANCH   7   9
BRANCH   7  13
HETATM   13  O1  UNL     1      26.227   1.237  51.509  1.00  0.00    -0.382 OA
HETATM   14  H11 UNL     1      27.150   1.299  51.123  1.00  0.00     0.211 HD
ENDBRANCH   7  13
ENDBRANCH   5   7
ENDBRANCH   3   4
ENDBRANCH   2   3
ENDBRANCH   1   2
BRANCH   1  15
HETATM   15  C13 UNL     1      23.328   4.424  50.815  1.00  0.00    -0.009 C 
HETATM   16  C14 UNL     1      23.786   5.166  52.023  1.00  0.00     0.010 C 
BRANCH  15  17
HETATM   17  C15 UNL     1      24.394   3.798  49.989  1.00  0.00     0.070 C 
BRANCH  17  18
HETATM   18  C16 UNL     1      25.347   4.736  49.366  1.00  0.00     0.060 A 
HETATM   19  C17 UNL     1      26.664   4.286  49.245  1.00  0.00     0.088 A 
HETATM   20  C18 UNL     1      27.541   5.190  48.654  1.00  0.00     0.184 A 
HETATM   21  O2  UNL     1      28.724   4.828  48.527  1.00  0.00    -0.288 OA
HETATM   22  C19 UNL     1      27.093   6.443  48.228  1.00  0.00     0.046 A 
HETATM   23  C20 UNL     1      28.136   7.299  47.619  1.00  0.00     0.058 C 
HETATM   24  C21 UNL     1      25.768   6.782  48.398  1.00  0.00     0.195 A 
HETATM   25  O4  UNL     1      24.918   5.928  48.962  1.00  0.00    -0.292 OA
BRANCH  24  26
HETATM   26  O3  UNL     1      25.398   8.048  47.949  1.00  0.00    -0.335 OA
HETATM   27  C22 UNL     1      24.442   8.107  46.885  1.00  0.00     0.212 C 
ENDBRANCH  24  26
ENDBRANCH  17  18
ENDBRANCH  15  17
ENDBRANCH   1  15
TORSDOF 10
ENDMDL
