MODEL 1
REMARK VINA RESULT:      -8.8      0.000      0.000
REMARK  4 active torsions:
REMARK  status: ('A' for Active; 'I' for Inactive)
REMARK    1  A    between atoms: C2_2  and  C3_3 
REMARK       I    between atoms: C3_3  and  N1_5 
REMARK    2  A    between atoms: N1_5  and  C4_6 
REMARK    3  A    between atoms: C7_9  and  N2_10 
REMARK    4  A    between atoms: C18_24  and  O2_25 
ROOT
HETATM    1  C4  UNL     1      25.481   0.797  52.618  1.00  0.00     0.069 A 
HETATM    2  C5  UNL     1      24.503   1.703  52.261  1.00  0.00     0.048 A 
HETATM    3  C6  UNL     1      23.187   1.388  52.549  1.00  0.00     0.023 A 
HETATM    4  C7  UNL     1      22.180   2.267  52.208  1.00  0.00     0.065 A 
HETATM    5  C13 UNL     1      20.865   1.957  52.494  1.00  0.00     0.089 A 
HETATM    6  C14 UNL     1      19.754   2.825  52.168  1.00  0.00     0.103 C 
HETATM    7  N3  UNL     1      18.875   3.527  51.896  1.00  0.00    -0.191 NA
HETATM    8  C15 UNL     1      20.580   0.763  53.120  1.00  0.00     0.142 A 
HETATM    9  N4  UNL     1      21.579  -0.084  53.445  1.00  0.00    -0.259 NA
HETATM   10  C16 UNL     1      22.876   0.196  53.177  1.00  0.00     0.071 A 
HETATM   11  C17 UNL     1      23.882  -0.676  53.514  1.00  0.00     0.071 A 
HETATM   12  C18 UNL     1      25.211  -0.403  53.246  1.00  0.00     0.097 A 
ENDROOT
BRANCH   4  13
HETATM   13  N2  UNL     1      22.426   3.510  51.561  1.00  0.00    -0.375 N 
HETATM   14  C8  UNL     1      22.196   3.619  50.114  1.00  0.00     0.151 C 
HETATM   15  C9  UNL     1      23.554   3.813  49.485  1.00  0.00     0.007 C 
HETATM   16  C10 UNL     1      24.163   4.809  50.107  1.00  0.00    -0.012 C 
HETATM   17 BR1  UNL     1      25.905   5.191  49.433  1.00  0.00    -0.056 Br
HETATM   18  C11 UNL     1      23.623   5.604  51.227  1.00  0.00     0.066 C 
HETATM   19  C12 UNL     1      22.891   4.705  52.193  1.00  0.00     0.128 C 
ENDBRANCH   4  13
BRANCH   1  20
HETATM   20  N1  UNL     1      26.844   1.123  52.320  1.00  0.00    -0.321 N 
HETATM   21  C3  UNL     1      27.359   1.924  53.376  1.00  0.00     0.245 C 
HETATM   22  O1  UNL     1      26.633   2.233  54.366  1.00  0.00    -0.268 OA
HETATM   23  H4  UNL     1      27.553   0.955  51.585  1.00  0.00     0.169 HD
BRANCH  21  24
HETATM   24  C2  UNL     1      28.693   2.488  53.506  1.00  0.00     0.064 C 
HETATM   25  C1  UNL     1      29.389   1.793  54.372  1.00  0.00     0.017 C 
ENDBRANCH  21  24
ENDBRANCH   1  20
BRANCH  12  26
HETATM   26  O2  UNL     1      26.266  -1.248  53.565  1.00  0.00    -0.354 OA
HETATM   27  C19 UNL     1      26.888  -2.097  52.625  1.00  0.00     0.210 C 
ENDBRANCH  12  26
TORSDOF 4
ENDMDL
MODEL 2
REMARK VINA RESULT:      -8.2      2.877      5.811
REMARK  4 active torsions:
REMARK  status: ('A' for Active; 'I' for Inactive)
REMARK    1  A    between atoms: C2_2  and  C3_3 
REMARK       I    between atoms: C3_3  and  N1_5 
REMARK    2  A    between atoms: N1_5  and  C4_6 
REMARK    3  A    between atoms: C7_9  and  N2_10 
REMARK    4  A    between atoms: C18_24  and  O2_25 
ROOT
HETATM    1  C4  UNL     1      20.701   0.458  52.468  1.00  0.00     0.069 A 
HETATM    2  C5  UNL     1      22.048   0.728  52.612  1.00  0.00     0.048 A 
HETATM    3  C6  UNL     1      22.752   0.027  53.576  1.00  0.00     0.023 A 
HETATM    4  C7  UNL     1      24.099   0.267  53.751  1.00  0.00     0.065 A 
HETATM    5  C13 UNL     1      24.806  -0.429  54.711  1.00  0.00     0.089 A 
HETATM    6  C14 UNL     1      26.219  -0.234  54.957  1.00  0.00     0.103 C 
HETATM    7  N3  UNL     1      27.348  -0.062  55.147  1.00  0.00    -0.191 NA
HETATM    8  C15 UNL     1      24.147  -1.362  55.483  1.00  0.00     0.142 A 
HETATM    9  N4  UNL     1      22.829  -1.582  55.296  1.00  0.00    -0.259 NA
HETATM   10  C16 UNL     1      22.112  -0.913  54.362  1.00  0.00     0.071 A 
HETATM   11  C17 UNL     1      20.772  -1.149  54.183  1.00  0.00     0.071 A 
HETATM   12  C18 UNL     1      20.027  -0.474  53.233  1.00  0.00     0.097 A 
ENDROOT
BRANCH   4  13
HETATM   13  N2  UNL     1      24.821   1.219  52.979  1.00  0.00    -0.375 N 
HETATM   14  C8  UNL     1      24.798   2.632  53.385  1.00  0.00     0.151 C 
HETATM   15  C9  UNL     1      24.039   3.367  52.309  1.00  0.00     0.007 C 
HETATM   16  C10 UNL     1      24.565   3.051  51.137  1.00  0.00    -0.012 C 
HETATM   17 BR1  UNL     1      23.717   3.900  49.655  1.00  0.00    -0.056 Br
HETATM   18  C11 UNL     1      25.701   2.138  50.903  1.00  0.00     0.066 C 
HETATM   19  C12 UNL     1      25.591   0.936  51.809  1.00  0.00     0.128 C 
ENDBRANCH   4  13
BRANCH   1  20
HETATM   20  N1  UNL     1      19.972   1.182  51.471  1.00  0.00    -0.321 N 
HETATM   21  C3  UNL     1      19.796   2.519  51.921  1.00  0.00     0.245 C 
HETATM   22  O1  UNL     1      20.255   2.890  53.040  1.00  0.00    -0.268 OA
HETATM   23  H4  UNL     1      19.543   1.031  50.541  1.00  0.00     0.169 HD
BRANCH  21  24
HETATM   24  C2  UNL     1      19.117   3.612  51.242  1.00  0.00     0.064 C 
HETATM   25  C1  UNL     1      19.994   4.500  50.837  1.00  0.00     0.017 C 
ENDBRANCH  21  24
ENDBRANCH   1  20
BRANCH  12  26
HETATM   26  O2  UNL     1      18.671  -0.672  53.010  1.00  0.00    -0.354 OA
HETATM   27  C19 UNL     1      17.979  -1.827  53.432  1.00  0.00     0.210 C 
ENDBRANCH  12  26
TORSDOF 4
ENDMDL
MODEL 3
REMARK VINA RESULT:      -8.0      2.185      2.899
REMARK  4 active torsions:
REMARK  status: ('A' for Active; 'I' for Inactive)
REMARK    1  A    between atoms: C2_2  and  C3_3 
REMARK       I    between atoms: C3_3  and  N1_5 
REMARK    2  A    between atoms: N1_5  and  C4_6 
REMARK    3  A    between atoms: C7_9  and  N2_10 
REMARK    4  A    between atoms: C18_24  and  O2_25 
ROOT
HETATM    1  C4  UNL     1      25.298   0.977  53.595  1.00  0.00     0.069 A 
HETATM    2  C5  UNL     1      25.204   1.895  52.568  1.00  0.00     0.048 A 
HETATM    3  C6  UNL     1      24.131   1.795  51.701  1.00  0.00     0.023 A 
HETATM    4  C7  UNL     1      24.002   2.693  50.663  1.00  0.00     0.065 A 
HETATM    5  C13 UNL     1      22.932   2.597  49.794  1.00  0.00     0.089 A 
HETATM    6  C14 UNL     1      22.727   3.500  48.682  1.00  0.00     0.103 C 
HETATM    7  N3  UNL     1      22.580   4.225  47.792  1.00  0.00    -0.191 NA
HETATM    8  C15 UNL     1      22.004   1.596  49.983  1.00  0.00     0.142 A 
HETATM    9  N4  UNL     1      22.149   0.726  51.005  1.00  0.00    -0.259 NA
HETATM   10  C16 UNL     1      23.187   0.799  51.871  1.00  0.00     0.071 A 
HETATM   11  C17 UNL     1      23.321  -0.093  52.906  1.00  0.00     0.071 A 
HETATM   12  C18 UNL     1      24.376  -0.032  53.798  1.00  0.00     0.097 A 
ENDROOT
BRANCH   4  13
HETATM   13  N2  UNL     1      24.934   3.742  50.428  1.00  0.00    -0.375 N 
HETATM   14  C8  UNL     1      24.806   4.993  51.189  1.00  0.00     0.151 C 
HETATM   15  C9  UNL     1      24.414   6.055  50.191  1.00  0.00     0.007 C 
HETATM   16  C10 UNL     1      25.265   6.011  49.179  1.00  0.00    -0.012 C 
HETATM   17 BR1  UNL     1      24.911   7.296  47.816  1.00  0.00    -0.056 Br
HETATM   18  C11 UNL     1      26.408   5.088  49.034  1.00  0.00     0.066 C 
HETATM   19  C12 UNL     1      26.017   3.706  49.496  1.00  0.00     0.128 C 
ENDBRANCH   4  13
BRANCH   1  20
HETATM   20  N1  UNL     1      26.408   1.080  54.493  1.00  0.00    -0.321 N 
HETATM   21  C3  UNL     1      27.520   0.406  53.919  1.00  0.00     0.245 C 
HETATM   22  O1  UNL     1      27.421  -0.157  52.789  1.00  0.00    -0.268 OA
HETATM   23  H4  UNL     1      26.642   1.489  55.416  1.00  0.00     0.169 HD
BRANCH  21  24
HETATM   24  C2  UNL     1      28.857   0.250  54.469  1.00  0.00     0.064 C 
HETATM   25  C1  UNL     1      29.488  -0.715  53.844  1.00  0.00     0.017 C 
ENDBRANCH  21  24
ENDBRANCH   1  20
BRANCH  12  26
HETATM   26  O2  UNL     1      24.559  -0.907  54.861  1.00  0.00    -0.354 OA
HETATM   27  C19 UNL     1      23.496  -1.406  55.644  1.00  0.00     0.210 C 
ENDBRANCH  12  26
TORSDOF 4
ENDMDL
MODEL 4
REMARK VINA RESULT:      -7.9      2.144      3.257
REMARK  4 active torsions:
REMARK  status: ('A' for Active; 'I' for Inactive)
REMARK    1  A    between atoms: C2_2  and  C3_3 
REMARK       I    between atoms: C3_3  and  N1_5 
REMARK    2  A    between atoms: N1_5  and  C4_6 
REMARK    3  A    between atoms: C7_9  and  N2_10 
REMARK    4  A    between atoms: C18_24  and  O2_25 
ROOT
HETATM    1  C4  UNL     1      25.782   2.673  51.720  1.00  0.00     0.069 A 
HETATM    2  C5  UNL     1      24.411   2.570  51.600  1.00  0.00     0.048 A 
HETATM    3  C6  UNL     1      23.793   1.451  52.132  1.00  0.00     0.023 A 
HETATM    4  C7  UNL     1      22.425   1.311  52.033  1.00  0.00     0.065 A 
HETATM    5  C13 UNL     1      21.804   0.196  52.562  1.00  0.00     0.089 A 
HETATM    6  C14 UNL     1      20.375  -0.024  52.498  1.00  0.00     0.103 C 
HETATM    7  N3  UNL     1      19.232  -0.190  52.433  1.00  0.00    -0.191 NA
HETATM    8  C15 UNL     1      22.570  -0.763  53.187  1.00  0.00     0.142 A 
HETATM    9  N4  UNL     1      23.908  -0.607  53.275  1.00  0.00    -0.259 NA
HETATM   10  C16 UNL     1      24.542   0.476  52.764  1.00  0.00     0.071 A 
HETATM   11  C17 UNL     1      25.904   0.621  52.861  1.00  0.00     0.071 A 
HETATM   12  C18 UNL     1      26.564   1.720  52.344  1.00  0.00     0.097 A 
ENDROOT
BRANCH   4  13
HETATM   13  N2  UNL     1      21.594   2.274  51.397  1.00  0.00    -0.375 N 
HETATM   14  C8  UNL     1      21.203   2.066  49.995  1.00  0.00     0.151 C 
HETATM   15  C9  UNL     1      21.887   3.153  49.202  1.00  0.00     0.007 C 
HETATM   16  C10 UNL     1      21.617   4.317  49.771  1.00  0.00    -0.012 C 
HETATM   17 BR1  UNL     1      22.410   5.809  48.889  1.00  0.00    -0.056 Br
HETATM   18  C11 UNL     1      20.791   4.534  50.975  1.00  0.00     0.066 C 
HETATM   19  C12 UNL     1      21.081   3.465  51.999  1.00  0.00     0.128 C 
ENDBRANCH   4  13
BRANCH   1  20
HETATM   20  N1  UNL     1      26.422   3.830  51.170  1.00  0.00    -0.321 N 
HETATM   21  C3  UNL     1      26.670   3.598  49.789  1.00  0.00     0.245 C 
HETATM   22  O1  UNL     1      26.333   2.504  49.248  1.00  0.00    -0.268 OA
HETATM   23  H4  UNL     1      26.752   4.766  51.467  1.00  0.00     0.169 HD
BRANCH  21  24
HETATM   24  C2  UNL     1      27.298   4.489  48.828  1.00  0.00     0.064 C 
HETATM   25  C1  UNL     1      26.636   5.619  48.767  1.00  0.00     0.017 C 
ENDBRANCH  21  24
ENDBRANCH   1  20
BRANCH  12  26
HETATM   26  O2  UNL     1      27.937   1.917  52.414  1.00  0.00    -0.354 OA
HETATM   27  C19 UNL     1      28.596   2.368  53.577  1.00  0.00     0.210 C 
ENDBRANCH  12  26
TORSDOF 4
ENDMDL
MODEL 5
REMARK VINA RESULT:      -7.9      3.120      5.921
REMARK  4 active torsions:
REMARK  status: ('A' for Active; 'I' for Inactive)
REMARK    1  A    between atoms: C2_2  and  C3_3 
REMARK       I    between atoms: C3_3  and  N1_5 
REMARK    2  A    between atoms: N1_5  and  C4_6 
REMARK    3  A    between atoms: C7_9  and  N2_10 
REMARK    4  A    between atoms: C18_24  and  O2_25 
ROOT
HETATM    1  C4  UNL     1      21.948   1.787  50.123  1.00  0.00     0.069 A 
HETATM    2  C5  UNL     1      23.014   1.549  50.968  1.00  0.00     0.048 A 
HETATM    3  C6  UNL     1      22.823   0.684  52.031  1.00  0.00     0.023 A 
HETATM    4  C7  UNL     1      23.863   0.420  52.897  1.00  0.00     0.065 A 
HETATM    5  C13 UNL     1      23.676  -0.443  53.959  1.00  0.00     0.089 A 
HETATM    6  C14 UNL     1      24.716  -0.770  54.911  1.00  0.00     0.103 C 
HETATM    7  N3  UNL     1      25.556  -1.017  55.669  1.00  0.00    -0.191 NA
HETATM    8  C15 UNL     1      22.442  -1.030  54.136  1.00  0.00     0.142 A 
HETATM    9  N4  UNL     1      21.437  -0.759  53.277  1.00  0.00    -0.259 NA
HETATM   10  C16 UNL     1      21.593   0.082  52.228  1.00  0.00     0.071 A 
HETATM   11  C17 UNL     1      20.561   0.348  51.362  1.00  0.00     0.071 A 
HETATM   12  C18 UNL     1      20.706   1.205  50.287  1.00  0.00     0.097 A 
ENDROOT
BRANCH   4  13
HETATM   13  N2  UNL     1      25.153   1.002  52.755  1.00  0.00    -0.375 N 
HETATM   14  C8  UNL     1      26.064   0.477  51.729  1.00  0.00     0.151 C 
HETATM   15  C9  UNL     1      27.202  -0.178  52.470  1.00  0.00     0.007 C 
HETATM   16  C10 UNL     1      27.674   0.684  53.357  1.00  0.00    -0.012 C 
HETATM   17 BR1  UNL     1      29.128   0.012  54.390  1.00  0.00    -0.056 Br
HETATM   18  C11 UNL     1      27.182   2.055  53.593  1.00  0.00     0.066 C 
HETATM   19  C12 UNL     1      25.674   2.080  53.536  1.00  0.00     0.128 C 
ENDBRANCH   4  13
BRANCH   1  20
HETATM   20  N1  UNL     1      22.147   2.682  49.023  1.00  0.00    -0.321 N 
HETATM   21  C3  UNL     1      22.002   4.016  49.493  1.00  0.00     0.245 C 
HETATM   22  O1  UNL     1      21.741   4.248  50.709  1.00  0.00    -0.268 OA
HETATM   23  H4  UNL     1      22.359   2.652  48.010  1.00  0.00     0.169 HD
BRANCH  21  24
HETATM   24  C2  UNL     1      22.118   5.251  48.734  1.00  0.00     0.064 C 
HETATM   25  C1  UNL     1      23.315   5.342  48.207  1.00  0.00     0.017 C 
ENDBRANCH  21  24
ENDBRANCH   1  20
BRANCH  12  26
HETATM   26  O2  UNL     1      19.697   1.509  49.382  1.00  0.00    -0.354 OA
HETATM   27  C19 UNL     1      18.579   2.305  49.709  1.00  0.00     0.210 C 
ENDBRANCH  12  26
TORSDOF 4
ENDMDL
MODEL 6
REMARK VINA RESULT:      -7.6      2.639      5.510
REMARK  4 active torsions:
REMARK  status: ('A' for Active; 'I' for Inactive)
REMARK    1  A    between atoms: C2_2  and  C3_3 
REMARK       I    between atoms: C3_3  and  N1_5 
REMARK    2  A    between atoms: N1_5  and  C4_6 
REMARK    3  A    between atoms: C7_9  and  N2_10 
REMARK    4  A    between atoms: C18_24  and  O2_25 
ROOT
HETATM    1  C4  UNL     1      22.102   1.118  52.739  1.00  0.00     0.069 A 
HETATM    2  C5  UNL     1      22.678   1.999  51.845  1.00  0.00     0.048 A 
HETATM    3  C6  UNL     1      24.052   1.958  51.684  1.00  0.00     0.023 A 
HETATM    4  C7  UNL     1      24.665   2.821  50.801  1.00  0.00     0.065 A 
HETATM    5  C13 UNL     1      26.036   2.784  50.637  1.00  0.00     0.089 A 
HETATM    6  C14 UNL     1      26.753   3.656  49.732  1.00  0.00     0.103 C 
HETATM    7  N3  UNL     1      27.314   4.365  49.009  1.00  0.00    -0.191 NA
HETATM    8  C15 UNL     1      26.773   1.875  51.365  1.00  0.00     0.142 A 
HETATM    9  N4  UNL     1      26.154   1.038  52.224  1.00  0.00    -0.259 NA
HETATM   10  C16 UNL     1      24.812   1.054  52.403  1.00  0.00     0.071 A 
HETATM   11  C17 UNL     1      24.196   0.196  53.281  1.00  0.00     0.071 A 
HETATM   12  C18 UNL     1      22.827   0.201  53.475  1.00  0.00     0.097 A 
ENDROOT
BRANCH   4  13
HETATM   13  N2  UNL     1      23.947   3.775  50.029  1.00  0.00    -0.375 N 
HETATM   14  C8  UNL     1      23.803   5.145  50.541  1.00  0.00     0.151 C 
HETATM   15  C9  UNL     1      22.338   5.326  50.855  1.00  0.00     0.007 C 
HETATM   16  C10 UNL     1      21.637   4.969  49.792  1.00  0.00    -0.012 C 
HETATM   17 BR1  UNL     1      19.751   5.136  50.018  1.00  0.00    -0.056 Br
HETATM   18  C11 UNL     1      22.177   4.476  48.510  1.00  0.00     0.066 C 
HETATM   19  C12 UNL     1      23.328   3.533  48.764  1.00  0.00     0.128 C 
ENDBRANCH   4  13
BRANCH   1  20
HETATM   20  N1  UNL     1      20.680   1.160  52.905  1.00  0.00    -0.321 N 
HETATM   21  C3  UNL     1      20.073   0.536  51.781  1.00  0.00     0.245 C 
HETATM   22  O1  UNL     1      20.782   0.059  50.847  1.00  0.00    -0.268 OA
HETATM   23  H4  UNL     1      19.975   1.499  53.583  1.00  0.00     0.169 HD
BRANCH  21  24
HETATM   24  C2  UNL     1      18.656   0.347  51.516  1.00  0.00     0.064 C 
HETATM   25  C1  UNL     1      18.167  -0.558  52.329  1.00  0.00     0.017 C 
ENDBRANCH  21  24
ENDBRANCH   1  20
BRANCH  12  26
HETATM   26  O2  UNL     1      22.153  -0.643  54.348  1.00  0.00    -0.354 OA
HETATM   27  C19 UNL     1      22.803  -1.410  55.339  1.00  0.00     0.210 C 
ENDBRANCH  12  26
TORSDOF 4
ENDMDL
MODEL 7
REMARK VINA RESULT:      -7.5      1.734      2.316
REMARK  4 active torsions:
REMARK  status: ('A' for Active; 'I' for Inactive)
REMARK    1  A    between atoms: C2_2  and  C3_3 
REMARK       I    between atoms: C3_3  and  N1_5 
REMARK    2  A    between atoms: N1_5  and  C4_6 
REMARK    3  A    between atoms: C7_9  and  N2_10 
REMARK    4  A    between atoms: C18_24  and  O2_25 
ROOT
HETATM    1  C4  UNL     1      25.207   1.349  52.210  1.00  0.00     0.069 A 
HETATM    2  C5  UNL     1      24.653   2.453  51.592  1.00  0.00     0.048 A 
HETATM    3  C6  UNL     1      23.282   2.624  51.673  1.00  0.00     0.023 A 
HETATM    4  C7  UNL     1      22.691   3.714  51.069  1.00  0.00     0.065 A 
HETATM    5  C13 UNL     1      21.323   3.890  51.146  1.00  0.00     0.089 A 
HETATM    6  C14 UNL     1      20.628   5.005  50.540  1.00  0.00     0.103 C 
HETATM    7  N3  UNL     1      20.086   5.899  50.043  1.00  0.00    -0.191 NA
HETATM    8  C15 UNL     1      20.567   2.965  51.833  1.00  0.00     0.142 A 
HETATM    9  N4  UNL     1      21.165   1.905  52.417  1.00  0.00    -0.259 NA
HETATM   10  C16 UNL     1      22.503   1.709  52.356  1.00  0.00     0.071 A 
HETATM   11  C17 UNL     1      23.097   0.626  52.956  1.00  0.00     0.071 A 
HETATM   12  C18 UNL     1      24.462   0.414  52.902  1.00  0.00     0.097 A 
ENDROOT
BRANCH   4  13
HETATM   13  N2  UNL     1      23.429   4.694  50.350  1.00  0.00    -0.375 N 
HETATM   14  C8  UNL     1      24.165   5.724  51.098  1.00  0.00     0.151 C 
HETATM   15  C9  UNL     1      23.474   7.032  50.806  1.00  0.00     0.007 C 
HETATM   16  C10 UNL     1      23.360   7.160  49.494  1.00  0.00    -0.012 C 
HETATM   17 BR1  UNL     1      22.500   8.772  48.947  1.00  0.00    -0.056 Br
HETATM   18  C11 UNL     1      23.823   6.198  48.475  1.00  0.00     0.066 C 
HETATM   19  C12 UNL     1      23.532   4.788  48.928  1.00  0.00     0.128 C 
ENDBRANCH   4  13
BRANCH   1  20
HETATM   20  N1  UNL     1      26.625   1.171  52.128  1.00  0.00    -0.321 N 
HETATM   21  C3  UNL     1      27.230   1.829  53.234  1.00  0.00     0.245 C 
HETATM   22  O1  UNL     1      26.522   2.439  54.088  1.00  0.00    -0.268 OA
HETATM   23  H4  UNL     1      27.330   0.718  51.519  1.00  0.00     0.169 HD
BRANCH  21  24
HETATM   24  C2  UNL     1      28.643   1.915  53.563  1.00  0.00     0.064 C 
HETATM   25  C1  UNL     1      29.085   0.743  53.951  1.00  0.00     0.017 C 
ENDBRANCH  21  24
ENDBRANCH   1  20
BRANCH  12  26
HETATM   26  O2  UNL     1      25.114  -0.663  53.490  1.00  0.00    -0.354 OA
HETATM   27  C19 UNL     1      25.179  -0.860  54.885  1.00  0.00     0.210 C 
ENDBRANCH  12  26
TORSDOF 4
ENDMDL
MODEL 8
REMARK VINA RESULT:      -7.4      2.602      4.808
REMARK  4 active torsions:
REMARK  status: ('A' for Active; 'I' for Inactive)
REMARK    1  A    between atoms: C2_2  and  C3_3 
REMARK       I    between atoms: C3_3  and  N1_5 
REMARK    2  A    between atoms: N1_5  and  C4_6 
REMARK    3  A    between atoms: C7_9  and  N2_10 
REMARK    4  A    between atoms: C18_24  and  O2_25 
ROOT
HETATM    1  C4  UNL     1      24.933   0.317  52.627  1.00  0.00     0.069 A 
HETATM    2  C5  UNL     1      24.171   1.105  51.787  1.00  0.00     0.048 A 
HETATM    3  C6  UNL     1      24.798   2.145  51.123  1.00  0.00     0.023 A 
HETATM    4  C7  UNL     1      24.072   2.954  50.275  1.00  0.00     0.065 A 
HETATM    5  C13 UNL     1      24.694   3.993  49.610  1.00  0.00     0.089 A 
HETATM    6  C14 UNL     1      24.002   4.886  48.706  1.00  0.00     0.103 C 
HETATM    7  N3  UNL     1      23.434   5.597  47.990  1.00  0.00    -0.191 NA
HETATM    8  C15 UNL     1      26.041   4.204  49.808  1.00  0.00     0.142 A 
HETATM    9  N4  UNL     1      26.734   3.400  50.642  1.00  0.00    -0.259 NA
HETATM   10  C16 UNL     1      26.149   2.374  51.306  1.00  0.00     0.071 A 
HETATM   11  C17 UNL     1      26.868   1.565  52.151  1.00  0.00     0.071 A 
HETATM   12  C18 UNL     1      26.284   0.515  52.835  1.00  0.00     0.097 A 
ENDROOT
BRANCH   4  13
HETATM   13  N2  UNL     1      22.681   2.776  50.040  1.00  0.00    -0.375 N 
HETATM   14  C8  UNL     1      21.719   3.598  50.788  1.00  0.00     0.151 C 
HETATM   15  C9  UNL     1      20.980   2.654  51.703  1.00  0.00     0.007 C 
HETATM   16  C10 UNL     1      20.524   1.644  50.980  1.00  0.00    -0.012 C 
HETATM   17 BR1  UNL     1      19.557   0.347  51.988  1.00  0.00    -0.056 Br
HETATM   18  C11 UNL     1      20.700   1.457  49.526  1.00  0.00     0.066 C 
HETATM   19  C12 UNL     1      22.100   1.848  49.121  1.00  0.00     0.128 C 
ENDBRANCH   4  13
BRANCH   1  20
HETATM   20  N1  UNL     1      24.284  -0.759  53.314  1.00  0.00    -0.321 N 
HETATM   21  C3  UNL     1      23.147  -0.243  53.993  1.00  0.00     0.245 C 
HETATM   22  O1  UNL     1      22.857   0.988  53.926  1.00  0.00    -0.268 OA
HETATM   23  H4  UNL     1      24.390  -1.778  53.463  1.00  0.00     0.169 HD
BRANCH  21  24
HETATM   24  C2  UNL     1      22.190  -0.964  54.817  1.00  0.00     0.064 C 
HETATM   25  C1  UNL     1      21.633  -1.924  54.119  1.00  0.00     0.017 C 
ENDBRANCH  21  24
ENDBRANCH   1  20
BRANCH  12  26
HETATM   26  O2  UNL     1      26.962  -0.333  53.701  1.00  0.00    -0.354 OA
HETATM   27  C19 UNL     1      27.872   0.124  54.677  1.00  0.00     0.210 C 
ENDBRANCH  12  26
TORSDOF 4
ENDMDL
MODEL 9
REMARK VINA RESULT:      -7.2      2.374      4.682
REMARK  4 active torsions:
REMARK  status: ('A' for Active; 'I' for Inactive)
REMARK    1  A    between atoms: C2_2  and  C3_3 
REMARK       I    between atoms: C3_3  and  N1_5 
REMARK    2  A    between atoms: N1_5  and  C4_6 
REMARK    3  A    between atoms: C7_9  and  N2_10 
REMARK    4  A    between atoms: C18_24  and  O2_25 
ROOT
HETATM    1  C4  UNL     1      24.497   1.170  52.710  1.00  0.00     0.069 A 
HETATM    2  C5  UNL     1      24.023   2.286  52.049  1.00  0.00     0.048 A 
HETATM    3  C6  UNL     1      24.869   2.922  51.158  1.00  0.00     0.023 A 
HETATM    4  C7  UNL     1      24.434   4.040  50.477  1.00  0.00     0.065 A 
HETATM    5  C13 UNL     1      25.274   4.679  49.587  1.00  0.00     0.089 A 
HETATM    6  C14 UNL     1      24.892   5.856  48.836  1.00  0.00     0.103 C 
HETATM    7  N3  UNL     1      24.575   6.801  48.248  1.00  0.00    -0.191 NA
HETATM    8  C15 UNL     1      26.545   4.182  49.392  1.00  0.00     0.142 A 
HETATM    9  N4  UNL     1      26.952   3.087  50.067  1.00  0.00    -0.259 NA
HETATM   10  C16 UNL     1      26.148   2.442  50.945  1.00  0.00     0.071 A 
HETATM   11  C17 UNL     1      26.577   1.328  51.625  1.00  0.00     0.071 A 
HETATM   12  C18 UNL     1      25.767   0.660  52.524  1.00  0.00     0.097 A 
ENDROOT
BRANCH   4  13
HETATM   13  N2  UNL     1      23.132   4.589  50.646  1.00  0.00    -0.375 N 
HETATM   14  C8  UNL     1      21.992   3.936  49.987  1.00  0.00     0.151 C 
HETATM   15  C9  UNL     1      21.507   4.900  48.932  1.00  0.00     0.007 C 
HETATM   16  C10 UNL     1      21.322   6.081  49.499  1.00  0.00    -0.012 C 
HETATM   17 BR1  UNL     1      20.706   7.427  48.298  1.00  0.00    -0.056 Br
HETATM   18  C11 UNL     1      21.546   6.416  50.919  1.00  0.00     0.066 C 
HETATM   19  C12 UNL     1      22.806   5.749  51.414  1.00  0.00     0.128 C 
ENDBRANCH   4  13
BRANCH   1  20
HETATM   20  N1  UNL     1      23.622   0.510  53.632  1.00  0.00    -0.321 N 
HETATM   21  C3  UNL     1      22.496   0.019  52.916  1.00  0.00     0.245 C 
HETATM   22  O1  UNL     1      22.396   0.198  51.666  1.00  0.00    -0.268 OA
HETATM   23  H4  UNL     1      23.562   0.287  54.641  1.00  0.00     0.169 HD
BRANCH  21  24
HETATM   24  C2  UNL     1      21.352  -0.714  53.435  1.00  0.00     0.064 C 
HETATM   25  C1  UNL     1      21.734  -1.505  54.409  1.00  0.00     0.017 C 
ENDBRANCH  21  24
ENDBRANCH   1  20
BRANCH  12  26
HETATM   26  O2  UNL     1      26.149  -0.469  53.238  1.00  0.00    -0.354 OA
HETATM   27  C19 UNL     1      26.718  -1.610  52.633  1.00  0.00     0.210 C 
ENDBRANCH  12  26
TORSDOF 4
ENDMDL
