MODEL 1
REMARK VINA RESULT:      -7.5      0.000      0.000
REMARK  6 active torsions:
REMARK  status: ('A' for Active; 'I' for Inactive)
REMARK    1  A    between atoms: C2_2  and  O1_3 
REMARK    2  A    between atoms: C2_2  and  C4_5 
REMARK    3  A    between atoms: C4_5  and  O2_6 
REMARK    4  A    between atoms: C4_5  and  C6_8 
REMARK    5  A    between atoms: C8_10  and  O3_11 
REMARK    6  A    between atoms: O3_11  and  C9_12 
ROOT
HETATM    1  C9  UNL     1      26.447   2.266  52.736  1.00  0.00     0.188 C 
HETATM    2  C10 UNL     1      27.648   2.226  53.616  1.00  0.00     0.006 C 
HETATM    3  C11 UNL     1      28.392   1.199  54.077  1.00  0.00    -0.026 C 
HETATM    4  C12 UNL     1      28.639  -0.242  54.137  1.00  0.00     0.046 C 
HETATM    5  C13 UNL     1      28.112  -1.031  52.966  1.00  0.00     0.123 C 
HETATM    6  N1  UNL     1      26.668  -1.197  53.128  1.00  0.00    -0.389 N 
HETATM    7  C14 UNL     1      25.599  -0.260  53.170  1.00  0.00     0.038 A 
HETATM    8  C15 UNL     1      24.438  -0.992  53.427  1.00  0.00     0.053 A 
HETATM    9  C16 UNL     1      23.211  -0.382  53.530  1.00  0.00     0.036 A 
HETATM   10 CL1  UNL     1      21.739  -1.302  53.852  1.00  0.00    -0.084 Cl
HETATM   11  C17 UNL     1      23.073   0.996  53.382  1.00  0.00     0.024 A 
HETATM   12  C18 UNL     1      24.252   1.653  53.132  1.00  0.00     0.014 A 
HETATM   13  C19 UNL     1      25.532   1.123  53.010  1.00  0.00     0.001 A 
HETATM   14  H18 UNL     1      26.341  -2.162  53.235  1.00  0.00     0.159 HD
ENDROOT
BRANCH   1  15
HETATM   15  O3  UNL     1      26.758   2.364  51.366  1.00  0.00    -0.320 OA
BRANCH  15  16
HETATM   16  C8  UNL     1      26.424   3.369  50.505  1.00  0.00     0.168 A 
HETATM   17  C7  UNL     1      25.213   3.999  50.358  1.00  0.00     0.088 A 
HETATM   18  C6  UNL     1      24.997   5.008  49.447  1.00  0.00     0.075 A 
HETATM   19  N3  UNL     1      26.045   5.353  48.692  1.00  0.00    -0.243 NA
HETATM   20  C20 UNL     1      27.252   4.757  48.807  1.00  0.00     0.236 A 
HETATM   21  N2  UNL     1      27.455   3.769  49.704  1.00  0.00    -0.218 NA
BRANCH  18  22
HETATM   22  C4  UNL     1      23.715   5.719  49.251  1.00  0.00     0.228 C 
BRANCH  22  23
HETATM   23  C2  UNL     1      23.185   6.381  50.447  1.00  0.00     0.071 C 
HETATM   24  C1  UNL     1      23.836   7.476  50.834  1.00  0.00     0.049 C 
BRANCH  23  25
HETATM   25  O1  UNL     1      22.084   5.945  51.168  1.00  0.00    -0.358 OA
HETATM   26  C3  UNL     1      22.119   4.872  52.058  1.00  0.00     0.209 C 
ENDBRANCH  23  25
ENDBRANCH  22  23
BRANCH  22  27
HETATM   27  O2  UNL     1      22.789   4.951  48.553  1.00  0.00    -0.378 OA
HETATM   28  C5  UNL     1      22.367   5.481  47.366  1.00  0.00     0.203 C 
ENDBRANCH  22  27
ENDBRANCH  18  22
ENDBRANCH  15  16
ENDBRANCH   1  15
TORSDOF 6
ENDMDL
MODEL 2
REMARK VINA RESULT:      -7.2      2.925      7.492
REMARK  6 active torsions:
REMARK  status: ('A' for Active; 'I' for Inactive)
REMARK    1  A    between atoms: C2_2  and  O1_3 
REMARK    2  A    between atoms: C2_2  and  C4_5 
REMARK    3  A    between atoms: C4_5  and  O2_6 
REMARK    4  A    between atoms: C4_5  and  C6_8 
REMARK    5  A    between atoms: C8_10  and  O3_11 
REMARK    6  A    between atoms: O3_11  and  C9_12 
ROOT
HETATM    1  C9  UNL     1      25.225   3.457  49.635  1.00  0.00     0.188 C 
HETATM    2  C10 UNL     1      26.619   3.729  49.186  1.00  0.00     0.006 C 
HETATM    3  C11 UNL     1      27.251   4.875  48.856  1.00  0.00    -0.026 C 
HETATM    4  C12 UNL     1      27.206   6.327  48.690  1.00  0.00     0.046 C 
HETATM    5  C13 UNL     1      26.165   7.035  49.520  1.00  0.00     0.123 C 
HETATM    6  N1  UNL     1      24.860   6.848  48.888  1.00  0.00    -0.389 N 
HETATM    7  C14 UNL     1      24.082   5.686  48.631  1.00  0.00     0.038 A 
HETATM    8  C15 UNL     1      22.954   6.111  47.926  1.00  0.00     0.053 A 
HETATM    9  C16 UNL     1      21.986   5.225  47.518  1.00  0.00     0.036 A 
HETATM   10 CL1  UNL     1      20.555   5.756  46.628  1.00  0.00    -0.084 Cl
HETATM   11  C17 UNL     1      22.087   3.864  47.792  1.00  0.00     0.024 A 
HETATM   12  C18 UNL     1      23.219   3.516  48.487  1.00  0.00     0.014 A 
HETATM   13  C19 UNL     1      24.247   4.337  48.939  1.00  0.00     0.001 A 
HETATM   14  H18 UNL     1      24.400   7.702  48.558  1.00  0.00     0.159 HD
ENDROOT
BRANCH   1  15
HETATM   15  O3  UNL     1      25.067   3.510  51.034  1.00  0.00    -0.320 OA
BRANCH  15  16
HETATM   16  C8  UNL     1      24.734   2.487  51.875  1.00  0.00     0.168 A 
HETATM   17  C7  UNL     1      25.570   1.666  52.590  1.00  0.00     0.088 A 
HETATM   18  C6  UNL     1      25.112   0.660  53.411  1.00  0.00     0.075 A 
HETATM   19  N3  UNL     1      23.785   0.515  53.479  1.00  0.00    -0.243 NA
HETATM   20  C20 UNL     1      22.930   1.303  52.790  1.00  0.00     0.236 A 
HETATM   21  N2  UNL     1      23.388   2.288  51.988  1.00  0.00    -0.218 NA
BRANCH  18  22
HETATM   22  C4  UNL     1      25.967  -0.249  54.203  1.00  0.00     0.228 C 
BRANCH  22  23
HETATM   23  C2  UNL     1      27.100  -0.826  53.473  1.00  0.00     0.071 C 
HETATM   24  C1  UNL     1      26.787  -1.736  52.553  1.00  0.00     0.049 C 
BRANCH  23  25
HETATM   25  O1  UNL     1      28.428  -0.487  53.680  1.00  0.00    -0.358 OA
HETATM   26  C3  UNL     1      28.852   0.413  54.656  1.00  0.00     0.209 C 
ENDBRANCH  23  25
ENDBRANCH  22  23
BRANCH  22  27
HETATM   27  O2  UNL     1      25.223  -1.165  54.939  1.00  0.00    -0.378 OA
HETATM   28  C5  UNL     1      25.180  -0.937  56.285  1.00  0.00     0.203 C 
ENDBRANCH  22  27
ENDBRANCH  18  22
ENDBRANCH  15  16
ENDBRANCH   1  15
TORSDOF 6
ENDMDL
MODEL 3
REMARK VINA RESULT:      -7.2      3.045      4.774
REMARK  6 active torsions:
REMARK  status: ('A' for Active; 'I' for Inactive)
REMARK    1  A    between atoms: C2_2  and  O1_3 
REMARK    2  A    between atoms: C2_2  and  C4_5 
REMARK    3  A    between atoms: C4_5  and  O2_6 
REMARK    4  A    between atoms: C4_5  and  C6_8 
REMARK    5  A    between atoms: C8_10  and  O3_11 
REMARK    6  A    between atoms: O3_11  and  C9_12 
ROOT
HETATM    1  C9  UNL     1      23.845   2.566  50.681  1.00  0.00     0.188 C 
HETATM    2  C10 UNL     1      22.666   1.880  50.083  1.00  0.00     0.006 C 
HETATM    3  C11 UNL     1      21.743   1.049  50.612  1.00  0.00    -0.026 C 
HETATM    4  C12 UNL     1      21.227   0.328  51.775  1.00  0.00     0.046 C 
HETATM    5  C13 UNL     1      21.583   0.929  53.111  1.00  0.00     0.123 C 
HETATM    6  N1  UNL     1      22.971   0.585  53.421  1.00  0.00    -0.389 N 
HETATM    7  C14 UNL     1      24.199   0.906  52.780  1.00  0.00     0.038 A 
HETATM    8  C15 UNL     1      25.201   0.231  53.482  1.00  0.00     0.053 A 
HETATM    9  C16 UNL     1      26.522   0.328  53.118  1.00  0.00     0.036 A 
HETATM   10 CL1  UNL     1      27.795  -0.519  54.001  1.00  0.00    -0.084 Cl
HETATM   11  C17 UNL     1      26.920   1.105  52.033  1.00  0.00     0.024 A 
HETATM   12  C18 UNL     1      25.885   1.739  51.390  1.00  0.00     0.014 A 
HETATM   13  C19 UNL     1      24.527   1.701  51.684  1.00  0.00     0.001 A 
HETATM   14  H18 UNL     1      23.108   0.002  54.252  1.00  0.00     0.159 HD
ENDROOT
BRANCH   1  15
HETATM   15  O3  UNL     1      23.547   3.837  51.210  1.00  0.00    -0.320 OA
BRANCH  15  16
HETATM   16  C8  UNL     1      24.089   5.037  50.851  1.00  0.00     0.168 A 
HETATM   17  C7  UNL     1      25.216   5.274  50.103  1.00  0.00     0.088 A 
HETATM   18  C6  UNL     1      25.666   6.540  49.805  1.00  0.00     0.075 A 
HETATM   19  N3  UNL     1      24.941   7.552  50.292  1.00  0.00    -0.243 NA
HETATM   20  C20 UNL     1      23.827   7.359  51.033  1.00  0.00     0.236 A 
HETATM   21  N2  UNL     1      23.392   6.114  51.319  1.00  0.00    -0.218 NA
BRANCH  18  22
HETATM   22  C4  UNL     1      26.869   6.850  49.004  1.00  0.00     0.228 C 
BRANCH  22  23
HETATM   23  C2  UNL     1      26.779   8.071  48.198  1.00  0.00     0.071 C 
HETATM   24  C1  UNL     1      26.117   7.954  47.049  1.00  0.00     0.049 C 
BRANCH  23  25
HETATM   25  O1  UNL     1      27.324   9.295  48.555  1.00  0.00    -0.358 OA
HETATM   26  C3  UNL     1      28.217   9.464  49.612  1.00  0.00     0.209 C 
ENDBRANCH  23  25
ENDBRANCH  22  23
BRANCH  22  27
HETATM   27  O2  UNL     1      27.347   5.737  48.320  1.00  0.00    -0.378 OA
HETATM   28  C5  UNL     1      28.706   5.599  48.306  1.00  0.00     0.203 C 
ENDBRANCH  22  27
ENDBRANCH  18  22
ENDBRANCH  15  16
ENDBRANCH   1  15
TORSDOF 6
ENDMDL
MODEL 4
REMARK VINA RESULT:      -7.0      1.735      2.145
REMARK  6 active torsions:
REMARK  status: ('A' for Active; 'I' for Inactive)
REMARK    1  A    between atoms: C2_2  and  O1_3 
REMARK    2  A    between atoms: C2_2  and  C4_5 
REMARK    3  A    between atoms: C4_5  and  O2_6 
REMARK    4  A    between atoms: C4_5  and  C6_8 
REMARK    5  A    between atoms: C8_10  and  O3_11 
REMARK    6  A    between atoms: O3_11  and  C9_12 
ROOT
HETATM    1  C9  UNL     1      25.064   2.362  52.482  1.00  0.00     0.188 C 
HETATM    2  C10 UNL     1      26.276   2.470  53.341  1.00  0.00     0.006 C 
HETATM    3  C11 UNL     1      27.089   1.533  53.873  1.00  0.00    -0.026 C 
HETATM    4  C12 UNL     1      27.428   0.121  54.047  1.00  0.00     0.046 C 
HETATM    5  C13 UNL     1      26.938  -0.795  52.954  1.00  0.00     0.123 C 
HETATM    6  N1  UNL     1      25.510  -1.036  53.154  1.00  0.00    -0.389 N 
HETATM    7  C14 UNL     1      24.384  -0.167  53.136  1.00  0.00     0.038 A 
HETATM    8  C15 UNL     1      23.275  -0.947  53.472  1.00  0.00     0.053 A 
HETATM    9  C16 UNL     1      22.014  -0.408  53.546  1.00  0.00     0.036 A 
HETATM   10 CL1  UNL     1      20.607  -1.388  53.968  1.00  0.00    -0.084 Cl
HETATM   11  C17 UNL     1      21.786   0.941  53.287  1.00  0.00     0.024 A 
HETATM   12  C18 UNL     1      22.918   1.648  52.964  1.00  0.00     0.014 A 
HETATM   13  C19 UNL     1      24.228   1.190  52.865  1.00  0.00     0.001 A 
HETATM   14  H18 UNL     1      25.246  -2.007  53.346  1.00  0.00     0.159 HD
ENDROOT
BRANCH   1  15
HETATM   15  O3  UNL     1      25.352   2.364  51.103  1.00  0.00    -0.320 OA
BRANCH  15  16
HETATM   16  C8  UNL     1      25.633   3.441  50.312  1.00  0.00     0.168 A 
HETATM   17  C7  UNL     1      24.822   4.504  50.000  1.00  0.00     0.088 A 
HETATM   18  C6  UNL     1      25.221   5.538  49.184  1.00  0.00     0.075 A 
HETATM   19  N3  UNL     1      26.462   5.457  48.695  1.00  0.00    -0.243 NA
HETATM   20  C20 UNL     1      27.289   4.426  48.979  1.00  0.00     0.236 A 
HETATM   21  N2  UNL     1      26.891   3.417  49.781  1.00  0.00    -0.218 NA
BRANCH  18  22
HETATM   22  C4  UNL     1      24.389   6.705  48.819  1.00  0.00     0.228 C 
BRANCH  22  23
HETATM   23  C2  UNL     1      25.110   7.979  48.741  1.00  0.00     0.071 C 
HETATM   24  C1  UNL     1      25.304   8.455  47.513  1.00  0.00     0.049 C 
BRANCH  23  25
HETATM   25  O1  UNL     1      25.581   8.688  49.835  1.00  0.00    -0.358 OA
HETATM   26  C3  UNL     1      26.936   8.894  50.097  1.00  0.00     0.209 C 
ENDBRANCH  23  25
ENDBRANCH  22  23
BRANCH  22  27
HETATM   27  O2  UNL     1      23.202   6.753  49.543  1.00  0.00    -0.378 OA
HETATM   28  C5  UNL     1      22.086   7.053  48.816  1.00  0.00     0.203 C 
ENDBRANCH  22  27
ENDBRANCH  18  22
ENDBRANCH  15  16
ENDBRANCH   1  15
TORSDOF 6
ENDMDL
MODEL 5
REMARK VINA RESULT:      -7.0      2.110      3.420
REMARK  6 active torsions:
REMARK  status: ('A' for Active; 'I' for Inactive)
REMARK    1  A    between atoms: C2_2  and  O1_3 
REMARK    2  A    between atoms: C2_2  and  C4_5 
REMARK    3  A    between atoms: C4_5  and  O2_6 
REMARK    4  A    between atoms: C4_5  and  C6_8 
REMARK    5  A    between atoms: C8_10  and  O3_11 
REMARK    6  A    between atoms: O3_11  and  C9_12 
ROOT
HETATM    1  C9  UNL     1      23.812   2.457  52.412  1.00  0.00     0.188 C 
HETATM    2  C10 UNL     1      24.977   2.821  53.266  1.00  0.00     0.006 C 
HETATM    3  C11 UNL     1      25.926   2.069  53.862  1.00  0.00    -0.026 C 
HETATM    4  C12 UNL     1      26.491   0.748  54.132  1.00  0.00     0.046 C 
HETATM    5  C13 UNL     1      26.175  -0.307  53.102  1.00  0.00     0.123 C 
HETATM    6  N1  UNL     1      24.803  -0.767  53.313  1.00  0.00    -0.389 N 
HETATM    7  C14 UNL     1      23.550  -0.100  53.233  1.00  0.00     0.038 A 
HETATM    8  C15 UNL     1      22.580  -1.030  53.618  1.00  0.00     0.053 A 
HETATM    9  C16 UNL     1      21.246  -0.703  53.652  1.00  0.00     0.036 A 
HETATM   10 CL1  UNL     1      20.014  -1.873  54.134  1.00  0.00    -0.084 Cl
HETATM   11  C17 UNL     1      20.802   0.569  53.301  1.00  0.00     0.024 A 
HETATM   12  C18 UNL     1      21.807   1.431  52.934  1.00  0.00     0.014 A 
HETATM   13  C19 UNL     1      23.175   1.191  52.871  1.00  0.00     0.001 A 
HETATM   14  H18 UNL     1      24.701  -1.755  53.569  1.00  0.00     0.159 HD
ENDROOT
BRANCH   1  15
HETATM   15  O3  UNL     1      24.115   2.417  51.037  1.00  0.00    -0.320 OA
BRANCH  15  16
HETATM   16  C8  UNL     1      24.089   3.451  50.147  1.00  0.00     0.168 A 
HETATM   17  C7  UNL     1      24.908   4.552  50.096  1.00  0.00     0.088 A 
HETATM   18  C6  UNL     1      24.782   5.537  49.142  1.00  0.00     0.075 A 
HETATM   19  N3  UNL     1      23.803   5.369  48.249  1.00  0.00    -0.243 NA
HETATM   20  C20 UNL     1      22.976   4.300  48.267  1.00  0.00     0.236 A 
HETATM   21  N2  UNL     1      23.107   3.338  49.205  1.00  0.00    -0.218 NA
BRANCH  18  22
HETATM   22  C4  UNL     1      25.638   6.739  49.042  1.00  0.00     0.228 C 
BRANCH  22  23
HETATM   23  C2  UNL     1      26.909   6.538  48.341  1.00  0.00     0.071 C 
HETATM   24  C1  UNL     1      27.236   7.480  47.460  1.00  0.00     0.049 C 
BRANCH  23  25
HETATM   25  O1  UNL     1      27.758   5.460  48.541  1.00  0.00    -0.358 OA
HETATM   26  C3  UNL     1      29.118   5.481  48.233  1.00  0.00     0.209 C 
ENDBRANCH  23  25
ENDBRANCH  22  23
BRANCH  22  27
HETATM   27  O2  UNL     1      25.742   7.414  50.254  1.00  0.00    -0.378 OA
HETATM   28  C5  UNL     1      24.887   8.467  50.412  1.00  0.00     0.203 C 
ENDBRANCH  22  27
ENDBRANCH  18  22
ENDBRANCH  15  16
ENDBRANCH   1  15
TORSDOF 6
ENDMDL
MODEL 6
REMARK VINA RESULT:      -7.0      2.903      4.460
REMARK  6 active torsions:
REMARK  status: ('A' for Active; 'I' for Inactive)
REMARK    1  A    between atoms: C2_2  and  O1_3 
REMARK    2  A    between atoms: C2_2  and  C4_5 
REMARK    3  A    between atoms: C4_5  and  O2_6 
REMARK    4  A    between atoms: C4_5  and  C6_8 
REMARK    5  A    between atoms: C8_10  and  O3_11 
REMARK    6  A    between atoms: O3_11  and  C9_12 
ROOT
HETATM    1  C9  UNL     1      23.380   1.066  52.100  1.00  0.00     0.188 C 
HETATM    2  C10 UNL     1      22.243   0.113  51.971  1.00  0.00     0.006 C 
HETATM    3  C11 UNL     1      21.781  -0.855  52.791  1.00  0.00    -0.026 C 
HETATM    4  C12 UNL     1      21.895  -1.589  54.051  1.00  0.00     0.046 C 
HETATM    5  C13 UNL     1      22.576  -0.840  55.168  1.00  0.00     0.123 C 
HETATM    6  N1  UNL     1      24.019  -0.868  54.936  1.00  0.00    -0.389 N 
HETATM    7  C14 UNL     1      24.827  -0.342  53.891  1.00  0.00     0.038 A 
HETATM    8  C15 UNL     1      26.137  -0.746  54.160  1.00  0.00     0.053 A 
HETATM    9  C16 UNL     1      27.179  -0.401  53.333  1.00  0.00     0.036 A 
HETATM   10 CL1  UNL     1      28.838  -0.906  53.668  1.00  0.00    -0.084 Cl
HETATM   11  C17 UNL     1      26.974   0.368  52.191  1.00  0.00     0.024 A 
HETATM   12  C18 UNL     1      25.665   0.730  51.988  1.00  0.00     0.014 A 
HETATM   13  C19 UNL     1      24.551   0.430  52.764  1.00  0.00     0.001 A 
HETATM   14  H18 UNL     1      24.574  -1.354  55.648  1.00  0.00     0.159 HD
ENDROOT
BRANCH   1  15
HETATM   15  O3  UNL     1      23.027   2.280  52.722  1.00  0.00    -0.320 OA
BRANCH  15  16
HETATM   16  C8  UNL     1      22.632   3.440  52.122  1.00  0.00     0.168 A 
HETATM   17  C7  UNL     1      23.413   4.417  51.556  1.00  0.00     0.088 A 
HETATM   18  C6  UNL     1      22.893   5.552  50.977  1.00  0.00     0.075 A 
HETATM   19  N3  UNL     1      21.562   5.664  50.992  1.00  0.00    -0.243 NA
HETATM   20  C20 UNL     1      20.759   4.724  51.540  1.00  0.00     0.236 A 
HETATM   21  N2  UNL     1      21.277   3.613  52.105  1.00  0.00    -0.218 NA
BRANCH  18  22
HETATM   22  C4  UNL     1      23.689   6.631  50.353  1.00  0.00     0.228 C 
BRANCH  22  23
HETATM   23  C2  UNL     1      23.383   6.892  48.944  1.00  0.00     0.071 C 
HETATM   24  C1  UNL     1      23.607   5.878  48.110  1.00  0.00     0.049 C 
BRANCH  23  25
HETATM   25  O1  UNL     1      22.889   8.090  48.451  1.00  0.00    -0.358 OA
HETATM   26  C3  UNL     1      22.136   8.985  49.210  1.00  0.00     0.209 C 
ENDBRANCH  23  25
ENDBRANCH  22  23
BRANCH  22  27
HETATM   27  O2  UNL     1      25.045   6.519  50.642  1.00  0.00    -0.378 OA
HETATM   28  C5  UNL     1      25.808   7.598  50.296  1.00  0.00     0.203 C 
ENDBRANCH  22  27
ENDBRANCH  18  22
ENDBRANCH  15  16
ENDBRANCH   1  15
TORSDOF 6
ENDMDL
MODEL 7
REMARK VINA RESULT:      -6.9      5.339      9.150
REMARK  6 active torsions:
REMARK  status: ('A' for Active; 'I' for Inactive)
REMARK    1  A    between atoms: C2_2  and  O1_3 
REMARK    2  A    between atoms: C2_2  and  C4_5 
REMARK    3  A    between atoms: C4_5  and  O2_6 
REMARK    4  A    between atoms: C4_5  and  C6_8 
REMARK    5  A    between atoms: C8_10  and  O3_11 
REMARK    6  A    between atoms: O3_11  and  C9_12 
ROOT
HETATM    1  C9  UNL     1      28.437   6.873  47.658  1.00  0.00     0.188 C 
HETATM    2  C10 UNL     1      27.956   7.911  46.703  1.00  0.00     0.006 C 
HETATM    3  C11 UNL     1      27.092   8.937  46.849  1.00  0.00    -0.026 C 
HETATM    4  C12 UNL     1      26.184   9.698  47.707  1.00  0.00     0.046 C 
HETATM    5  C13 UNL     1      26.484   9.622  49.183  1.00  0.00     0.123 C 
HETATM    6  N1  UNL     1      26.004   8.337  49.689  1.00  0.00    -0.389 N 
HETATM    7  C14 UNL     1      26.374   6.996  49.393  1.00  0.00     0.038 A 
HETATM    8  C15 UNL     1      25.515   6.175  50.128  1.00  0.00     0.053 A 
HETATM    9  C16 UNL     1      25.604   4.806  50.068  1.00  0.00     0.036 A 
HETATM   10 CL1  UNL     1      24.524   3.762  50.996  1.00  0.00    -0.084 Cl
HETATM   11  C17 UNL     1      26.558   4.176  49.272  1.00  0.00     0.024 A 
HETATM   12  C18 UNL     1      27.367   5.042  48.579  1.00  0.00     0.014 A 
HETATM   13  C19 UNL     1      27.351   6.432  48.576  1.00  0.00     0.001 A 
HETATM   14  H18 UNL     1      25.259   8.387  50.392  1.00  0.00     0.159 HD
ENDROOT
BRANCH   1  15
HETATM   15  O3  UNL     1      29.592   7.257  48.368  1.00  0.00    -0.320 OA
BRANCH  15  16
HETATM   16  C8  UNL     1      30.851   6.741  48.252  1.00  0.00     0.168 A 
HETATM   17  C7  UNL     1      31.245   5.586  47.623  1.00  0.00     0.088 A 
HETATM   18  C6  UNL     1      32.555   5.168  47.574  1.00  0.00     0.075 A 
HETATM   19  N3  UNL     1      33.447   5.955  48.183  1.00  0.00    -0.243 NA
HETATM   20  C20 UNL     1      33.098   7.099  48.813  1.00  0.00     0.236 A 
HETATM   21  N2  UNL     1      31.811   7.502  48.856  1.00  0.00    -0.218 NA
BRANCH  18  22
HETATM   22  C4  UNL     1      33.032   3.936  46.909  1.00  0.00     0.228 C 
BRANCH  22  23
HETATM   23  C2  UNL     1      33.633   4.139  45.587  1.00  0.00     0.071 C 
HETATM   24  C1  UNL     1      34.955   3.997  45.529  1.00  0.00     0.049 C 
BRANCH  23  25
HETATM   25  O1  UNL     1      32.925   4.458  44.438  1.00  0.00    -0.358 OA
HETATM   26  C3  UNL     1      33.314   5.453  43.543  1.00  0.00     0.209 C 
ENDBRANCH  23  25
ENDBRANCH  22  23
BRANCH  22  27
HETATM   27  O2  UNL     1      32.096   2.909  46.970  1.00  0.00    -0.378 OA
HETATM   28  C5  UNL     1      32.616   1.646  46.991  1.00  0.00     0.203 C 
ENDBRANCH  22  27
ENDBRANCH  18  22
ENDBRANCH  15  16
ENDBRANCH   1  15
TORSDOF 6
ENDMDL
MODEL 8
REMARK VINA RESULT:      -6.8      2.955      6.610
REMARK  6 active torsions:
REMARK  status: ('A' for Active; 'I' for Inactive)
REMARK    1  A    between atoms: C2_2  and  O1_3 
REMARK    2  A    between atoms: C2_2  and  C4_5 
REMARK    3  A    between atoms: C4_5  and  O2_6 
REMARK    4  A    between atoms: C4_5  and  C6_8 
REMARK    5  A    between atoms: C8_10  and  O3_11 
REMARK    6  A    between atoms: O3_11  and  C9_12 
ROOT
HETATM    1  C9  UNL     1      25.599   3.351  49.649  1.00  0.00     0.188 C 
HETATM    2  C10 UNL     1      26.840   3.971  49.106  1.00  0.00     0.006 C 
HETATM    3  C11 UNL     1      27.184   5.258  48.891  1.00  0.00    -0.026 C 
HETATM    4  C12 UNL     1      26.831   6.676  48.953  1.00  0.00     0.046 C 
HETATM    5  C13 UNL     1      25.788   7.033  49.982  1.00  0.00     0.123 C 
HETATM    6  N1  UNL     1      24.475   6.652  49.464  1.00  0.00    -0.389 N 
HETATM    7  C14 UNL     1      23.916   5.392  49.114  1.00  0.00     0.038 A 
HETATM    8  C15 UNL     1      22.643   5.651  48.600  1.00  0.00     0.053 A 
HETATM    9  C16 UNL     1      21.825   4.638  48.163  1.00  0.00     0.036 A 
HETATM   10 CL1  UNL     1      20.214   4.958  47.513  1.00  0.00    -0.084 Cl
HETATM   11  C17 UNL     1      22.229   3.307  48.216  1.00  0.00     0.024 A 
HETATM   12  C18 UNL     1      23.488   3.125  48.732  1.00  0.00     0.014 A 
HETATM   13  C19 UNL     1      24.383   4.083  49.196  1.00  0.00     0.001 A 
HETATM   14  H18 UNL     1      23.816   7.423  49.316  1.00  0.00     0.159 HD
ENDROOT
BRANCH   1  15
HETATM   15  O3  UNL     1      25.617   3.191  51.048  1.00  0.00    -0.320 OA
BRANCH  15  16
HETATM   16  C8  UNL     1      25.260   2.086  51.765  1.00  0.00     0.168 A 
HETATM   17  C7  UNL     1      23.999   1.605  52.021  1.00  0.00     0.088 A 
HETATM   18  C6  UNL     1      23.765   0.471  52.764  1.00  0.00     0.075 A 
HETATM   19  N3  UNL     1      24.846  -0.155  53.239  1.00  0.00    -0.243 NA
HETATM   20  C20 UNL     1      26.102   0.287  53.010  1.00  0.00     0.236 A 
HETATM   21  N2  UNL     1      26.323   1.400  52.279  1.00  0.00    -0.218 NA
BRANCH  18  22
HETATM   22  C4  UNL     1      22.430  -0.089  53.066  1.00  0.00     0.228 C 
BRANCH  22  23
HETATM   23  C2  UNL     1      21.325   0.497  52.300  1.00  0.00     0.071 C 
HETATM   24  C1  UNL     1      20.498   1.279  52.991  1.00  0.00     0.049 C 
BRANCH  23  25
HETATM   25  O1  UNL     1      21.105   0.289  50.947  1.00  0.00    -0.358 OA
HETATM   26  C3  UNL     1      20.083   0.906  50.228  1.00  0.00     0.209 C 
ENDBRANCH  23  25
ENDBRANCH  22  23
BRANCH  22  27
HETATM   27  O2  UNL     1      22.199  -0.190  54.434  1.00  0.00    -0.378 OA
HETATM   28  C5  UNL     1      22.112  -1.464  54.919  1.00  0.00     0.203 C 
ENDBRANCH  22  27
ENDBRANCH  18  22
ENDBRANCH  15  16
ENDBRANCH   1  15
TORSDOF 6
ENDMDL
MODEL 9
REMARK VINA RESULT:      -6.5      2.634      4.288
REMARK  6 active torsions:
REMARK  status: ('A' for Active; 'I' for Inactive)
REMARK    1  A    between atoms: C2_2  and  O1_3 
REMARK    2  A    between atoms: C2_2  and  C4_5 
REMARK    3  A    between atoms: C4_5  and  O2_6 
REMARK    4  A    between atoms: C4_5  and  C6_8 
REMARK    5  A    between atoms: C8_10  and  O3_11 
REMARK    6  A    between atoms: O3_11  and  C9_12 
ROOT
HETATM    1  C9  UNL     1      23.466   1.002  51.967  1.00  0.00     0.188 C 
HETATM    2  C10 UNL     1      22.319   0.055  51.881  1.00  0.00     0.006 C 
HETATM    3  C11 UNL     1      21.828  -0.845  52.759  1.00  0.00    -0.026 C 
HETATM    4  C12 UNL     1      21.904  -1.486  54.071  1.00  0.00     0.046 C 
HETATM    5  C13 UNL     1      22.569  -0.665  55.147  1.00  0.00     0.123 C 
HETATM    6  N1  UNL     1      24.016  -0.725  54.951  1.00  0.00    -0.389 N 
HETATM    7  C14 UNL     1      24.854  -0.286  53.889  1.00  0.00     0.038 A 
HETATM    8  C15 UNL     1      26.153  -0.684  54.217  1.00  0.00     0.053 A 
HETATM    9  C16 UNL     1      27.217  -0.412  53.392  1.00  0.00     0.036 A 
HETATM   10 CL1  UNL     1      28.862  -0.909  53.801  1.00  0.00    -0.084 Cl
HETATM   11  C17 UNL     1      27.048   0.274  52.192  1.00  0.00     0.024 A 
HETATM   12  C18 UNL     1      25.748   0.633  51.933  1.00  0.00     0.014 A 
HETATM   13  C19 UNL     1      24.613   0.404  52.703  1.00  0.00     0.001 A 
HETATM   14  H18 UNL     1      24.549  -1.163  55.709  1.00  0.00     0.159 HD
ENDROOT
BRANCH   1  15
HETATM   15  O3  UNL     1      23.114   2.262  52.490  1.00  0.00    -0.320 OA
BRANCH  15  16
HETATM   16  C8  UNL     1      23.060   3.454  51.827  1.00  0.00     0.168 A 
HETATM   17  C7  UNL     1      23.850   3.891  50.792  1.00  0.00     0.088 A 
HETATM   18  C6  UNL     1      23.698   5.125  50.202  1.00  0.00     0.075 A 
HETATM   19  N3  UNL     1      22.725   5.898  50.695  1.00  0.00    -0.243 NA
HETATM   20  C20 UNL     1      21.929   5.503  51.713  1.00  0.00     0.236 A 
HETATM   21  N2  UNL     1      22.083   4.291  52.286  1.00  0.00    -0.218 NA
BRANCH  18  22
HETATM   22  C4  UNL     1      24.518   5.642  49.085  1.00  0.00     0.228 C 
BRANCH  22  23
HETATM   23  C2  UNL     1      25.708   6.397  49.489  1.00  0.00     0.071 C 
HETATM   24  C1  UNL     1      25.521   7.285  50.463  1.00  0.00     0.049 C 
BRANCH  23  25
HETATM   25  O1  UNL     1      26.969   6.241  48.934  1.00  0.00    -0.358 OA
HETATM   26  C3  UNL     1      27.508   5.006  48.577  1.00  0.00     0.209 C 
ENDBRANCH  23  25
ENDBRANCH  22  23
BRANCH  22  27
HETATM   27  O2  UNL     1      23.746   6.255  48.104  1.00  0.00    -0.378 OA
HETATM   28  C5  UNL     1      24.323   7.332  47.494  1.00  0.00     0.203 C 
ENDBRANCH  22  27
ENDBRANCH  18  22
ENDBRANCH  15  16
ENDBRANCH   1  15
TORSDOF 6
ENDMDL
