MODEL 1
REMARK VINA RESULT:      -8.7      0.000      0.000
REMARK  4 active torsions:
REMARK  status: ('A' for Active; 'I' for Inactive)
REMARK    1  A    between atoms: C2_2  and  C4_4 
REMARK    2  A    between atoms: C7_7  and  N1_8 
REMARK    3  A    between atoms: N1_8  and  C8_9 
REMARK    4  A    between atoms: C9_11  and  N3_12 
ROOT
HETATM    1  C8  UNL     1      26.882   0.056  52.801  1.00  0.00     0.159 A 
HETATM    2  N2  UNL     1      27.101  -1.284  52.758  1.00  0.00    -0.045 NA
HETATM    3  C9  UNL     1      28.310  -1.785  53.164  1.00  0.00     0.724 A 
HETATM    4  N4  UNL     1      29.283  -0.973  53.607  1.00  0.00    -0.043 NA
HETATM    5  C10 UNL     1      29.147   0.348  53.681  1.00  0.00     0.178 A 
HETATM    6  C11 UNL     1      27.926   0.837  53.267  1.00  0.00     0.063 A 
HETATM    7  C12 UNL     1      28.007   2.321  53.424  1.00  0.00     0.248 C 
HETATM    8  O1  UNL     1      28.982   2.422  54.408  1.00  0.00    -0.274 OA
HETATM    9  N5  UNL     1      29.926   1.474  54.093  1.00  0.00    -0.247 N 
HETATM   10  H15 UNL     1      30.987   1.473  54.117  1.00  0.00     0.196 HD
ENDROOT
BRANCH   1  11
HETATM   11  N1  UNL     1      25.678   0.685  52.400  1.00  0.00    -0.340 N 
HETATM   12  H10 UNL     1      25.991   1.534  51.823  1.00  0.00     0.167 HD
BRANCH  11  13
HETATM   13  C7  UNL     1      24.273   0.567  52.523  1.00  0.00     0.033 A 
HETATM   14  C6  UNL     1      23.657  -0.290  53.407  1.00  0.00     0.030 A 
HETATM   15  C5  UNL     1      22.263  -0.353  53.457  1.00  0.00     0.010 A 
HETATM   16  C4  UNL     1      21.528   0.461  52.602  1.00  0.00    -0.055 A 
HETATM   17  C14 UNL     1      22.138   1.324  51.714  1.00  0.00     0.010 A 
HETATM   18  C13 UNL     1      23.516   1.376  51.674  1.00  0.00     0.030 A 
BRANCH  16  19
HETATM   19  C2  UNL     1      20.047   0.418  52.636  1.00  0.00     0.010 C 
HETATM   20  C1  UNL     1      19.423   0.361  51.257  1.00  0.00     0.015 C 
HETATM   21  C3  UNL     1      19.539  -0.762  53.450  1.00  0.00     0.015 C 
ENDBRANCH  16  19
ENDBRANCH  11  13
ENDBRANCH   1  11
BRANCH   3  22
HETATM   22  N3  UNL     1      28.613  -3.170  53.138  1.00  0.00    -0.231 N 
HETATM   23  H11 UNL     1      29.576  -3.151  53.569  1.00  0.00     0.174 HD
HETATM   24  H12 UNL     1      28.228  -4.101  52.853  1.00  0.00     0.174 HD
ENDBRANCH   3  22
TORSDOF 4
ENDMDL
MODEL 2
REMARK VINA RESULT:      -8.3      1.590      2.582
REMARK  4 active torsions:
REMARK  status: ('A' for Active; 'I' for Inactive)
REMARK    1  A    between atoms: C2_2  and  C4_4 
REMARK    2  A    between atoms: C7_7  and  N1_8 
REMARK    3  A    between atoms: N1_8  and  C8_9 
REMARK    4  A    between atoms: C9_11  and  N3_12 
ROOT
HETATM    1  C8  UNL     1      26.932   0.446  53.019  1.00  0.00     0.159 A 
HETATM    2  N2  UNL     1      27.676   1.466  53.520  1.00  0.00    -0.045 NA
HETATM    3  C9  UNL     1      28.919   1.208  54.033  1.00  0.00     0.724 A 
HETATM    4  N4  UNL     1      29.418  -0.039  54.048  1.00  0.00    -0.043 NA
HETATM    5  C10 UNL     1      28.754  -1.090  53.576  1.00  0.00     0.178 A 
HETATM    6  C11 UNL     1      27.504  -0.814  53.064  1.00  0.00     0.063 A 
HETATM    7  C12 UNL     1      26.950  -2.126  52.612  1.00  0.00     0.248 C 
HETATM    8  O1  UNL     1      28.123  -2.837  52.390  1.00  0.00    -0.274 OA
HETATM    9  N5  UNL     1      28.964  -2.496  53.422  1.00  0.00    -0.247 N 
HETATM   10  H15 UNL     1      29.641  -3.055  54.019  1.00  0.00     0.196 HD
ENDROOT
BRANCH   1  11
HETATM   11  N1  UNL     1      25.634   0.593  52.471  1.00  0.00    -0.340 N 
HETATM   12  H10 UNL     1      25.792   1.033  51.505  1.00  0.00     0.167 HD
BRANCH  11  13
HETATM   13  C7  UNL     1      24.270   0.371  52.779  1.00  0.00     0.033 A 
HETATM   14  C6  UNL     1      23.847  -0.417  53.827  1.00  0.00     0.030 A 
HETATM   15  C5  UNL     1      22.481  -0.593  54.055  1.00  0.00     0.010 A 
HETATM   16  C4  UNL     1      21.576   0.040  53.208  1.00  0.00    -0.055 A 
HETATM   17  C14 UNL     1      21.994   0.832  52.158  1.00  0.00     0.010 A 
HETATM   18  C13 UNL     1      23.346   0.997  51.942  1.00  0.00     0.030 A 
BRANCH  16  19
HETATM   19  C2  UNL     1      20.120  -0.126  53.429  1.00  0.00     0.010 C 
HETATM   20  C1  UNL     1      19.292   0.215  52.208  1.00  0.00     0.015 C 
HETATM   21  C3  UNL     1      19.778  -1.541  53.871  1.00  0.00     0.015 C 
ENDBRANCH  16  19
ENDBRANCH  11  13
ENDBRANCH   1  11
BRANCH   3  22
HETATM   22  N3  UNL     1      29.747   2.220  54.582  1.00  0.00    -0.231 N 
HETATM   23  H11 UNL     1      30.612   2.082  53.995  1.00  0.00     0.174 HD
HETATM   24  H12 UNL     1      29.770   2.974  55.309  1.00  0.00     0.174 HD
ENDBRANCH   3  22
TORSDOF 4
ENDMDL
MODEL 3
REMARK VINA RESULT:      -7.9      2.890      4.177
REMARK  4 active torsions:
REMARK  status: ('A' for Active; 'I' for Inactive)
REMARK    1  A    between atoms: C2_2  and  C4_4 
REMARK    2  A    between atoms: C7_7  and  N1_8 
REMARK    3  A    between atoms: N1_8  and  C8_9 
REMARK    4  A    between atoms: C9_11  and  N3_12 
ROOT
HETATM    1  C8  UNL     1      27.094   0.290  52.711  1.00  0.00     0.159 A 
HETATM    2  N2  UNL     1      27.186  -1.064  52.646  1.00  0.00    -0.045 NA
HETATM    3  C9  UNL     1      28.298  -1.691  53.145  1.00  0.00     0.724 A 
HETATM    4  N4  UNL     1      29.298  -0.989  53.701  1.00  0.00    -0.043 NA
HETATM    5  C10 UNL     1      29.283   0.336  53.805  1.00  0.00     0.178 A 
HETATM    6  C11 UNL     1      28.159   0.953  53.296  1.00  0.00     0.063 A 
HETATM    7  C12 UNL     1      28.367   2.418  53.508  1.00  0.00     0.248 C 
HETATM    8  O1  UNL     1      29.250   2.399  54.580  1.00  0.00    -0.274 OA
HETATM    9  N5  UNL     1      30.124   1.370  54.323  1.00  0.00    -0.247 N 
HETATM   10  H15 UNL     1      31.173   1.264  54.444  1.00  0.00     0.196 HD
ENDROOT
BRANCH   1  11
HETATM   11  N1  UNL     1      26.000   1.044  52.222  1.00  0.00    -0.340 N 
HETATM   12  H10 UNL     1      25.129   0.531  52.584  1.00  0.00     0.167 HD
BRANCH  11  13
HETATM   13  C7  UNL     1      25.703   2.186  51.440  1.00  0.00     0.033 A 
HETATM   14  C6  UNL     1      26.480   2.605  50.382  1.00  0.00     0.030 A 
HETATM   15  C5  UNL     1      26.122   3.750  49.668  1.00  0.00     0.010 A 
HETATM   16  C4  UNL     1      24.978   4.443  50.050  1.00  0.00    -0.055 A 
HETATM   17  C14 UNL     1      24.194   4.028  51.108  1.00  0.00     0.010 A 
HETATM   18  C13 UNL     1      24.559   2.896  51.805  1.00  0.00     0.030 A 
BRANCH  16  19
HETATM   19  C2  UNL     1      24.572   5.660  49.308  1.00  0.00     0.010 C 
HETATM   20  C1  UNL     1      25.726   6.329  48.590  1.00  0.00     0.015 C 
HETATM   21  C3  UNL     1      23.476   5.361  48.297  1.00  0.00     0.015 C 
ENDBRANCH  16  19
ENDBRANCH  11  13
ENDBRANCH   1  11
BRANCH   3  22
HETATM   22  N3  UNL     1      28.467  -3.098  53.102  1.00  0.00    -0.231 N 
HETATM   23  H11 UNL     1      29.509  -3.148  52.941  1.00  0.00     0.174 HD
HETATM   24  H12 UNL     1      27.943  -4.002  53.167  1.00  0.00     0.174 HD
ENDBRANCH   3  22
TORSDOF 4
ENDMDL
MODEL 4
REMARK VINA RESULT:      -7.9      1.961      3.038
REMARK  4 active torsions:
REMARK  status: ('A' for Active; 'I' for Inactive)
REMARK    1  A    between atoms: C2_2  and  C4_4 
REMARK    2  A    between atoms: C7_7  and  N1_8 
REMARK    3  A    between atoms: N1_8  and  C8_9 
REMARK    4  A    between atoms: C9_11  and  N3_12 
ROOT
HETATM    1  C8  UNL     1      25.282   0.866  52.891  1.00  0.00     0.159 A 
HETATM    2  N2  UNL     1      25.395   1.745  51.861  1.00  0.00    -0.045 NA
HETATM    3  C9  UNL     1      26.548   2.470  51.715  1.00  0.00     0.724 A 
HETATM    4  N4  UNL     1      27.571   2.326  52.572  1.00  0.00    -0.043 NA
HETATM    5  C10 UNL     1      27.540   1.487  53.603  1.00  0.00     0.178 A 
HETATM    6  C11 UNL     1      26.372   0.765  53.738  1.00  0.00     0.063 A 
HETATM    7  C12 UNL     1      26.558  -0.087  54.951  1.00  0.00     0.248 C 
HETATM    8  O1  UNL     1      27.943  -0.174  54.994  1.00  0.00    -0.274 OA
HETATM    9  N5  UNL     1      28.404   1.078  54.666  1.00  0.00    -0.247 N 
HETATM   10  H15 UNL     1      29.194   1.680  55.040  1.00  0.00     0.196 HD
ENDROOT
BRANCH   1  11
HETATM   11  N1  UNL     1      24.138   0.071  53.145  1.00  0.00    -0.340 N 
HETATM   12  H10 UNL     1      24.507  -0.774  53.694  1.00  0.00     0.167 HD
BRANCH  11  13
HETATM   13  C7  UNL     1      22.743   0.028  52.906  1.00  0.00     0.033 A 
HETATM   14  C6  UNL     1      22.160   0.455  51.733  1.00  0.00     0.030 A 
HETATM   15  C5  UNL     1      20.774   0.389  51.584  1.00  0.00     0.010 A 
HETATM   16  C4  UNL     1      20.012  -0.110  52.635  1.00  0.00    -0.055 A 
HETATM   17  C14 UNL     1      20.590  -0.541  53.813  1.00  0.00     0.010 A 
HETATM   18  C13 UNL     1      21.961  -0.470  53.948  1.00  0.00     0.030 A 
BRANCH  16  19
HETATM   19  C2  UNL     1      18.538  -0.195  52.502  1.00  0.00     0.010 C 
HETATM   20  C1  UNL     1      18.067  -0.118  51.065  1.00  0.00     0.015 C 
HETATM   21  C3  UNL     1      17.990  -1.468  53.128  1.00  0.00     0.015 C 
ENDBRANCH  16  19
ENDBRANCH  11  13
ENDBRANCH   1  11
BRANCH   3  22
HETATM   22  N3  UNL     1      26.733   3.412  50.671  1.00  0.00    -0.231 N 
HETATM   23  H11 UNL     1      26.563   4.306  51.204  1.00  0.00     0.174 HD
HETATM   24  H12 UNL     1      26.955   3.492  49.651  1.00  0.00     0.174 HD
ENDBRANCH   3  22
TORSDOF 4
ENDMDL
MODEL 5
REMARK VINA RESULT:      -7.7      3.919      5.575
REMARK  4 active torsions:
REMARK  status: ('A' for Active; 'I' for Inactive)
REMARK    1  A    between atoms: C2_2  and  C4_4 
REMARK    2  A    between atoms: C7_7  and  N1_8 
REMARK    3  A    between atoms: N1_8  and  C8_9 
REMARK    4  A    between atoms: C9_11  and  N3_12 
ROOT
HETATM    1  C8  UNL     1      27.088   1.828  52.217  1.00  0.00     0.159 A 
HETATM    2  N2  UNL     1      28.257   2.304  52.721  1.00  0.00    -0.045 NA
HETATM    3  C9  UNL     1      28.696   1.862  53.942  1.00  0.00     0.724 A 
HETATM    4  N4  UNL     1      27.992   0.964  54.648  1.00  0.00    -0.043 NA
HETATM    5  C10 UNL     1      26.841   0.450  54.224  1.00  0.00     0.178 A 
HETATM    6  C11 UNL     1      26.411   0.905  52.995  1.00  0.00     0.063 A 
HETATM    7  C12 UNL     1      25.114   0.211  52.735  1.00  0.00     0.248 C 
HETATM    8  O1  UNL     1      25.267  -0.923  53.521  1.00  0.00    -0.274 OA
HETATM    9  N5  UNL     1      25.867  -0.493  54.680  1.00  0.00    -0.247 N 
HETATM   10  H15 UNL     1      25.723  -0.736  55.703  1.00  0.00     0.196 HD
ENDROOT
BRANCH   1  11
HETATM   11  N1  UNL     1      26.534   2.217  50.973  1.00  0.00    -0.340 N 
HETATM   12  H10 UNL     1      26.641   1.355  50.343  1.00  0.00     0.167 HD
BRANCH  11  13
HETATM   13  C7  UNL     1      25.931   3.323  50.327  1.00  0.00     0.033 A 
HETATM   14  C6  UNL     1      24.576   3.571  50.351  1.00  0.00     0.030 A 
HETATM   15  C5  UNL     1      24.061   4.679  49.677  1.00  0.00     0.010 A 
HETATM   16  C4  UNL     1      24.941   5.511  48.992  1.00  0.00    -0.055 A 
HETATM   17  C14 UNL     1      26.300   5.270  48.964  1.00  0.00     0.010 A 
HETATM   18  C13 UNL     1      26.796   4.171  49.634  1.00  0.00     0.030 A 
BRANCH  16  19
HETATM   19  C2  UNL     1      24.422   6.697  48.270  1.00  0.00     0.010 C 
HETATM   20  C1  UNL     1      25.488   7.422  47.475  1.00  0.00     0.015 C 
HETATM   21  C3  UNL     1      23.281   6.329  47.334  1.00  0.00     0.015 C 
ENDBRANCH  16  19
ENDBRANCH  11  13
ENDBRANCH   1  11
BRANCH   3  22
HETATM   22  N3  UNL     1      29.899   2.322  54.535  1.00  0.00    -0.231 N 
HETATM   23  H11 UNL     1      29.867   3.335  54.244  1.00  0.00     0.174 HD
HETATM   24  H12 UNL     1      30.721   2.007  55.103  1.00  0.00     0.174 HD
ENDBRANCH   3  22
TORSDOF 4
ENDMDL
MODEL 6
REMARK VINA RESULT:      -7.6      1.795      3.099
REMARK  4 active torsions:
REMARK  status: ('A' for Active; 'I' for Inactive)
REMARK    1  A    between atoms: C2_2  and  C4_4 
REMARK    2  A    between atoms: C7_7  and  N1_8 
REMARK    3  A    between atoms: N1_8  and  C8_9 
REMARK    4  A    between atoms: C9_11  and  N3_12 
ROOT
HETATM    1  C8  UNL     1      26.547   1.045  53.702  1.00  0.00     0.159 A 
HETATM    2  N2  UNL     1      27.520   1.918  54.073  1.00  0.00    -0.045 NA
HETATM    3  C9  UNL     1      28.816   1.486  54.170  1.00  0.00     0.724 A 
HETATM    4  N4  UNL     1      29.144   0.212  53.902  1.00  0.00    -0.043 NA
HETATM    5  C10 UNL     1      28.253  -0.703  53.531  1.00  0.00     0.178 A 
HETATM    6  C11 UNL     1      26.952  -0.253  53.441  1.00  0.00     0.063 A 
HETATM    7  C12 UNL     1      26.139  -1.438  53.029  1.00  0.00     0.248 C 
HETATM    8  O1  UNL     1      27.109  -2.207  52.398  1.00  0.00    -0.274 OA
HETATM    9  N5  UNL     1      28.239  -2.086  53.170  1.00  0.00    -0.247 N 
HETATM   10  H15 UNL     1      28.982  -2.778  53.478  1.00  0.00     0.196 HD
ENDROOT
BRANCH   1  11
HETATM   11  N1  UNL     1      25.177   1.376  53.577  1.00  0.00    -0.340 N 
HETATM   12  H10 UNL     1      24.922   1.849  54.506  1.00  0.00     0.167 HD
BRANCH  11  13
HETATM   13  C7  UNL     1      24.091   1.276  52.673  1.00  0.00     0.033 A 
HETATM   14  C6  UNL     1      24.104   1.818  51.407  1.00  0.00     0.030 A 
HETATM   15  C5  UNL     1      22.986   1.683  50.583  1.00  0.00     0.010 A 
HETATM   16  C4  UNL     1      21.877   0.997  51.069  1.00  0.00    -0.055 A 
HETATM   17  C14 UNL     1      21.858   0.450  52.336  1.00  0.00     0.010 A 
HETATM   18  C13 UNL     1      22.969   0.591  53.141  1.00  0.00     0.030 A 
BRANCH  16  19
HETATM   19  C2  UNL     1      20.677   0.836  50.214  1.00  0.00     0.010 C 
HETATM   20  C1  UNL     1      19.421   0.534  51.005  1.00  0.00     0.015 C 
HETATM   21  C3  UNL     1      20.430   2.067  49.356  1.00  0.00     0.015 C 
ENDBRANCH  16  19
ENDBRANCH  11  13
ENDBRANCH   1  11
BRANCH   3  22
HETATM   22  N3  UNL     1      29.880   2.338  54.561  1.00  0.00    -0.231 N 
HETATM   23  H11 UNL     1      29.615   3.211  54.031  1.00  0.00     0.174 HD
HETATM   24  H12 UNL     1      30.752   2.369  55.141  1.00  0.00     0.174 HD
ENDBRANCH   3  22
TORSDOF 4
ENDMDL
MODEL 7
REMARK VINA RESULT:      -7.6      3.367      7.321
REMARK  4 active torsions:
REMARK  status: ('A' for Active; 'I' for Inactive)
REMARK    1  A    between atoms: C2_2  and  C4_4 
REMARK    2  A    between atoms: C7_7  and  N1_8 
REMARK    3  A    between atoms: N1_8  and  C8_9 
REMARK    4  A    between atoms: C9_11  and  N3_12 
ROOT
HETATM    1  C8  UNL     1      22.630   0.925  52.775  1.00  0.00     0.159 A 
HETATM    2  N2  UNL     1      21.828   1.548  51.872  1.00  0.00    -0.045 NA
HETATM    3  C9  UNL     1      20.531   1.133  51.720  1.00  0.00     0.724 A 
HETATM    4  N4  UNL     1      20.037   0.121  52.451  1.00  0.00    -0.043 NA
HETATM    5  C10 UNL     1      20.755  -0.538  53.355  1.00  0.00     0.178 A 
HETATM    6  C11 UNL     1      22.059  -0.110  53.495  1.00  0.00     0.063 A 
HETATM    7  C12 UNL     1      22.667  -0.990  54.539  1.00  0.00     0.248 C 
HETATM    8  O1  UNL     1      21.531  -1.381  55.238  1.00  0.00    -0.274 OA
HETATM    9  N5  UNL     1      20.569  -1.609  54.284  1.00  0.00    -0.247 N 
HETATM   10  H15 UNL     1      19.825  -2.358  54.171  1.00  0.00     0.196 HD
ENDROOT
BRANCH   1  11
HETATM   11  N1  UNL     1      23.985   1.262  53.011  1.00  0.00    -0.340 N 
HETATM   12  H10 UNL     1      23.991   2.332  53.094  1.00  0.00     0.167 HD
BRANCH  11  13
HETATM   13  C7  UNL     1      25.265   0.673  53.151  1.00  0.00     0.033 A 
HETATM   14  C6  UNL     1      25.847  -0.116  52.183  1.00  0.00     0.030 A 
HETATM   15  C5  UNL     1      27.110  -0.668  52.405  1.00  0.00     0.010 A 
HETATM   16  C4  UNL     1      27.751  -0.402  53.611  1.00  0.00    -0.055 A 
HETATM   17  C14 UNL     1      27.174   0.388  54.585  1.00  0.00     0.010 A 
HETATM   18  C13 UNL     1      25.925   0.927  54.353  1.00  0.00     0.030 A 
BRANCH  16  19
HETATM   19  C2  UNL     1      29.094  -0.973  53.873  1.00  0.00     0.010 C 
HETATM   20  C1  UNL     1      29.299  -2.327  53.227  1.00  0.00     0.015 C 
HETATM   21  C3  UNL     1      30.200  -0.038  53.408  1.00  0.00     0.015 C 
ENDBRANCH  16  19
ENDBRANCH  11  13
ENDBRANCH   1  11
BRANCH   3  22
HETATM   22  N3  UNL     1      19.640   1.728  50.791  1.00  0.00    -0.231 N 
HETATM   23  H11 UNL     1      18.793   1.118  50.940  1.00  0.00     0.174 HD
HETATM   24  H12 UNL     1      19.568   2.493  50.080  1.00  0.00     0.174 HD
ENDBRANCH   3  22
TORSDOF 4
ENDMDL
MODEL 8
REMARK VINA RESULT:      -7.5      3.942      6.139
REMARK  4 active torsions:
REMARK  status: ('A' for Active; 'I' for Inactive)
REMARK    1  A    between atoms: C2_2  and  C4_4 
REMARK    2  A    between atoms: C7_7  and  N1_8 
REMARK    3  A    between atoms: N1_8  and  C8_9 
REMARK    4  A    between atoms: C9_11  and  N3_12 
ROOT
HETATM    1  C8  UNL     1      25.219   0.884  52.585  1.00  0.00     0.159 A 
HETATM    2  N2  UNL     1      26.471   0.747  53.095  1.00  0.00    -0.045 NA
HETATM    3  C9  UNL     1      26.669  -0.039  54.200  1.00  0.00     0.724 A 
HETATM    4  N4  UNL     1      25.645  -0.679  54.787  1.00  0.00    -0.043 NA
HETATM    5  C10 UNL     1      24.393  -0.599  54.349  1.00  0.00     0.178 A 
HETATM    6  C11 UNL     1      24.209   0.197  53.237  1.00  0.00     0.063 A 
HETATM    7  C12 UNL     1      22.746   0.149  52.938  1.00  0.00     0.248 C 
HETATM    8  O1  UNL     1      22.406  -1.067  53.518  1.00  0.00    -0.274 OA
HETATM    9  N5  UNL     1      23.110  -1.126  54.696  1.00  0.00    -0.247 N 
HETATM   10  H15 UNL     1      22.861  -1.462  55.672  1.00  0.00     0.196 HD
ENDROOT
BRANCH   1  11
HETATM   11  N1  UNL     1      24.896   1.673  51.455  1.00  0.00    -0.340 N 
HETATM   12  H10 UNL     1      24.115   1.131  50.956  1.00  0.00     0.167 HD
BRANCH  11  13
HETATM   13  C7  UNL     1      25.262   2.875  50.802  1.00  0.00     0.033 A 
HETATM   14  C6  UNL     1      24.531   4.039  50.887  1.00  0.00     0.030 A 
HETATM   15  C5  UNL     1      24.956   5.178  50.202  1.00  0.00     0.010 A 
HETATM   16  C4  UNL     1      26.120   5.103  49.442  1.00  0.00    -0.055 A 
HETATM   17  C14 UNL     1      26.858   3.940  49.353  1.00  0.00     0.010 A 
HETATM   18  C13 UNL     1      26.426   2.822  50.035  1.00  0.00     0.030 A 
BRANCH  16  19
HETATM   19  C2  UNL     1      26.597   6.299  48.707  1.00  0.00     0.010 C 
HETATM   20  C1  UNL     1      26.505   7.572  49.521  1.00  0.00     0.015 C 
HETATM   21  C3  UNL     1      28.031   6.127  48.228  1.00  0.00     0.015 C 
ENDBRANCH  16  19
ENDBRANCH  11  13
ENDBRANCH   1  11
BRANCH   3  22
HETATM   22  N3  UNL     1      27.944  -0.220  54.793  1.00  0.00    -0.231 N 
HETATM   23  H11 UNL     1      27.712   0.020  55.794  1.00  0.00     0.174 HD
HETATM   24  H12 UNL     1      28.934  -0.481  54.575  1.00  0.00     0.174 HD
ENDBRANCH   3  22
TORSDOF 4
ENDMDL
MODEL 9
REMARK VINA RESULT:      -7.4      3.142      4.370
REMARK  4 active torsions:
REMARK  status: ('A' for Active; 'I' for Inactive)
REMARK    1  A    between atoms: C2_2  and  C4_4 
REMARK    2  A    between atoms: C7_7  and  N1_8 
REMARK    3  A    between atoms: N1_8  and  C8_9 
REMARK    4  A    between atoms: C9_11  and  N3_12 
ROOT
HETATM    1  C8  UNL     1      25.693   0.943  53.054  1.00  0.00     0.159 A 
HETATM    2  N2  UNL     1      24.959   0.025  53.736  1.00  0.00    -0.045 NA
HETATM    3  C9  UNL     1      25.477  -0.551  54.866  1.00  0.00     0.724 A 
HETATM    4  N4  UNL     1      26.698  -0.221  55.315  1.00  0.00    -0.043 NA
HETATM    5  C10 UNL     1      27.477   0.669  54.707  1.00  0.00     0.178 A 
HETATM    6  C11 UNL     1      26.944   1.238  53.569  1.00  0.00     0.063 A 
HETATM    7  C12 UNL     1      27.984   2.180  53.058  1.00  0.00     0.248 C 
HETATM    8  O1  UNL     1      28.682   2.451  54.228  1.00  0.00    -0.274 OA
HETATM    9  N5  UNL     1      28.770   1.252  54.894  1.00  0.00    -0.247 N 
HETATM   10  H15 UNL     1      29.548   0.784  55.442  1.00  0.00     0.196 HD
ENDROOT
BRANCH   1  11
HETATM   11  N1  UNL     1      25.264   1.596  51.873  1.00  0.00    -0.340 N 
HETATM   12  H10 UNL     1      25.444   0.887  51.087  1.00  0.00     0.167 HD
BRANCH  11  13
HETATM   13  C7  UNL     1      24.719   2.821  51.420  1.00  0.00     0.033 A 
HETATM   14  C6  UNL     1      24.829   3.268  50.122  1.00  0.00     0.030 A 
HETATM   15  C5  UNL     1      24.271   4.495  49.760  1.00  0.00     0.010 A 
HETATM   16  C4  UNL     1      23.612   5.241  50.733  1.00  0.00    -0.055 A 
HETATM   17  C14 UNL     1      23.497   4.799  52.035  1.00  0.00     0.010 A 
HETATM   18  C13 UNL     1      24.053   3.585  52.380  1.00  0.00     0.030 A 
BRANCH  16  19
HETATM   19  C2  UNL     1      23.007   6.546  50.376  1.00  0.00     0.010 C 
HETATM   20  C1  UNL     1      21.620   6.735  50.953  1.00  0.00     0.015 C 
HETATM   21  C3  UNL     1      23.882   7.709  50.817  1.00  0.00     0.015 C 
ENDBRANCH  16  19
ENDBRANCH  11  13
ENDBRANCH   1  11
BRANCH   3  22
HETATM   22  N3  UNL     1      24.773  -1.523  55.622  1.00  0.00    -0.231 N 
HETATM   23  H11 UNL     1      24.324  -0.898  56.343  1.00  0.00     0.174 HD
HETATM   24  H12 UNL     1      24.585  -2.551  55.685  1.00  0.00     0.174 HD
ENDBRANCH   3  22
TORSDOF 4
ENDMDL
