MODEL 1
REMARK VINA RESULT:      -7.8      0.000      0.000
REMARK  4 active torsions:
REMARK  status: ('A' for Active; 'I' for Inactive)
REMARK    1  A    between atoms: C2_2  and  C3_3 
REMARK    2  A    between atoms: C4_5  and  C5_6 
REMARK    3  A    between atoms: N2_10  and  C8_11 
REMARK    4  A    between atoms: C9_13  and  O1_14 
ROOT
HETATM    1  C5  UNL     1      26.852   2.172  51.839  1.00  0.00     0.016 C 
HETATM    2  C6  UNL     1      25.635   2.653  51.680  1.00  0.00    -0.011 C 
HETATM    3  C7  UNL     1      24.791   2.602  52.900  1.00  0.00     0.150 C 
HETATM    4  N1  UNL     1      23.528   2.409  53.046  1.00  0.00    -0.182 NA
HETATM    5  N2  UNL     1      22.458   2.180  52.188  1.00  0.00    -0.242 N 
HETATM    6  C11 UNL     1      22.101   2.833  50.981  1.00  0.00     0.112 C 
HETATM    7  C12 UNL     1      22.138   4.344  51.149  1.00  0.00     0.034 C 
HETATM    8  C13 UNL     1      22.843   2.447  49.748  1.00  0.00     0.054 C 
HETATM    9  C14 UNL     1      24.229   2.962  49.652  1.00  0.00    -0.017 C 
HETATM   10  C15 UNL     1      25.397   3.104  50.313  1.00  0.00    -0.054 C 
HETATM   11  C16 UNL     1      26.516   3.770  49.642  1.00  0.00     0.049 C 
ENDROOT
BRANCH   5  12
HETATM   12  C8  UNL     1      21.661   1.018  52.784  1.00  0.00     0.192 A 
HETATM   13  N3  UNL     1      21.410   0.089  53.436  1.00  0.00    -0.198 NA
HETATM   14  C9  UNL     1      20.258  -0.531  53.459  1.00  0.00     0.171 A 
HETATM   15  C10 UNL     1      19.223  -0.087  52.665  1.00  0.00     0.111 A 
HETATM   16  S1  UNL     1      20.007   1.323  51.845  1.00  0.00    -0.058 SA
BRANCH  14  17
HETATM   17  O1  UNL     1      20.059  -1.645  54.277  1.00  0.00    -0.344 OA
HETATM   18  H7  UNL     1      20.737  -1.904  54.994  1.00  0.00     0.219 HD
ENDBRANCH  14  17
ENDBRANCH   5  12
BRANCH   1  19
HETATM   19  C4  UNL     1      27.838   1.580  52.679  1.00  0.00     0.039 C 
HETATM   20  C3  UNL     1      28.788   1.602  53.597  1.00  0.00     0.098 C 
HETATM   21  F1  UNL     1      28.676   2.928  53.654  1.00  0.00    -0.210 F 
BRANCH  20  22
HETATM   22  C2  UNL     1      29.393   0.351  53.949  1.00  0.00     0.058 C 
HETATM   23  C1  UNL     1      28.420   0.070  54.826  1.00  0.00     0.013 C 
ENDBRANCH  20  22
ENDBRANCH   1  19
TORSDOF 4
ENDMDL
MODEL 2
REMARK VINA RESULT:      -7.8      4.304      5.958
REMARK  4 active torsions:
REMARK  status: ('A' for Active; 'I' for Inactive)
REMARK    1  A    between atoms: C2_2  and  C3_3 
REMARK    2  A    between atoms: C4_5  and  C5_6 
REMARK    3  A    between atoms: N2_10  and  C8_11 
REMARK    4  A    between atoms: C9_13  and  O1_14 
ROOT
HETATM    1  C5  UNL     1      26.167   1.603  52.403  1.00  0.00     0.016 C 
HETATM    2  C6  UNL     1      25.432   2.248  51.519  1.00  0.00    -0.011 C 
HETATM    3  C7  UNL     1      26.211   3.034  50.529  1.00  0.00     0.150 C 
HETATM    4  N1  UNL     1      25.956   4.154  49.951  1.00  0.00    -0.182 NA
HETATM    5  N2  UNL     1      24.909   5.068  49.986  1.00  0.00    -0.242 N 
HETATM    6  C11 UNL     1      23.509   4.853  49.929  1.00  0.00     0.112 C 
HETATM    7  C12 UNL     1      23.150   3.904  48.795  1.00  0.00     0.034 C 
HETATM    8  C13 UNL     1      22.832   4.415  51.182  1.00  0.00     0.054 C 
HETATM    9  C14 UNL     1      23.063   3.004  51.571  1.00  0.00    -0.017 C 
HETATM   10  C15 UNL     1      24.004   2.051  51.744  1.00  0.00    -0.054 C 
HETATM   11  C16 UNL     1      23.589   0.713  52.169  1.00  0.00     0.049 C 
ENDROOT
BRANCH   5  12
HETATM   12  C8  UNL     1      25.543   6.454  50.113  1.00  0.00     0.192 A 
HETATM   13  N3  UNL     1      25.763   7.519  50.524  1.00  0.00    -0.198 NA
HETATM   14  C9  UNL     1      26.653   8.349  50.041  1.00  0.00     0.171 A 
HETATM   15  C10 UNL     1      27.418   7.979  48.956  1.00  0.00     0.111 A 
HETATM   16  S1  UNL     1      26.780   6.314  48.643  1.00  0.00    -0.058 SA
BRANCH  14  17
HETATM   17  O1  UNL     1      26.838   9.612  50.607  1.00  0.00    -0.344 OA
HETATM   18  H7  UNL     1      27.701  10.136  50.458  1.00  0.00     0.219 HD
ENDBRANCH  14  17
ENDBRANCH   5  12
BRANCH   1  19
HETATM   19  C4  UNL     1      27.450   1.259  52.917  1.00  0.00     0.039 C 
HETATM   20  C3  UNL     1      28.646   1.530  53.408  1.00  0.00     0.098 C 
HETATM   21  F1  UNL     1      28.390   2.829  53.267  1.00  0.00    -0.210 F 
BRANCH  20  22
HETATM   22  C2  UNL     1      29.491   0.419  53.732  1.00  0.00     0.058 C 
HETATM   23  C1  UNL     1      28.685   0.030  54.727  1.00  0.00     0.013 C 
ENDBRANCH  20  22
ENDBRANCH   1  19
TORSDOF 4
ENDMDL
MODEL 3
REMARK VINA RESULT:      -7.7      3.408      5.011
REMARK  4 active torsions:
REMARK  status: ('A' for Active; 'I' for Inactive)
REMARK    1  A    between atoms: C2_2  and  C3_3 
REMARK    2  A    between atoms: C4_5  and  C5_6 
REMARK    3  A    between atoms: N2_10  and  C8_11 
REMARK    4  A    between atoms: C9_13  and  O1_14 
ROOT
HETATM    1  C5  UNL     1      25.050   0.115  53.413  1.00  0.00     0.016 C 
HETATM    2  C6  UNL     1      24.115   0.616  52.629  1.00  0.00    -0.011 C 
HETATM    3  C7  UNL     1      24.629   1.485  51.541  1.00  0.00     0.150 C 
HETATM    4  N1  UNL     1      24.131   2.537  50.994  1.00  0.00    -0.182 NA
HETATM    5  N2  UNL     1      22.967   3.281  51.160  1.00  0.00    -0.242 N 
HETATM    6  C11 UNL     1      21.622   2.852  51.289  1.00  0.00     0.112 C 
HETATM    7  C12 UNL     1      21.272   1.829  50.218  1.00  0.00     0.034 C 
HETATM    8  C13 UNL     1      21.189   2.348  52.623  1.00  0.00     0.054 C 
HETATM    9  C14 UNL     1      21.685   1.000  52.987  1.00  0.00    -0.017 C 
HETATM   10  C15 UNL     1      22.777   0.209  53.041  1.00  0.00    -0.054 C 
HETATM   11  C16 UNL     1      22.633  -1.166  53.526  1.00  0.00     0.049 C 
ENDROOT
BRANCH   5  12
HETATM   12  C8  UNL     1      23.389   4.750  51.194  1.00  0.00     0.192 A 
HETATM   13  N3  UNL     1      23.447   5.860  51.534  1.00  0.00    -0.198 NA
HETATM   14  C9  UNL     1      24.206   6.779  50.994  1.00  0.00     0.171 A 
HETATM   15  C10 UNL     1      25.023   6.458  49.932  1.00  0.00     0.111 A 
HETATM   16  S1  UNL     1      24.640   4.700  49.730  1.00  0.00    -0.058 SA
BRANCH  14  17
HETATM   17  O1  UNL     1      24.201   8.090  51.476  1.00  0.00    -0.344 OA
HETATM   18  H7  UNL     1      23.983   8.877  50.865  1.00  0.00     0.219 HD
ENDBRANCH  14  17
ENDBRANCH   5  12
BRANCH   1  19
HETATM   19  C4  UNL     1      26.426  -0.014  53.756  1.00  0.00     0.039 C 
HETATM   20  C3  UNL     1      27.698  -0.258  53.499  1.00  0.00     0.098 C 
HETATM   21  F1  UNL     1      27.369  -0.543  52.240  1.00  0.00    -0.210 F 
BRANCH  20  22
HETATM   22  C2  UNL     1      28.622  -0.155  54.590  1.00  0.00     0.058 C 
HETATM   23  C1  UNL     1      29.625  -0.652  53.854  1.00  0.00     0.013 C 
ENDBRANCH  20  22
ENDBRANCH   1  19
TORSDOF 4
ENDMDL
MODEL 4
REMARK VINA RESULT:      -7.3      3.094      5.065
REMARK  4 active torsions:
REMARK  status: ('A' for Active; 'I' for Inactive)
REMARK    1  A    between atoms: C2_2  and  C3_3 
REMARK    2  A    between atoms: C4_5  and  C5_6 
REMARK    3  A    between atoms: N2_10  and  C8_11 
REMARK    4  A    between atoms: C9_13  and  O1_14 
ROOT
HETATM    1  C5  UNL     1      25.077   4.750  49.071  1.00  0.00     0.016 C 
HETATM    2  C6  UNL     1      24.306   4.103  49.922  1.00  0.00    -0.011 C 
HETATM    3  C7  UNL     1      24.924   3.861  51.250  1.00  0.00     0.150 C 
HETATM    4  N1  UNL     1      24.811   2.875  52.067  1.00  0.00    -0.182 NA
HETATM    5  N2  UNL     1      24.107   1.676  52.078  1.00  0.00    -0.242 N 
HETATM    6  C11 UNL     1      22.752   1.413  51.755  1.00  0.00     0.112 C 
HETATM    7  C12 UNL     1      21.826   2.407  52.440  1.00  0.00     0.034 C 
HETATM    8  C13 UNL     1      22.399   1.313  50.310  1.00  0.00     0.054 C 
HETATM    9  C14 UNL     1      22.356   2.599  49.575  1.00  0.00    -0.017 C 
HETATM   10  C15 UNL     1      23.017   3.751  49.336  1.00  0.00    -0.054 C 
HETATM   11  C16 UNL     1      22.412   4.744  48.446  1.00  0.00     0.049 C 
ENDROOT
BRANCH   5  12
HETATM   12  C8  UNL     1      25.092   0.594  52.521  1.00  0.00     0.192 A 
HETATM   13  N3  UNL     1      25.638  -0.432  52.565  1.00  0.00    -0.198 NA
HETATM   14  C9  UNL     1      26.638  -0.724  53.356  1.00  0.00     0.171 A 
HETATM   15  C10 UNL     1      27.125   0.227  54.227  1.00  0.00     0.111 A 
HETATM   16  S1  UNL     1      26.037   1.623  53.847  1.00  0.00    -0.058 SA
BRANCH  14  17
HETATM   17  O1  UNL     1      27.224  -1.992  53.335  1.00  0.00    -0.344 OA
HETATM   18  H7  UNL     1      27.763  -2.338  54.129  1.00  0.00     0.219 HD
ENDBRANCH  14  17
ENDBRANCH   5  12
BRANCH   1  19
HETATM   19  C4  UNL     1      26.317   5.386  48.776  1.00  0.00     0.039 C 
HETATM   20  C3  UNL     1      27.610   5.405  48.507  1.00  0.00     0.098 C 
HETATM   21  F1  UNL     1      27.638   4.080  48.642  1.00  0.00    -0.210 F 
BRANCH  20  22
HETATM   22  C2  UNL     1      28.221   6.685  48.300  1.00  0.00     0.058 C 
HETATM   23  C1  UNL     1      29.377   6.128  47.919  1.00  0.00     0.013 C 
ENDBRANCH  20  22
ENDBRANCH   1  19
TORSDOF 4
ENDMDL
MODEL 5
REMARK VINA RESULT:      -7.1      3.974      6.984
REMARK  4 active torsions:
REMARK  status: ('A' for Active; 'I' for Inactive)
REMARK    1  A    between atoms: C2_2  and  C3_3 
REMARK    2  A    between atoms: C4_5  and  C5_6 
REMARK    3  A    between atoms: N2_10  and  C8_11 
REMARK    4  A    between atoms: C9_13  and  O1_14 
ROOT
HETATM    1  C5  UNL     1      20.637  -0.452  53.322  1.00  0.00     0.016 C 
HETATM    2  C6  UNL     1      21.599   0.447  53.261  1.00  0.00    -0.011 C 
HETATM    3  C7  UNL     1      21.162   1.783  52.783  1.00  0.00     0.150 C 
HETATM    4  N1  UNL     1      21.768   2.666  52.072  1.00  0.00    -0.182 NA
HETATM    5  N2  UNL     1      23.019   2.764  51.474  1.00  0.00    -0.242 N 
HETATM    6  C11 UNL     1      24.305   2.470  51.996  1.00  0.00     0.112 C 
HETATM    7  C12 UNL     1      24.489   3.094  53.371  1.00  0.00     0.034 C 
HETATM    8  C13 UNL     1      24.716   1.038  52.036  1.00  0.00     0.054 C 
HETATM    9  C14 UNL     1      24.069   0.218  53.087  1.00  0.00    -0.017 C 
HETATM   10  C15 UNL     1      22.890  -0.103  53.659  1.00  0.00    -0.054 C 
HETATM   11  C16 UNL     1      22.878  -1.054  54.774  1.00  0.00     0.049 C 
ENDROOT
BRANCH   5  12
HETATM   12  C8  UNL     1      22.785   3.270  50.050  1.00  0.00     0.192 A 
HETATM   13  N3  UNL     1      22.774   3.988  49.136  1.00  0.00    -0.198 NA
HETATM   14  C9  UNL     1      22.346   3.683  47.938  1.00  0.00     0.171 A 
HETATM   15  C10 UNL     1      21.859   2.419  47.684  1.00  0.00     0.111 A 
HETATM   16  S1  UNL     1      22.049   1.650  49.312  1.00  0.00    -0.058 SA
BRANCH  14  17
HETATM   17  O1  UNL     1      22.371   4.623  46.905  1.00  0.00    -0.344 OA
HETATM   18  H7  UNL     1      21.796   5.464  46.941  1.00  0.00     0.219 HD
ENDBRANCH  14  17
ENDBRANCH   5  12
BRANCH   1  19
HETATM   19  C4  UNL     1      19.267  -0.799  53.141  1.00  0.00     0.039 C 
HETATM   20  C3  UNL     1      18.145  -0.895  52.450  1.00  0.00     0.098 C 
HETATM   21  F1  UNL     1      18.747  -0.294  51.425  1.00  0.00    -0.210 F 
BRANCH  20  22
HETATM   22  C2  UNL     1      17.011  -1.468  53.113  1.00  0.00     0.058 C 
HETATM   23  C1  UNL     1      17.725  -2.519  53.535  1.00  0.00     0.013 C 
ENDBRANCH  20  22
ENDBRANCH   1  19
TORSDOF 4
ENDMDL
MODEL 6
REMARK VINA RESULT:      -6.9      2.570      2.845
REMARK  4 active torsions:
REMARK  status: ('A' for Active; 'I' for Inactive)
REMARK    1  A    between atoms: C2_2  and  C3_3 
REMARK    2  A    between atoms: C4_5  and  C5_6 
REMARK    3  A    between atoms: N2_10  and  C8_11 
REMARK    4  A    between atoms: C9_13  and  O1_14 
ROOT
HETATM    1  C5  UNL     1      25.974   2.247  50.966  1.00  0.00     0.016 C 
HETATM    2  C6  UNL     1      25.267   3.359  50.921  1.00  0.00    -0.011 C 
HETATM    3  C7  UNL     1      24.333   3.538  52.060  1.00  0.00     0.150 C 
HETATM    4  N1  UNL     1      23.166   4.077  52.120  1.00  0.00    -0.182 NA
HETATM    5  N2  UNL     1      22.316   4.695  51.210  1.00  0.00    -0.242 N 
HETATM    6  C11 UNL     1      22.592   5.677  50.225  1.00  0.00     0.112 C 
HETATM    7  C12 UNL     1      23.418   6.814  50.808  1.00  0.00     0.034 C 
HETATM    8  C13 UNL     1      23.208   5.214  48.949  1.00  0.00     0.054 C 
HETATM    9  C14 UNL     1      24.641   4.848  49.030  1.00  0.00    -0.017 C 
HETATM   10  C15 UNL     1      25.559   4.148  49.729  1.00  0.00    -0.054 C 
HETATM   11  C16 UNL     1      26.958   4.179  49.294  1.00  0.00     0.049 C 
ENDROOT
BRANCH   5  12
HETATM   12  C8  UNL     1      20.924   4.104  51.441  1.00  0.00     0.192 A 
HETATM   13  N3  UNL     1      19.830   4.008  51.821  1.00  0.00    -0.198 NA
HETATM   14  C9  UNL     1      19.026   3.007  51.570  1.00  0.00     0.171 A 
HETATM   15  C10 UNL     1      19.463   1.953  50.797  1.00  0.00     0.111 A 
HETATM   16  S1  UNL     1      21.154   2.482  50.427  1.00  0.00    -0.058 SA
BRANCH  14  17
HETATM   17  O1  UNL     1      17.726   2.985  52.079  1.00  0.00    -0.344 OA
HETATM   18  H7  UNL     1      17.544   2.756  53.056  1.00  0.00     0.219 HD
ENDBRANCH  14  17
ENDBRANCH   5  12
BRANCH   1  19
HETATM   19  C4  UNL     1      26.311   1.032  51.628  1.00  0.00     0.039 C 
HETATM   20  C3  UNL     1      27.049   0.273  52.418  1.00  0.00     0.098 C 
HETATM   21  F1  UNL     1      27.885   1.296  52.589  1.00  0.00    -0.210 F 
BRANCH  20  22
HETATM   22  C2  UNL     1      26.637  -1.088  52.597  1.00  0.00     0.058 C 
HETATM   23  C1  UNL     1      25.543  -0.721  53.277  1.00  0.00     0.013 C 
ENDBRANCH  20  22
ENDBRANCH   1  19
TORSDOF 4
ENDMDL
MODEL 7
REMARK VINA RESULT:      -6.8      8.231     10.911
REMARK  4 active torsions:
REMARK  status: ('A' for Active; 'I' for Inactive)
REMARK    1  A    between atoms: C2_2  and  C3_3 
REMARK    2  A    between atoms: C4_5  and  C5_6 
REMARK    3  A    between atoms: N2_10  and  C8_11 
REMARK    4  A    between atoms: C9_13  and  O1_14 
ROOT
HETATM    1  C5  UNL     1      27.414   6.850  48.845  1.00  0.00     0.016 C 
HETATM    2  C6  UNL     1      28.416   7.537  48.334  1.00  0.00    -0.011 C 
HETATM    3  C7  UNL     1      29.367   6.729  47.529  1.00  0.00     0.150 C 
HETATM    4  N1  UNL     1      30.640   6.827  47.378  1.00  0.00    -0.182 NA
HETATM    5  N2  UNL     1      31.631   7.674  47.862  1.00  0.00    -0.242 N 
HETATM    6  C11 UNL     1      31.652   9.088  47.964  1.00  0.00     0.112 C 
HETATM    7  C12 UNL     1      31.199   9.733  46.662  1.00  0.00     0.034 C 
HETATM    8  C13 UNL     1      30.922   9.703  49.108  1.00  0.00     0.054 C 
HETATM    9  C14 UNL     1      29.444   9.703  48.995  1.00  0.00    -0.017 C 
HETATM   10  C15 UNL     1      28.364   8.945  48.711  1.00  0.00    -0.054 C 
HETATM   11  C16 UNL     1      27.035   9.559  48.757  1.00  0.00     0.049 C 
ENDROOT
BRANCH   5  12
HETATM   12  C8  UNL     1      32.788   6.781  48.312  1.00  0.00     0.192 A 
HETATM   13  N3  UNL     1      33.353   5.844  48.704  1.00  0.00    -0.198 NA
HETATM   14  C9  UNL     1      34.648   5.755  48.870  1.00  0.00     0.171 A 
HETATM   15  C10 UNL     1      35.454   6.831  48.569  1.00  0.00     0.111 A 
HETATM   16  S1  UNL     1      34.220   8.033  48.014  1.00  0.00    -0.058 SA
BRANCH  14  17
HETATM   17  O1  UNL     1      35.232   4.581  49.352  1.00  0.00    -0.344 OA
HETATM   18  H7  UNL     1      36.206   4.560  49.653  1.00  0.00     0.219 HD
ENDBRANCH  14  17
ENDBRANCH   5  12
BRANCH   1  19
HETATM   19  C4  UNL     1      26.736   5.608  49.016  1.00  0.00     0.039 C 
HETATM   20  C3  UNL     1      26.648   4.290  49.005  1.00  0.00     0.098 C 
HETATM   21  F1  UNL     1      27.902   4.228  48.560  1.00  0.00    -0.210 F 
BRANCH  20  22
HETATM   22  C2  UNL     1      25.389   3.712  49.374  1.00  0.00     0.058 C 
HETATM   23  C1  UNL     1      25.910   3.156  50.475  1.00  0.00     0.013 C 
ENDBRANCH  20  22
ENDBRANCH   1  19
TORSDOF 4
ENDMDL
MODEL 8
REMARK VINA RESULT:      -6.7      3.860      5.539
REMARK  4 active torsions:
REMARK  status: ('A' for Active; 'I' for Inactive)
REMARK    1  A    between atoms: C2_2  and  C3_3 
REMARK    2  A    between atoms: C4_5  and  C5_6 
REMARK    3  A    between atoms: N2_10  and  C8_11 
REMARK    4  A    between atoms: C9_13  and  O1_14 
ROOT
HETATM    1  C5  UNL     1      23.879   1.608  52.362  1.00  0.00     0.016 C 
HETATM    2  C6  UNL     1      24.089   2.819  51.886  1.00  0.00    -0.011 C 
HETATM    3  C7  UNL     1      23.120   3.841  52.356  1.00  0.00     0.150 C 
HETATM    4  N1  UNL     1      22.622   4.868  51.765  1.00  0.00    -0.182 NA
HETATM    5  N2  UNL     1      22.758   5.447  50.508  1.00  0.00    -0.242 N 
HETATM    6  C11 UNL     1      23.927   5.724  49.754  1.00  0.00     0.112 C 
HETATM    7  C12 UNL     1      24.975   6.419  50.611  1.00  0.00     0.034 C 
HETATM    8  C13 UNL     1      24.553   4.589  49.019  1.00  0.00     0.054 C 
HETATM    9  C14 UNL     1      25.289   3.615  49.859  1.00  0.00    -0.017 C 
HETATM   10  C15 UNL     1      25.229   2.861  50.976  1.00  0.00    -0.054 C 
HETATM   11  C16 UNL     1      26.381   2.030  51.334  1.00  0.00     0.049 C 
ENDROOT
BRANCH   5  12
HETATM   12  C8  UNL     1      21.345   5.760  50.015  1.00  0.00     0.192 A 
HETATM   13  N3  UNL     1      20.263   5.589  49.626  1.00  0.00    -0.198 NA
HETATM   14  C9  UNL     1      19.392   6.532  49.370  1.00  0.00     0.171 A 
HETATM   15  C10 UNL     1      19.734   7.853  49.562  1.00  0.00     0.111 A 
HETATM   16  S1  UNL     1      21.437   7.679  50.151  1.00  0.00    -0.058 SA
BRANCH  14  17
HETATM   17  O1  UNL     1      18.114   6.221  48.901  1.00  0.00    -0.344 OA
HETATM   18  H7  UNL     1      17.962   5.930  47.935  1.00  0.00     0.219 HD
ENDBRANCH  14  17
ENDBRANCH   5  12
BRANCH   1  19
HETATM   19  C4  UNL     1      23.114   0.724  53.177  1.00  0.00     0.039 C 
HETATM   20  C3  UNL     1      22.259  -0.261  53.385  1.00  0.00     0.098 C 
HETATM   21  F1  UNL     1      22.085  -0.363  52.069  1.00  0.00    -0.210 F 
BRANCH  20  22
HETATM   22  C2  UNL     1      21.971  -0.605  54.747  1.00  0.00     0.058 C 
HETATM   23  C1  UNL     1      21.212  -1.643  54.377  1.00  0.00     0.013 C 
ENDBRANCH  20  22
ENDBRANCH   1  19
TORSDOF 4
ENDMDL
MODEL 9
REMARK VINA RESULT:      -6.4      8.907     11.599
REMARK  4 active torsions:
REMARK  status: ('A' for Active; 'I' for Inactive)
REMARK    1  A    between atoms: C2_2  and  C3_3 
REMARK    2  A    between atoms: C4_5  and  C5_6 
REMARK    3  A    between atoms: N2_10  and  C8_11 
REMARK    4  A    between atoms: C9_13  and  O1_14 
ROOT
HETATM    1  C5  UNL     1      29.411   5.541  48.100  1.00  0.00     0.016 C 
HETATM    2  C6  UNL     1      30.522   6.250  48.112  1.00  0.00    -0.011 C 
HETATM    3  C7  UNL     1      30.463   7.471  48.953  1.00  0.00     0.150 C 
HETATM    4  N1  UNL     1      31.006   8.627  48.803  1.00  0.00    -0.182 NA
HETATM    5  N2  UNL     1      31.837   9.213  47.856  1.00  0.00    -0.242 N 
HETATM    6  C11 UNL     1      33.010   8.711  47.237  1.00  0.00     0.112 C 
HETATM    7  C12 UNL     1      33.961   8.125  48.270  1.00  0.00     0.034 C 
HETATM    8  C13 UNL     1      32.833   7.746  46.115  1.00  0.00     0.054 C 
HETATM    9  C14 UNL     1      32.420   6.379  46.509  1.00  0.00    -0.017 C 
HETATM   10  C15 UNL     1      31.554   5.667  47.260  1.00  0.00    -0.054 C 
HETATM   11  C16 UNL     1      31.645   4.205  47.254  1.00  0.00     0.049 C 
ENDROOT
BRANCH   5  12
HETATM   12  C8  UNL     1      31.248  10.590  47.548  1.00  0.00     0.192 A 
HETATM   13  N3  UNL     1      31.100  11.743  47.571  1.00  0.00    -0.198 NA
HETATM   14  C9  UNL     1      30.200  12.405  46.890  1.00  0.00     0.171 A 
HETATM   15  C10 UNL     1      29.331  11.728  46.062  1.00  0.00     0.111 A 
HETATM   16  S1  UNL     1      29.884  10.023  46.311  1.00  0.00    -0.058 SA
BRANCH  14  17
HETATM   17  O1  UNL     1      30.101  13.794  46.991  1.00  0.00    -0.344 OA
HETATM   18  H7  UNL     1      30.411  14.403  46.233  1.00  0.00     0.219 HD
ENDBRANCH  14  17
ENDBRANCH   5  12
BRANCH   1  19
HETATM   19  C4  UNL     1      28.068   5.356  48.537  1.00  0.00     0.039 C 
HETATM   20  C3  UNL     1      26.785   5.664  48.602  1.00  0.00     0.098 C 
HETATM   21  F1  UNL     1      27.022   6.734  47.845  1.00  0.00    -0.210 F 
BRANCH  20  22
HETATM   22  C2  UNL     1      25.945   4.820  49.400  1.00  0.00     0.058 C 
HETATM   23  C1  UNL     1      26.837   3.822  49.376  1.00  0.00     0.013 C 
ENDBRANCH  20  22
ENDBRANCH   1  19
TORSDOF 4
ENDMDL
