MODEL 1
REMARK VINA RESULT:      -6.7      0.000      0.000
REMARK  6 active torsions:
REMARK  status: ('A' for Active; 'I' for Inactive)
REMARK    1  A    between atoms: C2_2  and  N1_3 
REMARK    2  A    between atoms: N1_3  and  C3_4 
REMARK    3  A    between atoms: C8_11  and  O1_12 
REMARK    4  A    between atoms: O1_12  and  C9_13 
REMARK    5  A    between atoms: C9_13  and  C10_14 
REMARK    6  A    between atoms: C10_14  and  O2_15 
ROOT
HETATM    1  C3  UNL     1      26.479   3.625  49.783  1.00  0.00     0.117 C 
HETATM    2  C4  UNL     1      25.496   3.377  50.665  1.00  0.00     0.086 A 
HETATM    3  N2  UNL     1      24.774   4.522  51.090  1.00  0.00    -0.242 NA
HETATM    4  C5  UNL     1      23.755   4.354  51.863  1.00  0.00     0.233 A 
HETATM    5  N3  UNL     1      23.338   3.068  52.302  1.00  0.00    -0.243 NA
HETATM    6  C6  UNL     1      23.985   2.012  51.941  1.00  0.00     0.073 A 
HETATM    7  C7  UNL     1      23.450   0.759  52.458  1.00  0.00     0.064 C 
HETATM    8  C8  UNL     1      23.532  -0.297  53.292  1.00  0.00     0.072 C 
HETATM    9  C12 UNL     1      24.636  -0.510  54.279  1.00  0.00     0.237 C 
HETATM   10  O3  UNL     1      25.467   0.585  54.114  1.00  0.00    -0.360 OA
HETATM   11  P1  UNL     1      27.149   0.259  54.388  1.00  0.00     0.014 P 
HETATM   12  C13 UNL     1      28.168   1.224  53.132  1.00  0.00     0.086 C 
HETATM   13  C14 UNL     1      27.203   2.145  52.364  1.00  0.00     0.175 C 
HETATM   14  O4  UNL     1      26.256   1.371  51.759  1.00  0.00    -0.373 OA
HETATM   15  C15 UNL     1      25.232   2.002  51.098  1.00  0.00     0.226 A 
HETATM   16  H17 UNL     1      27.516   0.771  55.694  1.00  0.00     0.087 HD
ENDROOT
BRANCH   1  17
HETATM   17  N1  UNL     1      26.725   4.978  49.346  1.00  0.00    -0.374 N 
HETATM   18  H4  UNL     1      26.206   5.875  49.522  1.00  0.00     0.164 HD
BRANCH  17  19
HETATM   19  C2  UNL     1      27.883   5.083  48.535  1.00  0.00     0.077 C 
HETATM   20  C1  UNL     1      28.666   6.065  48.130  1.00  0.00     0.029 C 
ENDBRANCH  17  19
ENDBRANCH   1  17
BRANCH   8  21
HETATM   21  O1  UNL     1      22.688  -1.356  53.433  1.00  0.00    -0.351 OA
BRANCH  21  22
HETATM   22  C9  UNL     1      21.761  -1.570  54.473  1.00  0.00     0.201 C 
BRANCH  22  23
HETATM   23  C10 UNL     1      20.367  -1.281  53.966  1.00  0.00     0.193 C 
BRANCH  23  24
HETATM   24  O2  UNL     1      20.105   0.044  53.713  1.00  0.00    -0.394 OA
HETATM   25  C11 UNL     1      19.671   0.243  52.412  1.00  0.00     0.201 C 
ENDBRANCH  23  24
ENDBRANCH  22  23
ENDBRANCH  21  22
ENDBRANCH   8  21
TORSDOF 6
ENDMDL
MODEL 2
REMARK VINA RESULT:      -6.5      3.117      5.393
REMARK  6 active torsions:
REMARK  status: ('A' for Active; 'I' for Inactive)
REMARK    1  A    between atoms: C2_2  and  N1_3 
REMARK    2  A    between atoms: N1_3  and  C3_4 
REMARK    3  A    between atoms: C8_11  and  O1_12 
REMARK    4  A    between atoms: O1_12  and  C9_13 
REMARK    5  A    between atoms: C9_13  and  C10_14 
REMARK    6  A    between atoms: C10_14  and  O2_15 
ROOT
HETATM    1  C3  UNL     1      26.691  -0.469  54.119  1.00  0.00     0.117 C 
HETATM    2  C4  UNL     1      25.860   0.482  53.658  1.00  0.00     0.086 A 
HETATM    3  N2  UNL     1      26.166   1.799  54.089  1.00  0.00    -0.242 NA
HETATM    4  C5  UNL     1      25.472   2.777  53.613  1.00  0.00     0.233 A 
HETATM    5  N3  UNL     1      24.416   2.578  52.682  1.00  0.00    -0.243 NA
HETATM    6  C6  UNL     1      24.110   1.390  52.285  1.00  0.00     0.073 A 
HETATM    7  C7  UNL     1      23.013   1.328  51.327  1.00  0.00     0.064 C 
HETATM    8  C8  UNL     1      21.733   1.029  51.026  1.00  0.00     0.072 C 
HETATM    9  C12 UNL     1      20.746   0.468  51.999  1.00  0.00     0.237 C 
HETATM   10  O3  UNL     1      21.450   0.359  53.187  1.00  0.00    -0.360 OA
HETATM   11  P1  UNL     1      20.969  -0.973  54.189  1.00  0.00     0.014 P 
HETATM   12  C13 UNL     1      22.504  -1.716  54.989  1.00  0.00     0.086 C 
HETATM   13  C14 UNL     1      23.692  -0.799  54.649  1.00  0.00     0.175 C 
HETATM   14  O4  UNL     1      23.813  -0.731  53.291  1.00  0.00    -0.373 OA
HETATM   15  C15 UNL     1      24.755   0.118  52.767  1.00  0.00     0.226 A 
HETATM   16  H17 UNL     1      20.145  -0.471  55.270  1.00  0.00     0.087 HD
ENDROOT
BRANCH   1  17
HETATM   17  N1  UNL     1      27.788  -0.105  54.983  1.00  0.00    -0.374 N 
HETATM   18  H4  UNL     1      27.815   0.203  55.987  1.00  0.00     0.164 HD
BRANCH  17  19
HETATM   19  C2  UNL     1      29.042  -0.189  54.327  1.00  0.00     0.077 C 
HETATM   20  C1  UNL     1      29.671  -1.097  53.605  1.00  0.00     0.029 C 
ENDBRANCH  17  19
ENDBRANCH   1  17
BRANCH   8  21
HETATM   21  O1  UNL     1      21.071   1.157  49.844  1.00  0.00    -0.351 OA
BRANCH  21  22
HETATM   22  C9  UNL     1      21.639   1.262  48.558  1.00  0.00     0.201 C 
BRANCH  22  23
HETATM   23  C10 UNL     1      21.640   2.711  48.130  1.00  0.00     0.193 C 
BRANCH  23  24
HETATM   24  O2  UNL     1      22.865   3.330  48.182  1.00  0.00    -0.394 OA
HETATM   25  C11 UNL     1      22.882   4.361  49.107  1.00  0.00     0.201 C 
ENDBRANCH  23  24
ENDBRANCH  22  23
ENDBRANCH  21  22
ENDBRANCH   8  21
TORSDOF 6
ENDMDL
MODEL 3
REMARK VINA RESULT:      -6.3      3.653      7.027
REMARK  6 active torsions:
REMARK  status: ('A' for Active; 'I' for Inactive)
REMARK    1  A    between atoms: C2_2  and  N1_3 
REMARK    2  A    between atoms: N1_3  and  C3_4 
REMARK    3  A    between atoms: C8_11  and  O1_12 
REMARK    4  A    between atoms: O1_12  and  C9_13 
REMARK    5  A    between atoms: C9_13  and  C10_14 
REMARK    6  A    between atoms: C10_14  and  O2_15 
ROOT
HETATM    1  C3  UNL     1      19.432   0.226  51.684  1.00  0.00     0.117 C 
HETATM    2  C4  UNL     1      20.493   0.079  52.496  1.00  0.00     0.086 A 
HETATM    3  N2  UNL     1      20.192  -0.446  53.779  1.00  0.00    -0.242 NA
HETATM    4  C5  UNL     1      21.169  -0.704  54.582  1.00  0.00     0.233 A 
HETATM    5  N3  UNL     1      22.527  -0.476  54.225  1.00  0.00    -0.243 NA
HETATM    6  C6  UNL     1      22.825   0.013  53.070  1.00  0.00     0.073 A 
HETATM    7  C7  UNL     1      24.253   0.192  52.832  1.00  0.00     0.064 C 
HETATM    8  C8  UNL     1      25.329   0.993  52.699  1.00  0.00     0.072 C 
HETATM    9  C12 UNL     1      25.292   2.483  52.817  1.00  0.00     0.237 C 
HETATM   10  O3  UNL     1      23.965   2.780  53.082  1.00  0.00    -0.360 OA
HETATM   11  P1  UNL     1      23.421   4.292  52.428  1.00  0.00     0.014 P 
HETATM   12  C13 UNL     1      21.657   4.083  51.800  1.00  0.00     0.086 C 
HETATM   13  C14 UNL     1      21.179   2.683  52.225  1.00  0.00     0.175 C 
HETATM   14  O4  UNL     1      22.021   1.755  51.685  1.00  0.00    -0.373 OA
HETATM   15  C15 UNL     1      21.833   0.438  52.022  1.00  0.00     0.226 A 
HETATM   16  H17 UNL     1      23.363   5.269  53.497  1.00  0.00     0.087 HD
ENDROOT
BRANCH   1  17
HETATM   17  N1  UNL     1      18.118  -0.144  52.149  1.00  0.00    -0.374 N 
HETATM   18  H4  UNL     1      17.786  -0.544  53.063  1.00  0.00     0.164 HD
BRANCH  17  19
HETATM   19  C2  UNL     1      17.115   0.087  51.174  1.00  0.00     0.077 C 
HETATM   20  C1  UNL     1      16.986  -0.138  49.880  1.00  0.00     0.029 C 
ENDBRANCH  17  19
ENDBRANCH   1  17
BRANCH   8  21
HETATM   21  O1  UNL     1      26.625   0.664  52.446  1.00  0.00    -0.351 OA
BRANCH  21  22
HETATM   22  C9  UNL     1      27.753   0.996  53.223  1.00  0.00     0.201 C 
BRANCH  22  23
HETATM   23  C10 UNL     1      27.697   0.242  54.531  1.00  0.00     0.193 C 
BRANCH  23  24
HETATM   24  O2  UNL     1      28.806  -0.520  54.809  1.00  0.00    -0.394 OA
HETATM   25  C11 UNL     1      29.618  -0.673  53.696  1.00  0.00     0.201 C 
ENDBRANCH  23  24
ENDBRANCH  22  23
ENDBRANCH  21  22
ENDBRANCH   8  21
TORSDOF 6
ENDMDL
MODEL 4
REMARK VINA RESULT:      -6.1      2.324      3.425
REMARK  6 active torsions:
REMARK  status: ('A' for Active; 'I' for Inactive)
REMARK    1  A    between atoms: C2_2  and  N1_3 
REMARK    2  A    between atoms: N1_3  and  C3_4 
REMARK    3  A    between atoms: C8_11  and  O1_12 
REMARK    4  A    between atoms: O1_12  and  C9_13 
REMARK    5  A    between atoms: C9_13  and  C10_14 
REMARK    6  A    between atoms: C10_14  and  O2_15 
ROOT
HETATM    1  C3  UNL     1      24.919   2.957  50.828  1.00  0.00     0.117 C 
HETATM    2  C4  UNL     1      23.687   3.069  51.355  1.00  0.00     0.086 A 
HETATM    3  N2  UNL     1      23.379   4.350  51.881  1.00  0.00    -0.242 NA
HETATM    4  C5  UNL     1      22.184   4.564  52.317  1.00  0.00     0.233 A 
HETATM    5  N3  UNL     1      21.175   3.562  52.292  1.00  0.00    -0.243 NA
HETATM    6  C6  UNL     1      21.434   2.385  51.832  1.00  0.00     0.073 A 
HETATM    7  C7  UNL     1      20.311   1.456  51.860  1.00  0.00     0.064 C 
HETATM    8  C8  UNL     1      19.692   0.378  52.382  1.00  0.00     0.072 C 
HETATM    9  C12 UNL     1      20.231  -0.440  53.512  1.00  0.00     0.237 C 
HETATM   10  O3  UNL     1      21.431   0.169  53.842  1.00  0.00    -0.360 OA
HETATM   11  P1  UNL     1      22.656  -0.918  54.414  1.00  0.00     0.014 P 
HETATM   12  C13 UNL     1      24.323  -0.366  53.734  1.00  0.00     0.086 C 
HETATM   13  C14 UNL     1      24.110   0.984  53.027  1.00  0.00     0.175 C 
HETATM   14  O4  UNL     1      23.190   0.812  52.033  1.00  0.00    -0.373 OA
HETATM   15  C15 UNL     1      22.777   1.920  51.337  1.00  0.00     0.226 A 
HETATM   16  H17 UNL     1      22.743  -0.806  55.857  1.00  0.00     0.087 HD
ENDROOT
BRANCH   1  17
HETATM   17  N1  UNL     1      25.806   4.095  50.833  1.00  0.00    -0.374 N 
HETATM   18  H4  UNL     1      26.220   4.656  51.620  1.00  0.00     0.164 HD
BRANCH  17  19
HETATM   19  C2  UNL     1      26.166   4.505  49.525  1.00  0.00     0.077 C 
HETATM   20  C1  UNL     1      27.297   4.666  48.864  1.00  0.00     0.029 C 
ENDBRANCH  17  19
ENDBRANCH   1  17
BRANCH   8  21
HETATM   21  O1  UNL     1      18.504  -0.189  52.036  1.00  0.00    -0.351 OA
BRANCH  21  22
HETATM   22  C9  UNL     1      17.664  -0.968  52.857  1.00  0.00     0.201 C 
BRANCH  22  23
HETATM   23  C10 UNL     1      16.233  -0.811  52.398  1.00  0.00     0.193 C 
BRANCH  23  24
HETATM   24  O2  UNL     1      15.479   0.067  53.139  1.00  0.00    -0.394 OA
HETATM   25  C11 UNL     1      15.216   1.235  52.442  1.00  0.00     0.201 C 
ENDBRANCH  23  24
ENDBRANCH  22  23
ENDBRANCH  21  22
ENDBRANCH   8  21
TORSDOF 6
ENDMDL
MODEL 5
REMARK VINA RESULT:      -5.9      3.406      5.164
REMARK  6 active torsions:
REMARK  status: ('A' for Active; 'I' for Inactive)
REMARK    1  A    between atoms: C2_2  and  N1_3 
REMARK    2  A    between atoms: N1_3  and  C3_4 
REMARK    3  A    between atoms: C8_11  and  O1_12 
REMARK    4  A    between atoms: O1_12  and  C9_13 
REMARK    5  A    between atoms: C9_13  and  C10_14 
REMARK    6  A    between atoms: C10_14  and  O2_15 
ROOT
HETATM    1  C3  UNL     1      26.449   1.573  53.974  1.00  0.00     0.117 C 
HETATM    2  C4  UNL     1      25.230   1.165  53.583  1.00  0.00     0.086 A 
HETATM    3  N2  UNL     1      25.043  -0.241  53.584  1.00  0.00    -0.242 NA
HETATM    4  C5  UNL     1      23.871  -0.706  53.312  1.00  0.00     0.233 A 
HETATM    5  N3  UNL     1      22.769   0.140  53.008  1.00  0.00    -0.243 NA
HETATM    6  C6  UNL     1      22.916   1.422  52.987  1.00  0.00     0.073 A 
HETATM    7  C7  UNL     1      21.707   2.171  52.667  1.00  0.00     0.064 C 
HETATM    8  C8  UNL     1      20.981   2.917  51.810  1.00  0.00     0.072 C 
HETATM    9  C12 UNL     1      21.428   3.298  50.435  1.00  0.00     0.237 C 
HETATM   10  O3  UNL     1      22.678   2.717  50.300  1.00  0.00    -0.360 OA
HETATM   11  P1  UNL     1      23.786   3.615  49.312  1.00  0.00     0.014 P 
HETATM   12  C13 UNL     1      25.506   3.505  50.073  1.00  0.00     0.086 C 
HETATM   13  C14 UNL     1      25.431   2.503  51.239  1.00  0.00     0.175 C 
HETATM   14  O4  UNL     1      24.508   2.952  52.139  1.00  0.00    -0.373 OA
HETATM   15  C15 UNL     1      24.211   2.153  53.214  1.00  0.00     0.226 A 
HETATM   16  H17 UNL     1      23.871   2.980  48.012  1.00  0.00     0.087 HD
ENDROOT
BRANCH   1  17
HETATM   17  N1  UNL     1      27.443   0.598  54.352  1.00  0.00    -0.374 N 
HETATM   18  H4  UNL     1      27.424  -0.186  55.053  1.00  0.00     0.164 HD
BRANCH  17  19
HETATM   19  C2  UNL     1      28.653   0.752  53.630  1.00  0.00     0.077 C 
HETATM   20  C1  UNL     1      29.782   0.076  53.524  1.00  0.00     0.029 C 
ENDBRANCH  17  19
ENDBRANCH   1  17
BRANCH   8  21
HETATM   21  O1  UNL     1      19.746   3.466  51.974  1.00  0.00    -0.351 OA
BRANCH  21  22
HETATM   22  C9  UNL     1      18.505   2.870  51.673  1.00  0.00     0.201 C 
BRANCH  22  23
HETATM   23  C10 UNL     1      17.483   3.951  51.411  1.00  0.00     0.193 C 
BRANCH  23  24
HETATM   24  O2  UNL     1      16.689   4.271  52.485  1.00  0.00    -0.394 OA
HETATM   25  C11 UNL     1      15.386   3.835  52.311  1.00  0.00     0.201 C 
ENDBRANCH  23  24
ENDBRANCH  22  23
ENDBRANCH  21  22
ENDBRANCH   8  21
TORSDOF 6
ENDMDL
MODEL 6
REMARK VINA RESULT:      -5.8      1.897      2.374
REMARK  6 active torsions:
REMARK  status: ('A' for Active; 'I' for Inactive)
REMARK    1  A    between atoms: C2_2  and  N1_3 
REMARK    2  A    between atoms: N1_3  and  C3_4 
REMARK    3  A    between atoms: C8_11  and  O1_12 
REMARK    4  A    between atoms: O1_12  and  C9_13 
REMARK    5  A    between atoms: C9_13  and  C10_14 
REMARK    6  A    between atoms: C10_14  and  O2_15 
ROOT
HETATM    1  C3  UNL     1      27.014   4.749  49.100  1.00  0.00     0.117 C 
HETATM    2  C4  UNL     1      25.791   4.663  49.654  1.00  0.00     0.086 A 
HETATM    3  N2  UNL     1      25.263   5.892  50.125  1.00  0.00    -0.242 NA
HETATM    4  C5  UNL     1      24.057   5.907  50.583  1.00  0.00     0.233 A 
HETATM    5  N3  UNL     1      23.248   4.738  50.635  1.00  0.00    -0.243 NA
HETATM    6  C6  UNL     1      23.711   3.606  50.226  1.00  0.00     0.073 A 
HETATM    7  C7  UNL     1      22.778   2.490  50.331  1.00  0.00     0.064 C 
HETATM    8  C8  UNL     1      22.377   1.348  50.923  1.00  0.00     0.072 C 
HETATM    9  C12 UNL     1      23.078   0.703  52.076  1.00  0.00     0.237 C 
HETATM   10  O3  UNL     1      24.151   1.537  52.343  1.00  0.00    -0.360 OA
HETATM   11  P1  UNL     1      25.565   0.724  52.933  1.00  0.00     0.014 P 
HETATM   12  C13 UNL     1      27.090   1.533  52.181  1.00  0.00     0.086 C 
HETATM   13  C14 UNL     1      26.619   2.782  51.415  1.00  0.00     0.175 C 
HETATM   14  O4  UNL     1      25.729   2.393  50.456  1.00  0.00    -0.373 OA
HETATM   15  C15 UNL     1      25.107   3.368  49.718  1.00  0.00     0.226 A 
HETATM   16  H17 UNL     1      25.656   0.927  54.366  1.00  0.00     0.087 HD
ENDROOT
BRANCH   1  17
HETATM   17  N1  UNL     1      27.676   6.028  49.024  1.00  0.00    -0.374 N 
HETATM   18  H4  UNL     1      27.517   6.931  49.539  1.00  0.00     0.164 HD
BRANCH  17  19
HETATM   19  C2  UNL     1      28.728   6.036  48.074  1.00  0.00     0.077 C 
HETATM   20  C1  UNL     1      29.928   5.492  47.989  1.00  0.00     0.029 C 
ENDBRANCH  17  19
ENDBRANCH   1  17
BRANCH   8  21
HETATM   21  O1  UNL     1      21.307   0.555  50.638  1.00  0.00    -0.351 OA
BRANCH  21  22
HETATM   22  C9  UNL     1      19.954   0.945  50.575  1.00  0.00     0.201 C 
BRANCH  22  23
HETATM   23  C10 UNL     1      19.358   0.905  51.962  1.00  0.00     0.193 C 
BRANCH  23  24
HETATM   24  O2  UNL     1      19.511  -0.288  52.625  1.00  0.00    -0.394 OA
HETATM   25  C11 UNL     1      18.291  -0.879  52.911  1.00  0.00     0.201 C 
ENDBRANCH  23  24
ENDBRANCH  22  23
ENDBRANCH  21  22
ENDBRANCH   8  21
TORSDOF 6
ENDMDL
MODEL 7
REMARK VINA RESULT:      -5.7      9.787     11.863
REMARK  6 active torsions:
REMARK  status: ('A' for Active; 'I' for Inactive)
REMARK    1  A    between atoms: C2_2  and  N1_3 
REMARK    2  A    between atoms: N1_3  and  C3_4 
REMARK    3  A    between atoms: C8_11  and  O1_12 
REMARK    4  A    between atoms: O1_12  and  C9_13 
REMARK    5  A    between atoms: C9_13  and  C10_14 
REMARK    6  A    between atoms: C10_14  and  O2_15 
ROOT
HETATM    1  C3  UNL     1      34.093   5.146  48.453  1.00  0.00     0.117 C 
HETATM    2  C4  UNL     1      32.908   5.782  48.450  1.00  0.00     0.086 A 
HETATM    3  N2  UNL     1      31.782   4.943  48.247  1.00  0.00    -0.242 NA
HETATM    4  C5  UNL     1      30.605   5.465  48.326  1.00  0.00     0.233 A 
HETATM    5  N3  UNL     1      30.402   6.846  48.602  1.00  0.00    -0.243 NA
HETATM    6  C6  UNL     1      31.410   7.631  48.777  1.00  0.00     0.073 A 
HETATM    7  C7  UNL     1      31.062   9.020  49.057  1.00  0.00     0.064 C 
HETATM    8  C8  UNL     1      30.981  10.310  48.674  1.00  0.00     0.072 C 
HETATM    9  C12 UNL     1      31.395  10.819  47.330  1.00  0.00     0.237 C 
HETATM   10  O3  UNL     1      31.836   9.694  46.652  1.00  0.00    -0.360 OA
HETATM   11  P1  UNL     1      33.123   9.992  45.526  1.00  0.00     0.014 P 
HETATM   12  C13 UNL     1      34.332   8.550  45.590  1.00  0.00     0.086 C 
HETATM   13  C14 UNL     1      33.712   7.467  46.491  1.00  0.00     0.175 C 
HETATM   14  O4  UNL     1      33.498   8.003  47.728  1.00  0.00    -0.373 OA
HETATM   15  C15 UNL     1      32.856   7.231  48.664  1.00  0.00     0.226 A 
HETATM   16  H17 UNL     1      32.574  10.009  44.184  1.00  0.00     0.087 HD
ENDROOT
BRANCH   1  17
HETATM   17  N1  UNL     1      34.138   3.717  48.259  1.00  0.00    -0.374 N 
HETATM   18  H4  UNL     1      33.755   2.921  48.829  1.00  0.00     0.164 HD
BRANCH  17  19
HETATM   19  C2  UNL     1      34.831   3.355  47.077  1.00  0.00     0.077 C 
HETATM   20  C1  UNL     1      35.025   3.901  45.891  1.00  0.00     0.029 C 
ENDBRANCH  17  19
ENDBRANCH   1  17
BRANCH   8  21
HETATM   21  O1  UNL     1      30.532  11.391  49.368  1.00  0.00    -0.351 OA
BRANCH  21  22
HETATM   22  C9  UNL     1      30.216  12.662  48.848  1.00  0.00     0.201 C 
BRANCH  22  23
HETATM   23  C10 UNL     1      28.730  12.898  48.974  1.00  0.00     0.193 C 
BRANCH  23  24
HETATM   24  O2  UNL     1      27.991  11.783  49.289  1.00  0.00    -0.394 OA
HETATM   25  C11 UNL     1      27.128  11.431  48.263  1.00  0.00     0.201 C 
ENDBRANCH  23  24
ENDBRANCH  22  23
ENDBRANCH  21  22
ENDBRANCH   8  21
TORSDOF 6
ENDMDL
MODEL 8
REMARK VINA RESULT:      -5.7      2.967      6.237
REMARK  6 active torsions:
REMARK  status: ('A' for Active; 'I' for Inactive)
REMARK    1  A    between atoms: C2_2  and  N1_3 
REMARK    2  A    between atoms: N1_3  and  C3_4 
REMARK    3  A    between atoms: C8_11  and  O1_12 
REMARK    4  A    between atoms: O1_12  and  C9_13 
REMARK    5  A    between atoms: C9_13  and  C10_14 
REMARK    6  A    between atoms: C10_14  and  O2_15 
ROOT
HETATM    1  C3  UNL     1      20.241   3.830  51.581  1.00  0.00     0.117 C 
HETATM    2  C4  UNL     1      21.384   3.185  51.290  1.00  0.00     0.086 A 
HETATM    3  N2  UNL     1      21.678   3.088  49.905  1.00  0.00    -0.242 NA
HETATM    4  C5  UNL     1      22.804   2.567  49.551  1.00  0.00     0.233 A 
HETATM    5  N3  UNL     1      23.750   2.084  50.497  1.00  0.00    -0.243 NA
HETATM    6  C6  UNL     1      23.500   2.148  51.761  1.00  0.00     0.073 A 
HETATM    7  C7  UNL     1      24.555   1.623  52.620  1.00  0.00     0.064 C 
HETATM    8  C8  UNL     1      25.030   0.671  53.447  1.00  0.00     0.072 C 
HETATM    9  C12 UNL     1      24.283  -0.569  53.823  1.00  0.00     0.237 C 
HETATM   10  O3  UNL     1      23.082  -0.474  53.140  1.00  0.00    -0.360 OA
HETATM   11  P1  UNL     1      21.728  -1.180  53.964  1.00  0.00     0.014 P 
HETATM   12  C13 UNL     1      20.214  -0.095  53.686  1.00  0.00     0.086 C 
HETATM   13  C14 UNL     1      20.604   0.988  52.665  1.00  0.00     0.175 C 
HETATM   14  O4  UNL     1      21.652   1.702  53.169  1.00  0.00    -0.373 OA
HETATM   15  C15 UNL     1      22.224   2.661  52.371  1.00  0.00     0.226 A 
HETATM   16  H17 UNL     1      21.430  -2.463  53.357  1.00  0.00     0.087 HD
ENDROOT
BRANCH   1  17
HETATM   17  N1  UNL     1      19.426   4.358  50.514  1.00  0.00    -0.374 N 
HETATM   18  H4  UNL     1      19.637   5.046  49.748  1.00  0.00     0.164 HD
BRANCH  17  19
HETATM   19  C2  UNL     1      18.109   3.834  50.530  1.00  0.00     0.077 C 
HETATM   20  C1  UNL     1      17.551   2.696  50.899  1.00  0.00     0.029 C 
ENDBRANCH  17  19
ENDBRANCH   1  17
BRANCH   8  21
HETATM   21  O1  UNL     1      26.224   0.607  54.097  1.00  0.00    -0.351 OA
BRANCH  21  22
HETATM   22  C9  UNL     1      27.373  -0.102  53.693  1.00  0.00     0.201 C 
BRANCH  22  23
HETATM   23  C10 UNL     1      28.489   0.876  53.411  1.00  0.00     0.193 C 
BRANCH  23  24
HETATM   24  O2  UNL     1      29.757   0.356  53.516  1.00  0.00    -0.394 OA
HETATM   25  C11 UNL     1      29.737  -1.022  53.659  1.00  0.00     0.201 C 
ENDBRANCH  23  24
ENDBRANCH  22  23
ENDBRANCH  21  22
ENDBRANCH   8  21
TORSDOF 6
ENDMDL
MODEL 9
REMARK VINA RESULT:      -5.7     21.540     24.377
REMARK  6 active torsions:
REMARK  status: ('A' for Active; 'I' for Inactive)
REMARK    1  A    between atoms: C2_2  and  N1_3 
REMARK    2  A    between atoms: N1_3  and  C3_4 
REMARK    3  A    between atoms: C8_11  and  O1_12 
REMARK    4  A    between atoms: O1_12  and  C9_13 
REMARK    5  A    between atoms: C9_13  and  C10_14 
REMARK    6  A    between atoms: C10_14  and  O2_15 
ROOT
HETATM    1  C3  UNL     1      39.076  -1.761  66.857  1.00  0.00     0.117 C 
HETATM    2  C4  UNL     1      40.297  -1.599  67.396  1.00  0.00     0.086 A 
HETATM    3  N2  UNL     1      40.877  -2.782  67.923  1.00  0.00    -0.242 NA
HETATM    4  C5  UNL     1      42.085  -2.726  68.372  1.00  0.00     0.233 A 
HETATM    5  N3  UNL     1      42.847  -1.525  68.359  1.00  0.00    -0.243 NA
HETATM    6  C6  UNL     1      42.338  -0.434  67.897  1.00  0.00     0.073 A 
HETATM    7  C7  UNL     1      43.226   0.721  67.939  1.00  0.00     0.064 C 
HETATM    8  C8  UNL     1      43.586   1.907  68.469  1.00  0.00     0.072 C 
HETATM    9  C12 UNL     1      42.867   2.581  69.594  1.00  0.00     0.237 C 
HETATM   10  O3  UNL     1      41.830   1.720  69.911  1.00  0.00    -0.360 OA
HETATM   11  P1  UNL     1      40.388   2.507  70.471  1.00  0.00     0.014 P 
HETATM   12  C13 UNL     1      38.891   1.601  69.773  1.00  0.00     0.086 C 
HETATM   13  C14 UNL     1      39.406   0.334  69.067  1.00  0.00     0.175 C 
HETATM   14  O4  UNL     1      40.274   0.709  68.083  1.00  0.00    -0.373 OA
HETATM   15  C15 UNL     1      40.930  -0.277  67.390  1.00  0.00     0.226 A 
HETATM   16  H17 UNL     1      40.314   2.373  71.913  1.00  0.00     0.087 HD
ENDROOT
BRANCH   1  17
HETATM   17  N1  UNL     1      38.464  -3.067  66.851  1.00  0.00    -0.374 N 
HETATM   18  H4  UNL     1      38.683  -3.940  66.308  1.00  0.00     0.164 HD
BRANCH  17  19
HETATM   19  C2  UNL     1      37.372  -3.156  67.750  1.00  0.00     0.077 C 
HETATM   20  C1  UNL     1      37.127  -3.797  68.878  1.00  0.00     0.029 C 
ENDBRANCH  17  19
ENDBRANCH   1  17
BRANCH   8  21
HETATM   21  O1  UNL     1      44.622   2.725  68.136  1.00  0.00    -0.351 OA
BRANCH  21  22
HETATM   22  C9  UNL     1      44.760   3.483  66.956  1.00  0.00     0.201 C 
BRANCH  22  23
HETATM   23  C10 UNL     1      45.024   4.926  67.317  1.00  0.00     0.193 C 
BRANCH  23  24
HETATM   24  O2  UNL     1      44.378   5.848  66.530  1.00  0.00    -0.394 OA
HETATM   25  C11 UNL     1      44.417   7.116  67.085  1.00  0.00     0.201 C 
ENDBRANCH  23  24
ENDBRANCH  22  23
ENDBRANCH  21  22
ENDBRANCH   8  21
TORSDOF 6
ENDMDL
