MODEL 1
REMARK VINA RESULT:      -8.0      0.000      0.000
REMARK  2 active torsions:
REMARK  status: ('A' for Active; 'I' for Inactive)
REMARK    1  A    between atoms: O1_2  and  C2_3 
REMARK    2  A    between atoms: C7_8  and  C8_9 
ROOT
HETATM    1  C8  UNL     1      25.659  -0.262  54.114  1.00  0.00     0.102 C 
HETATM    2  N1  UNL     1      25.348  -1.008  55.147  1.00  0.00    -0.149 NA
HETATM    3  N2  UNL     1      24.172  -1.446  55.765  1.00  0.00    -0.155 NA
HETATM    4  C9  UNL     1      22.906  -1.287  55.584  1.00  0.00     0.186 C 
HETATM    5  S1  UNL     1      21.826  -0.432  54.465  1.00  0.00    -0.116 SA
HETATM    6  C10 UNL     1      22.432  -0.559  52.768  1.00  0.00     0.119 C 
HETATM    7  C11 UNL     1      23.595   0.343  52.599  1.00  0.00    -0.036 A 
HETATM    8  C12 UNL     1      23.213   1.277  51.643  1.00  0.00     0.009 A 
HETATM    9  C13 UNL     1      24.036   2.294  51.212  1.00  0.00     0.001 A 
HETATM   10  C14 UNL     1      25.303   2.348  51.792  1.00  0.00     0.001 A 
HETATM   11  C15 UNL     1      25.729   1.451  52.740  1.00  0.00     0.014 A 
HETATM   12  C16 UNL     1      24.859   0.456  53.130  1.00  0.00     0.002 A 
ENDROOT
BRANCH   1  13
HETATM   13  C7  UNL     1      27.111  -0.163  53.962  1.00  0.00     0.029 A 
HETATM   14  C2  UNL     1      27.923  -1.156  53.401  1.00  0.00     0.080 A 
HETATM   15  C3  UNL     1      29.285  -0.973  53.289  1.00  0.00     0.037 A 
HETATM   16  C4  UNL     1      29.876   0.186  53.725  1.00  0.00     0.003 A 
HETATM   17  C5  UNL     1      29.144   1.210  54.288  1.00  0.00     0.001 A 
HETATM   18  C6  UNL     1      27.784   0.996  54.385  1.00  0.00     0.017 A 
BRANCH  14  19
HETATM   19  O1  UNL     1      27.283  -2.311  52.975  1.00  0.00    -0.355 OA
HETATM   20  C1  UNL     1      26.580  -2.370  51.736  1.00  0.00     0.210 C 
ENDBRANCH  14  19
ENDBRANCH   1  13
TORSDOF 2
ENDMDL
MODEL 2
REMARK VINA RESULT:      -7.8      2.789      4.134
REMARK  2 active torsions:
REMARK  status: ('A' for Active; 'I' for Inactive)
REMARK    1  A    between atoms: O1_2  and  C2_3 
REMARK    2  A    between atoms: C7_8  and  C8_9 
ROOT
HETATM    1  C8  UNL     1      26.074   1.244  51.918  1.00  0.00     0.102 C 
HETATM    2  N1  UNL     1      26.729   1.972  51.044  1.00  0.00    -0.149 NA
HETATM    3  N2  UNL     1      26.443   3.057  50.209  1.00  0.00    -0.155 NA
HETATM    4  C9  UNL     1      25.411   3.783  49.940  1.00  0.00     0.186 C 
HETATM    5  S1  UNL     1      23.710   3.898  50.430  1.00  0.00    -0.116 SA
HETATM    6  C10 UNL     1      23.538   3.652  52.212  1.00  0.00     0.119 C 
HETATM    7  C11 UNL     1      23.703   2.213  52.521  1.00  0.00    -0.036 A 
HETATM    8  C12 UNL     1      22.491   1.802  53.061  1.00  0.00     0.009 A 
HETATM    9  C13 UNL     1      22.251   0.511  53.478  1.00  0.00     0.001 A 
HETATM   10  C14 UNL     1      23.305  -0.390  53.330  1.00  0.00     0.001 A 
HETATM   11  C15 UNL     1      24.521  -0.035  52.802  1.00  0.00     0.014 A 
HETATM   12  C16 UNL     1      24.700   1.272  52.403  1.00  0.00     0.002 A 
ENDROOT
BRANCH   1  13
HETATM   13  C7  UNL     1      26.940   0.213  52.491  1.00  0.00     0.029 A 
HETATM   14  C2  UNL     1      27.853   0.427  53.530  1.00  0.00     0.080 A 
HETATM   15  C3  UNL     1      28.625  -0.607  54.015  1.00  0.00     0.037 A 
HETATM   16  C4  UNL     1      28.516  -1.870  53.490  1.00  0.00     0.003 A 
HETATM   17  C5  UNL     1      27.640  -2.160  52.465  1.00  0.00     0.001 A 
HETATM   18  C6  UNL     1      26.882  -1.103  52.003  1.00  0.00     0.017 A 
BRANCH  14  19
HETATM   19  O1  UNL     1      27.930   1.720  54.029  1.00  0.00    -0.355 OA
HETATM   20  C1  UNL     1      29.050   2.563  53.768  1.00  0.00     0.210 C 
ENDBRANCH  14  19
ENDBRANCH   1  13
TORSDOF 2
ENDMDL
MODEL 3
REMARK VINA RESULT:      -7.7      3.111      4.690
REMARK  2 active torsions:
REMARK  status: ('A' for Active; 'I' for Inactive)
REMARK    1  A    between atoms: O1_2  and  C2_3 
REMARK    2  A    between atoms: C7_8  and  C8_9 
ROOT
HETATM    1  C8  UNL     1      23.372   1.194  51.855  1.00  0.00     0.102 C 
HETATM    2  N1  UNL     1      23.263   1.696  50.648  1.00  0.00    -0.149 NA
HETATM    3  N2  UNL     1      22.249   1.836  49.695  1.00  0.00    -0.155 NA
HETATM    4  C9  UNL     1      21.003   1.518  49.603  1.00  0.00     0.186 C 
HETATM    5  S1  UNL     1      19.766   0.713  50.587  1.00  0.00    -0.116 SA
HETATM    6  C10 UNL     1      19.893   1.219  52.317  1.00  0.00     0.119 C 
HETATM    7  C11 UNL     1      21.060   0.548  52.934  1.00  0.00    -0.036 A 
HETATM    8  C12 UNL     1      20.544  -0.255  53.944  1.00  0.00     0.009 A 
HETATM    9  C13 UNL     1      21.329  -1.045  54.754  1.00  0.00     0.001 A 
HETATM   10  C14 UNL     1      22.702  -1.004  54.512  1.00  0.00     0.001 A 
HETATM   11  C15 UNL     1      23.262  -0.228  53.528  1.00  0.00     0.014 A 
HETATM   12  C16 UNL     1      22.424   0.541  52.749  1.00  0.00     0.002 A 
ENDROOT
BRANCH   1  13
HETATM   13  C7  UNL     1      24.737   1.345  52.361  1.00  0.00     0.029 A 
HETATM   14  C2  UNL     1      25.162   2.374  53.209  1.00  0.00     0.080 A 
HETATM   15  C3  UNL     1      26.469   2.435  53.645  1.00  0.00     0.037 A 
HETATM   16  C4  UNL     1      27.382   1.487  53.257  1.00  0.00     0.003 A 
HETATM   17  C5  UNL     1      27.040   0.442  52.423  1.00  0.00     0.001 A 
HETATM   18  C6  UNL     1      25.725   0.411  52.006  1.00  0.00     0.017 A 
BRANCH  14  19
HETATM   19  O1  UNL     1      24.205   3.310  53.575  1.00  0.00    -0.355 OA
HETATM   20  C1  UNL     1      23.928   4.457  52.773  1.00  0.00     0.210 C 
ENDBRANCH  14  19
ENDBRANCH   1  13
TORSDOF 2
ENDMDL
MODEL 4
REMARK VINA RESULT:      -7.6      3.224      6.386
REMARK  2 active torsions:
REMARK  status: ('A' for Active; 'I' for Inactive)
REMARK    1  A    between atoms: O1_2  and  C2_3 
REMARK    2  A    between atoms: C7_8  and  C8_9 
ROOT
HETATM    1  C8  UNL     1      23.558   1.500  51.928  1.00  0.00     0.102 C 
HETATM    2  N1  UNL     1      24.662   2.095  51.545  1.00  0.00    -0.149 NA
HETATM    3  N2  UNL     1      25.999   2.117  51.954  1.00  0.00    -0.155 NA
HETATM    4  C9  UNL     1      26.699   1.569  52.888  1.00  0.00     0.186 C 
HETATM    5  S1  UNL     1      26.454   0.453  54.245  1.00  0.00    -0.116 SA
HETATM    6  C10 UNL     1      25.342  -0.892  53.775  1.00  0.00     0.119 C 
HETATM    7  C11 UNL     1      23.954  -0.380  53.727  1.00  0.00    -0.036 A 
HETATM    8  C12 UNL     1      23.256  -1.089  54.698  1.00  0.00     0.009 A 
HETATM    9  C13 UNL     1      21.917  -0.892  54.957  1.00  0.00     0.001 A 
HETATM   10  C14 UNL     1      21.275   0.074  54.185  1.00  0.00     0.001 A 
HETATM   11  C15 UNL     1      21.918   0.801  53.214  1.00  0.00     0.014 A 
HETATM   12  C16 UNL     1      23.258   0.560  53.001  1.00  0.00     0.002 A 
ENDROOT
BRANCH   1  13
HETATM   13  C7  UNL     1      22.432   1.889  51.078  1.00  0.00     0.029 A 
HETATM   14  C2  UNL     1      21.802   3.139  51.115  1.00  0.00     0.080 A 
HETATM   15  C3  UNL     1      20.751   3.423  50.269  1.00  0.00     0.037 A 
HETATM   16  C4  UNL     1      20.299   2.488  49.373  1.00  0.00     0.003 A 
HETATM   17  C5  UNL     1      20.868   1.235  49.276  1.00  0.00     0.001 A 
HETATM   18  C6  UNL     1      21.918   0.983  50.136  1.00  0.00     0.017 A 
BRANCH  14  19
HETATM   19  O1  UNL     1      22.292   4.052  52.038  1.00  0.00    -0.355 OA
HETATM   20  C1  UNL     1      22.878   5.288  51.636  1.00  0.00     0.210 C 
ENDBRANCH  14  19
ENDBRANCH   1  13
TORSDOF 2
ENDMDL
MODEL 5
REMARK VINA RESULT:      -7.5      2.220      3.400
REMARK  2 active torsions:
REMARK  status: ('A' for Active; 'I' for Inactive)
REMARK    1  A    between atoms: O1_2  and  C2_3 
REMARK    2  A    between atoms: C7_8  and  C8_9 
ROOT
HETATM    1  C8  UNL     1      24.492   0.988  52.450  1.00  0.00     0.102 C 
HETATM    2  N1  UNL     1      24.335   1.538  51.269  1.00  0.00    -0.149 NA
HETATM    3  N2  UNL     1      23.279   1.736  50.374  1.00  0.00    -0.155 NA
HETATM    4  C9  UNL     1      22.023   1.449  50.332  1.00  0.00     0.186 C 
HETATM    5  S1  UNL     1      20.817   0.633  51.346  1.00  0.00    -0.116 SA
HETATM    6  C10 UNL     1      21.042   1.070  53.085  1.00  0.00     0.119 C 
HETATM    7  C11 UNL     1      22.221   0.352  53.617  1.00  0.00    -0.036 A 
HETATM    8  C12 UNL     1      21.736  -0.479  54.621  1.00  0.00     0.009 A 
HETATM    9  C13 UNL     1      22.542  -1.316  55.361  1.00  0.00     0.001 A 
HETATM   10  C14 UNL     1      23.901  -1.295  55.053  1.00  0.00     0.001 A 
HETATM   11  C15 UNL     1      24.431  -0.494  54.072  1.00  0.00     0.014 A 
HETATM   12  C16 UNL     1      23.574   0.322  53.365  1.00  0.00     0.002 A 
ENDROOT
BRANCH   1  13
HETATM   13  C7  UNL     1      25.883   1.090  52.892  1.00  0.00     0.029 A 
HETATM   14  C2  UNL     1      26.873   0.135  52.635  1.00  0.00     0.080 A 
HETATM   15  C3  UNL     1      28.163   0.318  53.085  1.00  0.00     0.037 A 
HETATM   16  C4  UNL     1      28.506   1.441  53.794  1.00  0.00     0.003 A 
HETATM   17  C5  UNL     1      27.588   2.427  54.088  1.00  0.00     0.001 A 
HETATM   18  C6  UNL     1      26.306   2.214  53.623  1.00  0.00     0.017 A 
BRANCH  14  19
HETATM   19  O1  UNL     1      26.480  -0.985  51.916  1.00  0.00    -0.355 OA
HETATM   20  C1  UNL     1      26.946  -2.292  52.242  1.00  0.00     0.210 C 
ENDBRANCH  14  19
ENDBRANCH   1  13
TORSDOF 2
ENDMDL
MODEL 6
REMARK VINA RESULT:      -7.5      4.036      6.158
REMARK  2 active torsions:
REMARK  status: ('A' for Active; 'I' for Inactive)
REMARK    1  A    between atoms: O1_2  and  C2_3 
REMARK    2  A    between atoms: C7_8  and  C8_9 
ROOT
HETATM    1  C8  UNL     1      23.531   1.490  51.828  1.00  0.00     0.102 C 
HETATM    2  N1  UNL     1      24.655   1.645  52.487  1.00  0.00    -0.149 NA
HETATM    3  N2  UNL     1      25.902   2.229  52.243  1.00  0.00    -0.155 NA
HETATM    4  C9  UNL     1      26.470   2.844  51.263  1.00  0.00     0.186 C 
HETATM    5  S1  UNL     1      26.071   3.354  49.611  1.00  0.00    -0.116 SA
HETATM    6  C10 UNL     1      24.385   3.999  49.529  1.00  0.00     0.119 C 
HETATM    7  C11 UNL     1      23.430   2.870  49.590  1.00  0.00    -0.036 A 
HETATM    8  C12 UNL     1      22.742   2.892  48.383  1.00  0.00     0.009 A 
HETATM    9  C13 UNL     1      21.756   1.984  48.061  1.00  0.00     0.001 A 
HETATM   10  C14 UNL     1      21.472   1.016  49.023  1.00  0.00     0.001 A 
HETATM   11  C15 UNL     1      22.122   0.950  50.230  1.00  0.00     0.014 A 
HETATM   12  C16 UNL     1      23.099   1.886  50.494  1.00  0.00     0.002 A 
ENDROOT
BRANCH   1  13
HETATM   13  C7  UNL     1      22.548   0.769  52.637  1.00  0.00     0.029 A 
HETATM   14  C2  UNL     1      21.355   1.319  53.120  1.00  0.00     0.080 A 
HETATM   15  C3  UNL     1      20.481   0.562  53.870  1.00  0.00     0.037 A 
HETATM   16  C4  UNL     1      20.760  -0.749  54.161  1.00  0.00     0.003 A 
HETATM   17  C5  UNL     1      21.915  -1.364  53.722  1.00  0.00     0.001 A 
HETATM   18  C6  UNL     1      22.768  -0.579  52.973  1.00  0.00     0.017 A 
BRANCH  14  19
HETATM   19  O1  UNL     1      21.115   2.649  52.802  1.00  0.00    -0.355 OA
HETATM   20  C1  UNL     1      19.920   3.062  52.141  1.00  0.00     0.210 C 
ENDBRANCH  14  19
ENDBRANCH   1  13
TORSDOF 2
ENDMDL
MODEL 7
REMARK VINA RESULT:      -7.3      5.519      7.765
REMARK  2 active torsions:
REMARK  status: ('A' for Active; 'I' for Inactive)
REMARK    1  A    between atoms: O1_2  and  C2_3 
REMARK    2  A    between atoms: C7_8  and  C8_9 
ROOT
HETATM    1  C8  UNL     1      23.310   4.800  49.750  1.00  0.00     0.102 C 
HETATM    2  N1  UNL     1      22.402   5.654  50.158  1.00  0.00    -0.149 NA
HETATM    3  N2  UNL     1      22.345   7.026  50.423  1.00  0.00    -0.155 NA
HETATM    4  C9  UNL     1      23.166   8.019  50.389  1.00  0.00     0.186 C 
HETATM    5  S1  UNL     1      24.871   8.314  49.998  1.00  0.00    -0.116 SA
HETATM    6  C10 UNL     1      25.365   7.373  48.536  1.00  0.00     0.119 C 
HETATM    7  C11 UNL     1      25.522   5.948  48.907  1.00  0.00    -0.036 A 
HETATM    8  C12 UNL     1      26.860   5.646  48.682  1.00  0.00     0.009 A 
HETATM    9  C13 UNL     1      27.400   4.399  48.913  1.00  0.00     0.001 A 
HETATM   10  C14 UNL     1      26.523   3.428  49.395  1.00  0.00     0.001 A 
HETATM   11  C15 UNL     1      25.194   3.675  49.634  1.00  0.00     0.014 A 
HETATM   12  C16 UNL     1      24.713   4.942  49.384  1.00  0.00     0.002 A 
ENDROOT
BRANCH   1  13
HETATM   13  C7  UNL     1      22.753   3.450  49.661  1.00  0.00     0.029 A 
HETATM   14  C2  UNL     1      22.488   2.624  50.759  1.00  0.00     0.080 A 
HETATM   15  C3  UNL     1      21.954   1.365  50.582  1.00  0.00     0.037 A 
HETATM   16  C4  UNL     1      21.670   0.894  49.325  1.00  0.00     0.003 A 
HETATM   17  C5  UNL     1      21.903   1.647  48.194  1.00  0.00     0.001 A 
HETATM   18  C6  UNL     1      22.437   2.902  48.405  1.00  0.00     0.017 A 
BRANCH  14  19
HETATM   19  O1  UNL     1      22.792   3.142  52.010  1.00  0.00    -0.355 OA
HETATM   20  C1  UNL     1      23.795   2.563  52.842  1.00  0.00     0.210 C 
ENDBRANCH  14  19
ENDBRANCH   1  13
TORSDOF 2
ENDMDL
MODEL 8
REMARK VINA RESULT:      -7.3      3.000      5.240
REMARK  2 active torsions:
REMARK  status: ('A' for Active; 'I' for Inactive)
REMARK    1  A    between atoms: O1_2  and  C2_3 
REMARK    2  A    between atoms: C7_8  and  C8_9 
ROOT
HETATM    1  C8  UNL     1      22.482   1.483  52.379  1.00  0.00     0.102 C 
HETATM    2  N1  UNL     1      21.176   1.364  52.414  1.00  0.00    -0.149 NA
HETATM    3  N2  UNL     1      20.254   0.453  52.938  1.00  0.00    -0.155 NA
HETATM    4  C9  UNL     1      20.305  -0.656  53.593  1.00  0.00     0.186 C 
HETATM    5  S1  UNL     1      21.537  -1.747  54.255  1.00  0.00    -0.116 SA
HETATM    6  C10 UNL     1      22.887  -0.809  55.005  1.00  0.00     0.119 C 
HETATM    7  C11 UNL     1      23.731  -0.233  53.934  1.00  0.00    -0.036 A 
HETATM    8  C12 UNL     1      24.987  -0.808  54.093  1.00  0.00     0.009 A 
HETATM    9  C13 UNL     1      26.057  -0.519  53.275  1.00  0.00     0.001 A 
HETATM   10  C14 UNL     1      25.821   0.400  52.253  1.00  0.00     0.001 A 
HETATM   11  C15 UNL     1      24.601   0.996  52.053  1.00  0.00     0.014 A 
HETATM   12  C16 UNL     1      23.568   0.666  52.905  1.00  0.00     0.002 A 
ENDROOT
BRANCH   1  13
HETATM   13  C7  UNL     1      22.876   2.693  51.657  1.00  0.00     0.029 A 
HETATM   14  C2  UNL     1      22.893   2.820  50.263  1.00  0.00     0.080 A 
HETATM   15  C3  UNL     1      23.272   4.004  49.667  1.00  0.00     0.037 A 
HETATM   16  C4  UNL     1      23.641   5.085  50.426  1.00  0.00     0.003 A 
HETATM   17  C5  UNL     1      23.651   5.039  51.805  1.00  0.00     0.001 A 
HETATM   18  C6  UNL     1      23.266   3.840  52.370  1.00  0.00     0.017 A 
BRANCH  14  19
HETATM   19  O1  UNL     1      22.512   1.701  49.536  1.00  0.00    -0.355 OA
HETATM   20  C1  UNL     1      21.370   1.710  48.682  1.00  0.00     0.210 C 
ENDBRANCH  14  19
ENDBRANCH   1  13
TORSDOF 2
ENDMDL
MODEL 9
REMARK VINA RESULT:      -7.3      2.639      3.611
REMARK  2 active torsions:
REMARK  status: ('A' for Active; 'I' for Inactive)
REMARK    1  A    between atoms: O1_2  and  C2_3 
REMARK    2  A    between atoms: C7_8  and  C8_9 
ROOT
HETATM    1  C8  UNL     1      25.994   1.773  51.915  1.00  0.00     0.102 C 
HETATM    2  N1  UNL     1      26.425   2.425  50.862  1.00  0.00    -0.149 NA
HETATM    3  N2  UNL     1      25.850   3.098  49.779  1.00  0.00    -0.155 NA
HETATM    4  C9  UNL     1      24.656   3.346  49.361  1.00  0.00     0.186 C 
HETATM    5  S1  UNL     1      22.984   3.015  49.855  1.00  0.00    -0.116 SA
HETATM    6  C10 UNL     1      22.797   3.195  51.643  1.00  0.00     0.119 C 
HETATM    7  C11 UNL     1      23.405   2.024  52.315  1.00  0.00    -0.036 A 
HETATM    8  C12 UNL     1      22.364   1.389  52.982  1.00  0.00     0.009 A 
HETATM    9  C13 UNL     1      22.536   0.245  53.731  1.00  0.00     0.001 A 
HETATM   10  C14 UNL     1      23.833  -0.261  53.794  1.00  0.00     0.001 A 
HETATM   11  C15 UNL     1      24.895   0.327  53.153  1.00  0.00     0.014 A 
HETATM   12  C16 UNL     1      24.660   1.469  52.419  1.00  0.00     0.002 A 
ENDROOT
BRANCH   1  13
HETATM   13  C7  UNL     1      27.114   1.272  52.713  1.00  0.00     0.029 A 
HETATM   14  C2  UNL     1      27.584  -0.046  52.686  1.00  0.00     0.080 A 
HETATM   15  C3  UNL     1      28.654  -0.429  53.467  1.00  0.00     0.037 A 
HETATM   16  C4  UNL     1      29.282   0.473  54.288  1.00  0.00     0.003 A 
HETATM   17  C5  UNL     1      28.878   1.789  54.370  1.00  0.00     0.001 A 
HETATM   18  C6  UNL     1      27.805   2.140  53.575  1.00  0.00     0.017 A 
BRANCH  14  19
HETATM   19  O1  UNL     1      26.918  -0.923  51.842  1.00  0.00    -0.355 OA
HETATM   20  C1  UNL     1      26.820  -2.316  52.129  1.00  0.00     0.210 C 
ENDBRANCH  14  19
ENDBRANCH   1  13
TORSDOF 2
ENDMDL
