MODEL 1
REMARK VINA RESULT:      -8.0      0.000      0.000
REMARK  2 active torsions:
REMARK  status: ('A' for Active; 'I' for Inactive)
REMARK    1  A    between atoms: N5_11  and  C7_12 
REMARK    2  A    between atoms: C14_20  and  N6_21 
ROOT
HETATM    1  C1  UNL     1      23.729   5.619  51.207  1.00  0.00     0.330 C 
HETATM    2  N1  UNL     1      23.036   4.829  50.155  1.00  0.00     0.104 N 
HETATM    3  C2  UNL     1      23.918   4.218  49.083  1.00  0.00     0.417 A 
HETATM    4  N2  UNL     1      23.126   3.467  49.636  1.00  0.00    -0.160 N 
HETATM    5  C3  UNL     1      22.733   2.167  49.609  1.00  0.00     0.200 A 
HETATM    6  C4  UNL     1      22.040   2.139  48.463  1.00  0.00     0.132 A 
HETATM    7  N3  UNL     1      21.142   1.140  49.005  1.00  0.00    -0.265 NA
HETATM    8  C5  UNL     1      21.624   0.945  50.272  1.00  0.00     0.188 A 
HETATM    9  N4  UNL     1      22.515   1.208  51.242  1.00  0.00    -0.236 NA
HETATM   10  C6  UNL     1      23.406   2.180  50.753  1.00  0.00     0.142 A 
HETATM   11  N5  UNL     1      24.081   2.172  51.940  1.00  0.00    -0.342 N 
HETATM   12  C13 UNL     1      20.478   0.626  51.093  1.00  0.00     0.096 C 
HETATM   13  C14 UNL     1      19.239   1.399  50.816  1.00  0.00     0.222 C 
HETATM   14  C15 UNL     1      19.194   2.836  50.571  1.00  0.00     0.036 C 
HETATM   15  C16 UNL     1      19.625   3.931  51.409  1.00  0.00     0.018 C 
HETATM   16  C17 UNL     1      21.072   4.326  51.508  1.00  0.00     0.120 C 
HETATM   17  N7  UNL     1      21.606   4.757  50.286  1.00  0.00    -0.130 NA
HETATM   18  H6  UNL     1      23.883   3.071  52.456  1.00  0.00     0.167 HD
HETATM   19  H22 UNL     1      21.190   5.629  49.944  1.00  0.00     0.155 HD
ENDROOT
BRANCH  11  20
HETATM   20  C7  UNL     1      24.914   1.133  52.420  1.00  0.00     0.035 A 
HETATM   21  C8  UNL     1      26.044   0.782  51.697  1.00  0.00     0.029 A 
HETATM   22  C9  UNL     1      26.739  -0.287  52.217  1.00  0.00     0.004 A 
HETATM   23  C10 UNL     1      26.330  -0.934  53.355  1.00  0.00     0.024 A 
HETATM   24  C11 UNL     1      25.195  -0.532  54.032  1.00  0.00     0.036 A 
HETATM   25 CL1  UNL     1      24.603  -1.331  55.504  1.00  0.00    -0.084 Cl
HETATM   26  C12 UNL     1      24.471   0.528  53.548  1.00  0.00     0.053 A 
ENDBRANCH  11  20
BRANCH  13  27
HETATM   27  N6  UNL     1      18.572   0.741  49.619  1.00  0.00     0.083 N 
HETATM   28  H14 UNL     1      17.884   0.083  49.939  1.00  0.00     0.313 HD
HETATM   29  H15 UNL     1      18.329   1.437  48.915  1.00  0.00     0.313 HD
ENDBRANCH  13  27
TORSDOF 2
ENDMDL
MODEL 2
REMARK VINA RESULT:      -7.8      3.402      5.262
REMARK  2 active torsions:
REMARK  status: ('A' for Active; 'I' for Inactive)
REMARK    1  A    between atoms: N5_11  and  C7_12 
REMARK    2  A    between atoms: C14_20  and  N6_21 
ROOT
HETATM    1  C1  UNL     1      24.354   2.961  53.256  1.00  0.00     0.330 C 
HETATM    2  N1  UNL     1      23.134   3.475  52.580  1.00  0.00     0.104 N 
HETATM    3  C2  UNL     1      22.913   4.975  52.639  1.00  0.00     0.417 A 
HETATM    4  N2  UNL     1      22.846   4.453  51.535  1.00  0.00    -0.160 N 
HETATM    5  C3  UNL     1      22.617   4.789  50.238  1.00  0.00     0.200 A 
HETATM    6  C4  UNL     1      21.298   5.018  50.269  1.00  0.00     0.132 A 
HETATM    7  N3  UNL     1      21.163   4.543  48.907  1.00  0.00    -0.265 NA
HETATM    8  C5  UNL     1      22.445   4.202  48.569  1.00  0.00     0.188 A 
HETATM    9  N4  UNL     1      23.751   4.104  48.866  1.00  0.00    -0.236 NA
HETATM   10  C6  UNL     1      23.923   4.555  50.188  1.00  0.00     0.142 A 
HETATM   11  N5  UNL     1      25.263   4.307  50.108  1.00  0.00    -0.342 N 
HETATM   12  C13 UNL     1      22.337   3.091  47.650  1.00  0.00     0.096 C 
HETATM   13  C14 UNL     1      21.294   2.080  47.967  1.00  0.00     0.222 C 
HETATM   14  C15 UNL     1      21.026   1.551  49.299  1.00  0.00     0.036 C 
HETATM   15  C16 UNL     1      21.904   0.852  50.210  1.00  0.00     0.018 C 
HETATM   16  C17 UNL     1      22.905   1.584  51.059  1.00  0.00     0.120 C 
HETATM   17  N7  UNL     1      22.307   2.473  51.964  1.00  0.00    -0.130 NA
HETATM   18  H6  UNL     1      25.495   3.466  50.702  1.00  0.00     0.167 HD
HETATM   19  H22 UNL     1      21.746   2.007  52.683  1.00  0.00     0.155 HD
ENDROOT
BRANCH  11  20
HETATM   20  C7  UNL     1      26.206   5.045  49.354  1.00  0.00     0.035 A 
HETATM   21  C8  UNL     1      27.370   4.424  48.929  1.00  0.00     0.029 A 
HETATM   22  C9  UNL     1      28.247   5.254  48.268  1.00  0.00     0.004 A 
HETATM   23  C10 UNL     1      27.971   6.582  48.059  1.00  0.00     0.024 A 
HETATM   24  C11 UNL     1      26.789   7.141  48.505  1.00  0.00     0.036 A 
HETATM   25 CL1  UNL     1      26.373   8.853  48.278  1.00  0.00    -0.084 Cl
HETATM   26  C12 UNL     1      25.888   6.350  49.171  1.00  0.00     0.053 A 
ENDBRANCH  11  20
BRANCH  13  27
HETATM   27  N6  UNL     1      19.975   2.638  47.457  1.00  0.00     0.083 N 
HETATM   28  H14 UNL     1      20.083   2.935  46.504  1.00  0.00     0.313 HD
HETATM   29  H15 UNL     1      19.200   2.029  47.722  1.00  0.00     0.313 HD
ENDBRANCH  13  27
TORSDOF 2
ENDMDL
MODEL 3
REMARK VINA RESULT:      -7.7      1.889      4.124
REMARK  2 active torsions:
REMARK  status: ('A' for Active; 'I' for Inactive)
REMARK    1  A    between atoms: N5_11  and  C7_12 
REMARK    2  A    between atoms: C14_20  and  N6_21 
ROOT
HETATM    1  C1  UNL     1      21.077   0.233  51.067  1.00  0.00     0.330 C 
HETATM    2  N1  UNL     1      21.194   1.701  51.272  1.00  0.00     0.104 N 
HETATM    3  C2  UNL     1      21.131   2.186  52.707  1.00  0.00     0.417 A 
HETATM    4  N2  UNL     1      22.069   2.588  52.032  1.00  0.00    -0.160 N 
HETATM    5  C3  UNL     1      23.160   3.392  52.140  1.00  0.00     0.200 A 
HETATM    6  C4  UNL     1      22.580   4.599  52.149  1.00  0.00     0.132 A 
HETATM    7  N3  UNL     1      23.723   5.176  51.472  1.00  0.00    -0.265 NA
HETATM    8  C5  UNL     1      24.558   4.103  51.304  1.00  0.00     0.188 A 
HETATM    9  N4  UNL     1      24.843   2.801  51.467  1.00  0.00    -0.236 NA
HETATM   10  C6  UNL     1      23.750   2.203  52.121  1.00  0.00     0.142 A 
HETATM   11  N5  UNL     1      24.382   0.993  52.090  1.00  0.00    -0.342 N 
HETATM   12  C13 UNL     1      25.277   4.342  50.073  1.00  0.00     0.096 C 
HETATM   13  C14 UNL     1      24.487   4.927  48.957  1.00  0.00     0.222 C 
HETATM   14  C15 UNL     1      23.140   4.510  48.584  1.00  0.00     0.036 C 
HETATM   15  C16 UNL     1      22.655   3.212  48.175  1.00  0.00     0.018 C 
HETATM   16  C17 UNL     1      22.359   2.129  49.175  1.00  0.00     0.120 C 
HETATM   17  N7  UNL     1      21.338   2.476  50.070  1.00  0.00    -0.130 NA
HETATM   18  H6  UNL     1      23.898   0.368  51.390  1.00  0.00     0.167 HD
HETATM   19  H22 UNL     1      20.423   2.583  49.623  1.00  0.00     0.155 HD
ENDROOT
BRANCH  11  20
HETATM   20  C7  UNL     1      25.508   0.618  52.861  1.00  0.00     0.035 A 
HETATM   21  C8  UNL     1      25.983   1.484  53.832  1.00  0.00     0.029 A 
HETATM   22  C9  UNL     1      27.124   1.050  54.470  1.00  0.00     0.004 A 
HETATM   23  C10 UNL     1      27.723  -0.143  54.153  1.00  0.00     0.024 A 
HETATM   24  C11 UNL     1      27.197  -0.964  53.175  1.00  0.00     0.036 A 
HETATM   25 CL1  UNL     1      27.926  -2.515  52.708  1.00  0.00    -0.084 Cl
HETATM   26  C12 UNL     1      26.062  -0.569  52.513  1.00  0.00     0.053 A 
ENDBRANCH  11  20
BRANCH  13  27
HETATM   27  N6  UNL     1      24.414   6.424  49.212  1.00  0.00     0.083 N 
HETATM   28  H14 UNL     1      23.556   6.642  49.686  1.00  0.00     0.313 HD
HETATM   29  H15 UNL     1      25.303   6.772  49.571  1.00  0.00     0.313 HD
ENDBRANCH  13  27
TORSDOF 2
ENDMDL
MODEL 4
REMARK VINA RESULT:      -7.6      9.855     12.541
REMARK  2 active torsions:
REMARK  status: ('A' for Active; 'I' for Inactive)
REMARK    1  A    between atoms: N5_11  and  C7_12 
REMARK    2  A    between atoms: C14_20  and  N6_21 
ROOT
HETATM    1  C1  UNL     1      33.131   8.825  44.153  1.00  0.00     0.330 C 
HETATM    2  N1  UNL     1      33.999   8.242  45.211  1.00  0.00     0.104 N 
HETATM    3  C2  UNL     1      34.364   9.160  46.362  1.00  0.00     0.417 A 
HETATM    4  N2  UNL     1      33.913   8.062  46.657  1.00  0.00    -0.160 N 
HETATM    5  C3  UNL     1      33.608   7.323  47.757  1.00  0.00     0.200 A 
HETATM    6  C4  UNL     1      34.834   6.993  48.183  1.00  0.00     0.132 A 
HETATM    7  N3  UNL     1      34.341   5.727  48.686  1.00  0.00    -0.265 NA
HETATM    8  C5  UNL     1      33.009   5.766  48.370  1.00  0.00     0.188 A 
HETATM    9  N4  UNL     1      31.945   6.395  47.845  1.00  0.00    -0.236 NA
HETATM   10  C6  UNL     1      32.386   7.632  47.341  1.00  0.00     0.142 A 
HETATM   11  N5  UNL     1      31.118   7.925  46.926  1.00  0.00    -0.342 N 
HETATM   12  C13 UNL     1      32.617   4.399  48.111  1.00  0.00     0.096 C 
HETATM   13  C14 UNL     1      33.596   3.569  47.360  1.00  0.00     0.222 C 
HETATM   14  C15 UNL     1      34.346   4.021  46.193  1.00  0.00     0.036 C 
HETATM   15  C16 UNL     1      33.869   4.513  44.922  1.00  0.00     0.018 C 
HETATM   16  C17 UNL     1      33.390   5.927  44.752  1.00  0.00     0.120 C 
HETATM   17  N7  UNL     1      34.392   6.876  44.995  1.00  0.00    -0.130 NA
HETATM   18  H6  UNL     1      31.079   7.870  45.872  1.00  0.00     0.167 HD
HETATM   19  H22 UNL     1      35.156   6.847  44.314  1.00  0.00     0.155 HD
ENDROOT
BRANCH  11  20
HETATM   20  C7  UNL     1      30.020   8.249  47.758  1.00  0.00     0.035 A 
HETATM   21  C8  UNL     1      30.162   9.248  48.708  1.00  0.00     0.029 A 
HETATM   22  C9  UNL     1      29.056   9.429  49.509  1.00  0.00     0.004 A 
HETATM   23  C10 UNL     1      27.922   8.673  49.360  1.00  0.00     0.024 A 
HETATM   24  C11 UNL     1      27.842   7.693  48.389  1.00  0.00     0.036 A 
HETATM   25 CL1  UNL     1      26.409   6.672  48.149  1.00  0.00    -0.084 Cl
HETATM   26  C12 UNL     1      28.922   7.478  47.571  1.00  0.00     0.053 A 
ENDBRANCH  11  20
BRANCH  13  27
HETATM   27  N6  UNL     1      34.626   3.089  48.369  1.00  0.00     0.083 N 
HETATM   28  H14 UNL     1      34.180   2.502  49.050  1.00  0.00     0.313 HD
HETATM   29  H15 UNL     1      35.474   2.775  47.897  1.00  0.00     0.313 HD
ENDBRANCH  13  27
TORSDOF 2
ENDMDL
MODEL 5
REMARK VINA RESULT:      -7.6      1.959      4.348
REMARK  2 active torsions:
REMARK  status: ('A' for Active; 'I' for Inactive)
REMARK    1  A    between atoms: N5_11  and  C7_12 
REMARK    2  A    between atoms: C14_20  and  N6_21 
ROOT
HETATM    1  C1  UNL     1      19.272   2.193  49.538  1.00  0.00     0.330 C 
HETATM    2  N1  UNL     1      19.950   3.405  50.070  1.00  0.00     0.104 N 
HETATM    3  C2  UNL     1      19.492   3.889  51.432  1.00  0.00     0.417 A 
HETATM    4  N2  UNL     1      20.697   3.745  51.277  1.00  0.00    -0.160 N 
HETATM    5  C3  UNL     1      21.859   3.889  51.966  1.00  0.00     0.200 A 
HETATM    6  C4  UNL     1      21.968   5.224  51.995  1.00  0.00     0.132 A 
HETATM    7  N3  UNL     1      23.413   5.128  51.955  1.00  0.00    -0.265 NA
HETATM    8  C5  UNL     1      23.633   3.776  51.911  1.00  0.00     0.188 A 
HETATM    9  N4  UNL     1      23.177   2.513  51.901  1.00  0.00    -0.236 NA
HETATM   10  C6  UNL     1      21.772   2.565  51.937  1.00  0.00     0.142 A 
HETATM   11  N5  UNL     1      21.711   1.201  51.907  1.00  0.00    -0.342 N 
HETATM   12  C13 UNL     1      24.840   3.590  51.138  1.00  0.00     0.096 C 
HETATM   13  C14 UNL     1      24.996   4.468  49.948  1.00  0.00     0.222 C 
HETATM   14  C15 UNL     1      23.933   4.781  49.000  1.00  0.00     0.036 C 
HETATM   15  C16 UNL     1      23.141   3.897  48.176  1.00  0.00     0.018 C 
HETATM   16  C17 UNL     1      21.970   3.137  48.734  1.00  0.00     0.120 C 
HETATM   17  N7  UNL     1      20.951   3.973  49.208  1.00  0.00    -0.130 NA
HETATM   18  H6  UNL     1      21.359   0.891  50.961  1.00  0.00     0.167 HD
HETATM   19  H22 UNL     1      20.494   4.518  48.471  1.00  0.00     0.155 HD
ENDROOT
BRANCH  11  20
HETATM   20  C7  UNL     1      22.062   0.326  52.962  1.00  0.00     0.035 A 
HETATM   21  C8  UNL     1      21.067  -0.182  53.781  1.00  0.00     0.029 A 
HETATM   22  C9  UNL     1      21.528  -0.962  54.818  1.00  0.00     0.004 A 
HETATM   23  C10 UNL     1      22.866  -1.203  55.004  1.00  0.00     0.024 A 
HETATM   24  C11 UNL     1      23.810  -0.669  54.149  1.00  0.00     0.036 A 
HETATM   25 CL1  UNL     1      25.557  -0.931  54.339  1.00  0.00    -0.084 Cl
HETATM   26  C12 UNL     1      23.394   0.116  53.104  1.00  0.00     0.053 A 
ENDBRANCH  11  20
BRANCH  13  27
HETATM   27  N6  UNL     1      25.520   5.802  50.456  1.00  0.00     0.083 N 
HETATM   28  H14 UNL     1      25.089   6.549  49.941  1.00  0.00     0.313 HD
HETATM   29  H15 UNL     1      25.533   5.820  51.475  1.00  0.00     0.313 HD
ENDBRANCH  13  27
TORSDOF 2
ENDMDL
MODEL 6
REMARK VINA RESULT:      -7.5      8.648     11.318
REMARK  2 active torsions:
REMARK  status: ('A' for Active; 'I' for Inactive)
REMARK    1  A    between atoms: N5_11  and  C7_12 
REMARK    2  A    between atoms: C14_20  and  N6_21 
ROOT
HETATM    1  C1  UNL     1      30.918   9.187  45.185  1.00  0.00     0.330 C 
HETATM    2  N1  UNL     1      31.940   8.804  46.195  1.00  0.00     0.104 N 
HETATM    3  C2  UNL     1      31.829   9.475  47.551  1.00  0.00     0.417 A 
HETATM    4  N2  UNL     1      31.923   8.255  47.548  1.00  0.00    -0.160 N 
HETATM    5  C3  UNL     1      31.971   7.213  48.420  1.00  0.00     0.200 A 
HETATM    6  C4  UNL     1      33.206   7.361  48.916  1.00  0.00     0.132 A 
HETATM    7  N3  UNL     1      33.336   5.927  49.075  1.00  0.00    -0.265 NA
HETATM    8  C5  UNL     1      32.138   5.454  48.610  1.00  0.00     0.188 A 
HETATM    9  N4  UNL     1      30.913   5.660  48.101  1.00  0.00    -0.236 NA
HETATM   10  C6  UNL     1      30.749   7.047  47.929  1.00  0.00     0.142 A 
HETATM   11  N5  UNL     1      29.494   6.846  47.430  1.00  0.00    -0.342 N 
HETATM   12  C13 UNL     1      32.416   4.164  48.020  1.00  0.00     0.096 C 
HETATM   13  C14 UNL     1      33.678   4.060  47.239  1.00  0.00     0.222 C 
HETATM   14  C15 UNL     1      34.157   5.065  46.298  1.00  0.00     0.036 C 
HETATM   15  C16 UNL     1      33.528   5.594  45.110  1.00  0.00     0.018 C 
HETATM   16  C17 UNL     1      32.460   6.648  45.184  1.00  0.00     0.120 C 
HETATM   17  N7  UNL     1      32.916   7.849  45.747  1.00  0.00    -0.130 NA
HETATM   18  H6  UNL     1      29.500   7.040  46.392  1.00  0.00     0.167 HD
HETATM   19  H22 UNL     1      33.619   8.326  45.176  1.00  0.00     0.155 HD
ENDROOT
BRANCH  11  20
HETATM   20  C7  UNL     1      28.356   6.441  48.167  1.00  0.00     0.035 A 
HETATM   21  C8  UNL     1      28.103   5.089  48.335  1.00  0.00     0.029 A 
HETATM   22  C9  UNL     1      26.932   4.810  49.004  1.00  0.00     0.004 A 
HETATM   23  C10 UNL     1      26.103   5.803  49.459  1.00  0.00     0.024 A 
HETATM   24  C11 UNL     1      26.414   7.135  49.263  1.00  0.00     0.036 A 
HETATM   25 CL1  UNL     1      25.381   8.470  49.815  1.00  0.00    -0.084 Cl
HETATM   26  C12 UNL     1      27.570   7.458  48.598  1.00  0.00     0.053 A 
ENDBRANCH  11  20
BRANCH  13  27
HETATM   27  N6  UNL     1      34.798   3.849  48.245  1.00  0.00     0.083 N 
HETATM   28  H14 UNL     1      35.388   3.097  47.936  1.00  0.00     0.313 HD
HETATM   29  H15 UNL     1      35.205   4.741  48.523  1.00  0.00     0.313 HD
ENDBRANCH  13  27
TORSDOF 2
ENDMDL
MODEL 7
REMARK VINA RESULT:      -7.3     11.084     13.494
REMARK  2 active torsions:
REMARK  status: ('A' for Active; 'I' for Inactive)
REMARK    1  A    between atoms: N5_11  and  C7_12 
REMARK    2  A    between atoms: C14_20  and  N6_21 
ROOT
HETATM    1  C1  UNL     1      32.768   2.315  47.145  1.00  0.00     0.330 C 
HETATM    2  N1  UNL     1      33.239   3.560  47.808  1.00  0.00     0.104 N 
HETATM    3  C2  UNL     1      34.732   3.825  47.756  1.00  0.00     0.417 A 
HETATM    4  N2  UNL     1      34.000   4.740  47.405  1.00  0.00    -0.160 N 
HETATM    5  C3  UNL     1      34.077   6.019  46.952  1.00  0.00     0.200 A 
HETATM    6  C4  UNL     1      34.427   6.660  48.075  1.00  0.00     0.132 A 
HETATM    7  N3  UNL     1      33.693   7.837  47.657  1.00  0.00    -0.265 NA
HETATM    8  C5  UNL     1      33.173   7.463  46.446  1.00  0.00     0.188 A 
HETATM    9  N4  UNL     1      33.020   6.563  45.462  1.00  0.00    -0.236 NA
HETATM   10  C6  UNL     1      33.719   5.400  45.834  1.00  0.00     0.142 A 
HETATM   11  N5  UNL     1      33.337   4.789  44.674  1.00  0.00    -0.342 N 
HETATM   12  C13 UNL     1      31.909   8.155  46.322  1.00  0.00     0.096 C 
HETATM   13  C14 UNL     1      31.086   8.242  47.557  1.00  0.00     0.222 C 
HETATM   14  C15 UNL     1      30.874   7.144  48.494  1.00  0.00     0.036 C 
HETATM   15  C16 UNL     1      30.304   5.836  48.270  1.00  0.00     0.018 C 
HETATM   16  C17 UNL     1      31.102   4.721  47.654  1.00  0.00     0.120 C 
HETATM   17  N7  UNL     1      32.211   4.351  48.427  1.00  0.00    -0.130 NA
HETATM   18  H6  UNL     1      32.621   4.045  44.895  1.00  0.00     0.167 HD
HETATM   19  H22 UNL     1      31.959   3.934  49.328  1.00  0.00     0.155 HD
ENDROOT
BRANCH  11  20
HETATM   20  C7  UNL     1      33.812   5.090  43.375  1.00  0.00     0.035 A 
HETATM   21  C8  UNL     1      33.045   4.740  42.275  1.00  0.00     0.029 A 
HETATM   22  C9  UNL     1      33.635   5.014  41.062  1.00  0.00     0.004 A 
HETATM   23  C10 UNL     1      34.879   5.586  40.974  1.00  0.00     0.024 A 
HETATM   24  C11 UNL     1      35.593   5.915  42.110  1.00  0.00     0.036 A 
HETATM   25 CL1  UNL     1      37.211   6.647  42.068  1.00  0.00    -0.084 Cl
HETATM   26  C12 UNL     1      35.042   5.657  43.340  1.00  0.00     0.053 A 
ENDBRANCH  11  20
BRANCH  13  27
HETATM   27  N6  UNL     1      31.644   9.396  48.373  1.00  0.00     0.083 N 
HETATM   28  H14 UNL     1      32.062  10.071  47.758  1.00  0.00     0.313 HD
HETATM   29  H15 UNL     1      30.974   9.693  49.082  1.00  0.00     0.313 HD
ENDBRANCH  13  27
TORSDOF 2
ENDMDL
MODEL 8
REMARK VINA RESULT:      -7.2      1.701      2.206
REMARK  2 active torsions:
REMARK  status: ('A' for Active; 'I' for Inactive)
REMARK    1  A    between atoms: N5_11  and  C7_12 
REMARK    2  A    between atoms: C14_20  and  N6_21 
ROOT
HETATM    1  C1  UNL     1      23.758   5.779  51.417  1.00  0.00     0.330 C 
HETATM    2  N1  UNL     1      23.434   5.136  50.116  1.00  0.00     0.104 N 
HETATM    3  C2  UNL     1      24.477   4.187  49.556  1.00  0.00     0.417 A 
HETATM    4  N2  UNL     1      23.329   3.767  49.619  1.00  0.00    -0.160 N 
HETATM    5  C3  UNL     1      22.614   2.649  49.329  1.00  0.00     0.200 A 
HETATM    6  C4  UNL     1      22.571   2.721  47.993  1.00  0.00     0.132 A 
HETATM    7  N3  UNL     1      21.264   2.095  47.980  1.00  0.00    -0.265 NA
HETATM    8  C5  UNL     1      21.008   1.887  49.309  1.00  0.00     0.188 A 
HETATM    9  N4  UNL     1      21.370   1.962  50.600  1.00  0.00    -0.236 NA
HETATM   10  C6  UNL     1      22.638   2.569  50.654  1.00  0.00     0.142 A 
HETATM   11  N5  UNL     1      22.636   2.473  52.016  1.00  0.00    -0.342 N 
HETATM   12  C13 UNL     1      19.576   2.009  49.466  1.00  0.00     0.096 C 
HETATM   13  C14 UNL     1      18.921   3.089  48.682  1.00  0.00     0.222 C 
HETATM   14  C15 UNL     1      19.444   4.442  48.533  1.00  0.00     0.036 C 
HETATM   15  C16 UNL     1      19.747   5.432  49.541  1.00  0.00     0.018 C 
HETATM   16  C17 UNL     1      21.019   5.381  50.340  1.00  0.00     0.120 C 
HETATM   17  N7  UNL     1      22.168   5.511  49.547  1.00  0.00    -0.130 NA
HETATM   18  H6  UNL     1      22.510   3.435  52.430  1.00  0.00     0.167 HD
HETATM   19  H22 UNL     1      22.255   6.430  49.103  1.00  0.00     0.155 HD
ENDROOT
BRANCH  11  20
HETATM   20  C7  UNL     1      22.778   1.283  52.770  1.00  0.00     0.035 A 
HETATM   21  C8  UNL     1      21.691   0.796  53.477  1.00  0.00     0.029 A 
HETATM   22  C9  UNL     1      21.962  -0.324  54.232  1.00  0.00     0.004 A 
HETATM   23  C10 UNL     1      23.211  -0.891  54.265  1.00  0.00     0.024 A 
HETATM   24  C11 UNL     1      24.253  -0.358  53.533  1.00  0.00     0.036 A 
HETATM   25 CL1  UNL     1      25.895  -1.036  53.538  1.00  0.00    -0.084 Cl
HETATM   26  C12 UNL     1      24.028   0.758  52.768  1.00  0.00     0.053 A 
ENDBRANCH  11  20
BRANCH  13  27
HETATM   27  N6  UNL     1      18.727   2.550  47.274  1.00  0.00     0.083 N 
HETATM   28  H14 UNL     1      19.581   2.652  46.755  1.00  0.00     0.313 HD
HETATM   29  H15 UNL     1      18.242   1.653  47.295  1.00  0.00     0.313 HD
ENDBRANCH  13  27
TORSDOF 2
ENDMDL
MODEL 9
REMARK VINA RESULT:      -7.2      1.628      4.122
REMARK  2 active torsions:
REMARK  status: ('A' for Active; 'I' for Inactive)
REMARK    1  A    between atoms: N5_11  and  C7_12 
REMARK    2  A    between atoms: C14_20  and  N6_21 
ROOT
HETATM    1  C1  UNL     1      19.655   2.126  49.660  1.00  0.00     0.330 C 
HETATM    2  N1  UNL     1      20.139   3.466  50.086  1.00  0.00     0.104 N 
HETATM    3  C2  UNL     1      19.920   3.828  51.543  1.00  0.00     0.417 A 
HETATM    4  N2  UNL     1      21.052   3.977  51.105  1.00  0.00    -0.160 N 
HETATM    5  C3  UNL     1      22.279   4.396  51.513  1.00  0.00     0.200 A 
HETATM    6  C4  UNL     1      22.077   5.718  51.590  1.00  0.00     0.132 A 
HETATM    7  N3  UNL     1      23.452   5.971  51.211  1.00  0.00    -0.265 NA
HETATM    8  C5  UNL     1      23.964   4.712  51.041  1.00  0.00     0.188 A 
HETATM    9  N4  UNL     1      23.826   3.376  51.066  1.00  0.00    -0.236 NA
HETATM   10  C6  UNL     1      22.498   3.090  51.430  1.00  0.00     0.142 A 
HETATM   11  N5  UNL     1      22.752   1.751  51.339  1.00  0.00    -0.342 N 
HETATM   12  C13 UNL     1      24.960   4.819  50.000  1.00  0.00     0.096 C 
HETATM   13  C14 UNL     1      24.620   5.708  48.858  1.00  0.00     0.222 C 
HETATM   14  C15 UNL     1      23.318   5.755  48.200  1.00  0.00     0.036 C 
HETATM   15  C16 UNL     1      22.581   4.706  47.535  1.00  0.00     0.018 C 
HETATM   16  C17 UNL     1      21.788   3.688  48.306  1.00  0.00     0.120 C 
HETATM   17  N7  UNL     1      20.745   4.256  49.049  1.00  0.00    -0.130 NA
HETATM   18  H6  UNL     1      22.266   1.365  50.485  1.00  0.00     0.167 HD
HETATM   19  H22 UNL     1      20.011   4.675  48.470  1.00  0.00     0.155 HD
ENDROOT
BRANCH  11  20
HETATM   20  C7  UNL     1      23.539   0.987  52.233  1.00  0.00     0.035 A 
HETATM   21  C8  UNL     1      24.914   0.958  52.070  1.00  0.00     0.029 A 
HETATM   22  C9  UNL     1      25.572   0.126  52.949  1.00  0.00     0.004 A 
HETATM   23  C10 UNL     1      24.900  -0.602  53.898  1.00  0.00     0.024 A 
HETATM   24  C11 UNL     1      23.526  -0.526  54.012  1.00  0.00     0.036 A 
HETATM   25 CL1  UNL     1      22.593  -1.449  55.209  1.00  0.00    -0.084 Cl
HETATM   26  C12 UNL     1      22.831   0.289  53.154  1.00  0.00     0.053 A 
ENDBRANCH  11  20
BRANCH  13  27
HETATM   27  N6  UNL     1      24.924   7.129  49.303  1.00  0.00     0.083 N 
HETATM   28  H14 UNL     1      24.220   7.750  48.946  1.00  0.00     0.313 HD
HETATM   29  H15 UNL     1      25.175   7.150  50.292  1.00  0.00     0.313 HD
ENDBRANCH  13  27
TORSDOF 2
ENDMDL
