MODEL 1
REMARK VINA RESULT:      -6.8      0.000      0.000
REMARK  5 active torsions:
REMARK  status: ('A' for Active; 'I' for Inactive)
REMARK    1  A    between atoms: C3_4  and  N2_5 
REMARK    2  A    between atoms: N2_5  and  C4_6 
REMARK    3  A    between atoms: C4_6  and  C5_7 
REMARK    4  A    between atoms: C6_8  and  C7_9 
REMARK    5  A    between atoms: C14_20  and  N5_21 
ROOT
HETATM    1  C1  UNL     1      26.786   3.036  50.768  1.00  0.00     0.039 C 
HETATM    2  C2  UNL     1      25.880   2.630  51.661  1.00  0.00     0.020 C 
HETATM    3  N1  UNL     1      24.701   3.216  52.194  1.00  0.00    -0.339 N 
HETATM    4  C3  UNL     1      24.186   1.847  52.285  1.00  0.00     0.347 C 
HETATM    5  N3  UNL     1      23.257   1.626  53.316  1.00  0.00    -0.221 NA
HETATM    6  C8  UNL     1      22.917   0.496  53.783  1.00  0.00     0.228 C 
HETATM    7  N4  UNL     1      23.649  -0.529  53.079  1.00  0.00    -0.247 NA
HETATM    8  C9  UNL     1      24.814  -0.775  53.632  1.00  0.00     0.296 C 
HETATM    9  O1  UNL     1      25.946  -0.764  54.475  1.00  0.00    -0.349 OA
HETATM   10  C10 UNL     1      26.932   0.244  54.052  1.00  0.00     0.181 C 
HETATM   11  C11 UNL     1      27.226  -0.121  52.647  1.00  0.00     0.004 C 
HETATM   12  C12 UNL     1      26.095   0.181  51.966  1.00  0.00    -0.004 C 
HETATM   13  C13 UNL     1      25.561   1.444  52.566  1.00  0.00     0.128 C 
HETATM   14  C14 UNL     1      26.146   1.565  53.907  1.00  0.00     0.274 C 
HETATM   15  H3  UNL     1      24.344   4.173  52.424  1.00  0.00     0.163 HD
ENDROOT
BRANCH   4  16
HETATM   16  N2  UNL     1      23.716   1.461  50.946  1.00  0.00     0.140 N 
HETATM   17  H4  UNL     1      24.351   1.934  50.270  1.00  0.00     0.322 HD
BRANCH  16  18
HETATM   18  C4  UNL     1      22.388   1.826  50.641  1.00  0.00     0.302 C 
BRANCH  18  19
HETATM   19  C5  UNL     1      21.460   0.814  50.170  1.00  0.00    -0.000 C 
HETATM   20  C6  UNL     1      20.325   0.511  50.839  1.00  0.00    -0.018 C 
BRANCH  20  21
HETATM   21  C7  UNL     1      19.679   0.995  52.086  1.00  0.00     0.112 C 
HETATM   22 BR1  UNL     1      19.256  -0.572  53.170  1.00  0.00    -0.092 Br
ENDBRANCH  20  21
ENDBRANCH  18  19
ENDBRANCH  16  18
ENDBRANCH   4  16
BRANCH  14  23
HETATM   23  N5  UNL     1      27.092   2.684  53.940  1.00  0.00     0.087 N 
HETATM   24  H17 UNL     1      26.885   3.323  54.722  1.00  0.00     0.313 HD
HETATM   25  H18 UNL     1      27.018   3.131  52.999  1.00  0.00     0.313 HD
ENDBRANCH  14  23
TORSDOF 5
ENDMDL
MODEL 2
REMARK VINA RESULT:      -6.6      1.820      2.119
REMARK  5 active torsions:
REMARK  status: ('A' for Active; 'I' for Inactive)
REMARK    1  A    between atoms: C3_4  and  N2_5 
REMARK    2  A    between atoms: N2_5  and  C4_6 
REMARK    3  A    between atoms: C4_6  and  C5_7 
REMARK    4  A    between atoms: C6_8  and  C7_9 
REMARK    5  A    between atoms: C14_20  and  N5_21 
ROOT
HETATM    1  C1  UNL     1      26.773   3.033  50.791  1.00  0.00     0.039 C 
HETATM    2  C2  UNL     1      25.877   2.623  51.693  1.00  0.00     0.020 C 
HETATM    3  N1  UNL     1      24.708   3.210  52.247  1.00  0.00    -0.339 N 
HETATM    4  C3  UNL     1      24.187   1.842  52.330  1.00  0.00     0.347 C 
HETATM    5  N3  UNL     1      23.271   1.616  53.372  1.00  0.00    -0.221 NA
HETATM    6  C8  UNL     1      22.931   0.483  53.832  1.00  0.00     0.228 C 
HETATM    7  N4  UNL     1      23.648  -0.538  53.108  1.00  0.00    -0.247 NA
HETATM    8  C9  UNL     1      24.820  -0.796  53.644  1.00  0.00     0.296 C 
HETATM    9  O1  UNL     1      25.962  -0.799  54.471  1.00  0.00    -0.349 OA
HETATM   10  C10 UNL     1      26.947   0.208  54.046  1.00  0.00     0.181 C 
HETATM   11  C11 UNL     1      27.221  -0.144  52.634  1.00  0.00     0.004 C 
HETATM   12  C12 UNL     1      26.083   0.170  51.971  1.00  0.00    -0.004 C 
HETATM   13  C13 UNL     1      25.564   1.430  52.590  1.00  0.00     0.128 C 
HETATM   14  C14 UNL     1      26.167   1.534  53.924  1.00  0.00     0.274 C 
HETATM   15  H3  UNL     1      24.359   4.166  52.491  1.00  0.00     0.163 HD
ENDROOT
BRANCH   4  16
HETATM   16  N2  UNL     1      23.698   1.473  50.995  1.00  0.00     0.140 N 
HETATM   17  H4  UNL     1      24.315   1.963  50.315  1.00  0.00     0.322 HD
BRANCH  16  18
HETATM   18  C4  UNL     1      22.360   1.826  50.720  1.00  0.00     0.302 C 
BRANCH  18  19
HETATM   19  C5  UNL     1      21.593   1.036  49.775  1.00  0.00    -0.000 C 
HETATM   20  C6  UNL     1      21.672   1.233  48.439  1.00  0.00    -0.018 C 
BRANCH  20  21
HETATM   21  C7  UNL     1      22.432   2.155  47.557  1.00  0.00     0.112 C 
HETATM   22 BR1  UNL     1      21.455   3.844  47.498  1.00  0.00    -0.092 Br
ENDBRANCH  20  21
ENDBRANCH  18  19
ENDBRANCH  16  18
ENDBRANCH   4  16
BRANCH  14  23
HETATM   23  N5  UNL     1      27.119   2.648  53.956  1.00  0.00     0.087 N 
HETATM   24  H17 UNL     1      26.855   3.344  54.669  1.00  0.00     0.313 HD
HETATM   25  H18 UNL     1      27.129   3.026  52.982  1.00  0.00     0.313 HD
ENDBRANCH  14  23
TORSDOF 5
ENDMDL
MODEL 3
REMARK VINA RESULT:      -6.4      2.989      4.386
REMARK  5 active torsions:
REMARK  status: ('A' for Active; 'I' for Inactive)
REMARK    1  A    between atoms: C3_4  and  N2_5 
REMARK    2  A    between atoms: N2_5  and  C4_6 
REMARK    3  A    between atoms: C4_6  and  C5_7 
REMARK    4  A    between atoms: C6_8  and  C7_9 
REMARK    5  A    between atoms: C14_20  and  N5_21 
ROOT
HETATM    1  C1  UNL     1      24.628  -1.190  55.177  1.00  0.00     0.039 C 
HETATM    2  C2  UNL     1      25.120  -0.607  54.081  1.00  0.00     0.020 C 
HETATM    3  N1  UNL     1      24.615  -0.409  52.768  1.00  0.00    -0.339 N 
HETATM    4  C3  UNL     1      25.387   0.836  52.771  1.00  0.00     0.347 C 
HETATM    5  N3  UNL     1      25.835   1.264  51.508  1.00  0.00    -0.221 NA
HETATM    6  C8  UNL     1      26.756   2.110  51.292  1.00  0.00     0.228 C 
HETATM    7  N4  UNL     1      27.271   2.560  52.562  1.00  0.00    -0.247 NA
HETATM    8  C9  UNL     1      28.238   1.789  53.006  1.00  0.00     0.296 C 
HETATM    9  O1  UNL     1      29.203   0.771  53.151  1.00  0.00    -0.349 OA
HETATM   10  C10 UNL     1      28.641  -0.428  53.793  1.00  0.00     0.181 C 
HETATM   11  C11 UNL     1      28.101   0.081  55.075  1.00  0.00     0.004 C 
HETATM   12  C12 UNL     1      27.030   0.833  54.726  1.00  0.00    -0.004 C 
HETATM   13  C13 UNL     1      26.365   0.123  53.588  1.00  0.00     0.128 C 
HETATM   14  C14 UNL     1      27.365  -0.773  52.995  1.00  0.00     0.274 C 
HETATM   15  H3  UNL     1      23.986  -0.905  52.093  1.00  0.00     0.163 HD
ENDROOT
BRANCH   4  16
HETATM   16  N2  UNL     1      24.610   1.838  53.514  1.00  0.00     0.140 N 
HETATM   17  H4  UNL     1      24.122   1.319  54.273  1.00  0.00     0.322 HD
BRANCH  16  18
HETATM   18  C4  UNL     1      23.644   2.538  52.760  1.00  0.00     0.302 C 
BRANCH  18  19
HETATM   19  C5  UNL     1      23.720   3.984  52.670  1.00  0.00    -0.000 C 
HETATM   20  C6  UNL     1      23.860   4.627  51.489  1.00  0.00    -0.018 C 
BRANCH  20  21
HETATM   21  C7  UNL     1      23.970   4.202  50.070  1.00  0.00     0.112 C 
HETATM   22 BR1  UNL     1      25.501   5.135  49.298  1.00  0.00    -0.092 Br
ENDBRANCH  20  21
ENDBRANCH  18  19
ENDBRANCH  16  18
ENDBRANCH   4  16
BRANCH  14  23
HETATM   23  N5  UNL     1      27.005  -2.168  53.259  1.00  0.00     0.087 N 
HETATM   24  H17 UNL     1      26.265  -2.234  53.974  1.00  0.00     0.313 HD
HETATM   25  H18 UNL     1      27.899  -2.633  53.535  1.00  0.00     0.313 HD
ENDBRANCH  14  23
TORSDOF 5
ENDMDL
MODEL 4
REMARK VINA RESULT:      -6.0      9.647     11.773
REMARK  5 active torsions:
REMARK  status: ('A' for Active; 'I' for Inactive)
REMARK    1  A    between atoms: C3_4  and  N2_5 
REMARK    2  A    between atoms: N2_5  and  C4_6 
REMARK    3  A    between atoms: C4_6  and  C5_7 
REMARK    4  A    between atoms: C6_8  and  C7_9 
REMARK    5  A    between atoms: C14_20  and  N5_21 
ROOT
HETATM    1  C1  UNL     1      27.879   7.086  47.928  1.00  0.00     0.039 C 
HETATM    2  C2  UNL     1      29.127   7.344  48.327  1.00  0.00     0.020 C 
HETATM    3  N1  UNL     1      30.065   6.635  49.125  1.00  0.00    -0.339 N 
HETATM    4  C3  UNL     1      31.092   7.250  48.280  1.00  0.00     0.347 C 
HETATM    5  N3  UNL     1      32.334   7.458  48.906  1.00  0.00    -0.221 NA
HETATM    6  C8  UNL     1      33.253   8.234  48.500  1.00  0.00     0.228 C 
HETATM    7  N4  UNL     1      32.808   8.873  47.285  1.00  0.00    -0.247 NA
HETATM    8  C9  UNL     1      32.135   9.976  47.523  1.00  0.00     0.296 C 
HETATM    9  O1  UNL     1      31.489  11.063  48.147  1.00  0.00    -0.349 OA
HETATM   10  C10 UNL     1      30.096  10.741  48.500  1.00  0.00     0.181 C 
HETATM   11  C11 UNL     1      29.492  10.338  47.209  1.00  0.00     0.004 C 
HETATM   12  C12 UNL     1      30.067   9.148  46.914  1.00  0.00    -0.004 C 
HETATM   13  C13 UNL     1      30.210   8.412  48.209  1.00  0.00     0.128 C 
HETATM   14  C14 UNL     1      30.156   9.412  49.282  1.00  0.00     0.274 C 
HETATM   15  H3  UNL     1      30.053   5.976  49.939  1.00  0.00     0.163 HD
ENDROOT
BRANCH   4  16
HETATM   16  N2  UNL     1      31.160   6.478  47.032  1.00  0.00     0.140 N 
HETATM   17  H4  UNL     1      30.243   5.993  46.942  1.00  0.00     0.322 HD
BRANCH  16  18
HETATM   18  C4  UNL     1      32.184   5.510  46.971  1.00  0.00     0.302 C 
BRANCH  18  19
HETATM   19  C5  UNL     1      31.869   4.119  47.234  1.00  0.00    -0.000 C 
HETATM   20  C6  UNL     1      32.822   3.207  47.529  1.00  0.00    -0.018 C 
BRANCH  20  21
HETATM   21  C7  UNL     1      34.300   3.244  47.681  1.00  0.00     0.112 C 
HETATM   22 BR1  UNL     1      35.066   3.441  45.897  1.00  0.00    -0.092 Br
ENDBRANCH  20  21
ENDBRANCH  18  19
ENDBRANCH  16  18
ENDBRANCH   4  16
BRANCH  14  23
HETATM   23  N5  UNL     1      28.917   9.257  50.048  1.00  0.00     0.087 N 
HETATM   24  H17 UNL     1      29.111   8.946  51.011  1.00  0.00     0.313 HD
HETATM   25  H18 UNL     1      28.338   8.585  49.496  1.00  0.00     0.313 HD
ENDBRANCH  14  23
TORSDOF 5
ENDMDL
MODEL 5
REMARK VINA RESULT:      -6.0      3.491      4.994
REMARK  5 active torsions:
REMARK  status: ('A' for Active; 'I' for Inactive)
REMARK    1  A    between atoms: C3_4  and  N2_5 
REMARK    2  A    between atoms: N2_5  and  C4_6 
REMARK    3  A    between atoms: C4_6  and  C5_7 
REMARK    4  A    between atoms: C6_8  and  C7_9 
REMARK    5  A    between atoms: C14_20  and  N5_21 
ROOT
HETATM    1  C1  UNL     1      21.207   6.928  50.454  1.00  0.00     0.039 C 
HETATM    2  C2  UNL     1      22.129   6.121  50.983  1.00  0.00     0.020 C 
HETATM    3  N1  UNL     1      22.252   5.467  52.239  1.00  0.00    -0.339 N 
HETATM    4  C3  UNL     1      22.942   4.405  51.501  1.00  0.00     0.347 C 
HETATM    5  N3  UNL     1      23.898   3.688  52.242  1.00  0.00    -0.221 NA
HETATM    6  C8  UNL     1      24.818   2.958  51.761  1.00  0.00     0.228 C 
HETATM    7  N4  UNL     1      24.723   2.990  50.322  1.00  0.00    -0.247 NA
HETATM    8  C9  UNL     1      25.398   3.990  49.802  1.00  0.00     0.296 C 
HETATM    9  O1  UNL     1      26.204   5.133  49.619  1.00  0.00    -0.349 OA
HETATM   10  C10 UNL     1      25.418   6.375  49.708  1.00  0.00     0.181 C 
HETATM   11  C11 UNL     1      24.370   6.202  48.677  1.00  0.00     0.004 C 
HETATM   12  C12 UNL     1      23.559   5.233  49.166  1.00  0.00    -0.004 C 
HETATM   13  C13 UNL     1      23.463   5.464  50.641  1.00  0.00     0.128 C 
HETATM   14  C14 UNL     1      24.623   6.276  51.027  1.00  0.00     0.274 C 
HETATM   15  H3  UNL     1      21.984   5.640  53.236  1.00  0.00     0.163 HD
ENDROOT
BRANCH   4  16
HETATM   16  N2  UNL     1      21.915   3.572  50.860  1.00  0.00     0.140 N 
HETATM   17  H4  UNL     1      21.158   4.222  50.563  1.00  0.00     0.322 HD
BRANCH  16  18
HETATM   18  C4  UNL     1      21.348   2.571  51.678  1.00  0.00     0.302 C 
BRANCH  18  19
HETATM   19  C5  UNL     1      21.477   1.177  51.294  1.00  0.00    -0.000 C 
HETATM   20  C6  UNL     1      22.011   0.250  52.120  1.00  0.00    -0.018 C 
BRANCH  20  21
HETATM   21  C7  UNL     1      22.572   0.266  53.495  1.00  0.00     0.112 C 
HETATM   22 BR1  UNL     1      21.700  -1.163  54.500  1.00  0.00    -0.092 Br
ENDBRANCH  20  21
ENDBRANCH  18  19
ENDBRANCH  16  18
ENDBRANCH   4  16
BRANCH  14  23
HETATM   23  N5  UNL     1      24.186   7.619  51.418  1.00  0.00     0.087 N 
HETATM   24  H17 UNL     1      23.819   7.626  52.381  1.00  0.00     0.313 HD
HETATM   25  H18 UNL     1      23.484   7.897  50.697  1.00  0.00     0.313 HD
ENDBRANCH  14  23
TORSDOF 5
ENDMDL
MODEL 6
REMARK VINA RESULT:      -5.8      3.631      5.745
REMARK  5 active torsions:
REMARK  status: ('A' for Active; 'I' for Inactive)
REMARK    1  A    between atoms: C3_4  and  N2_5 
REMARK    2  A    between atoms: N2_5  and  C4_6 
REMARK    3  A    between atoms: C4_6  and  C5_7 
REMARK    4  A    between atoms: C6_8  and  C7_9 
REMARK    5  A    between atoms: C14_20  and  N5_21 
ROOT
HETATM    1  C1  UNL     1      26.039   5.689  49.430  1.00  0.00     0.039 C 
HETATM    2  C2  UNL     1      25.303   4.621  49.750  1.00  0.00     0.020 C 
HETATM    3  N1  UNL     1      25.440   3.229  49.504  1.00  0.00    -0.339 N 
HETATM    4  C3  UNL     1      24.777   3.041  50.798  1.00  0.00     0.347 C 
HETATM    5  N3  UNL     1      24.028   1.857  50.918  1.00  0.00    -0.221 NA
HETATM    6  C8  UNL     1      23.138   1.624  51.791  1.00  0.00     0.228 C 
HETATM    7  N4  UNL     1      23.018   2.783  52.643  1.00  0.00    -0.247 NA
HETATM    8  C9  UNL     1      22.164   3.661  52.168  1.00  0.00     0.296 C 
HETATM    9  O1  UNL     1      21.214   4.338  51.376  1.00  0.00    -0.349 OA
HETATM   10  C10 UNL     1      21.856   5.158  50.334  1.00  0.00     0.181 C 
HETATM   11  C11 UNL     1      22.756   6.052  51.097  1.00  0.00     0.004 C 
HETATM   12  C12 UNL     1      23.735   5.242  51.565  1.00  0.00    -0.004 C 
HETATM   13  C13 UNL     1      24.018   4.248  50.483  1.00  0.00     0.128 C 
HETATM   14  C14 UNL     1      22.840   4.218  49.607  1.00  0.00     0.274 C 
HETATM   15  H3  UNL     1      25.828   2.605  48.758  1.00  0.00     0.163 HD
ENDROOT
BRANCH   4  16
HETATM   16  N2  UNL     1      25.789   3.232  51.846  1.00  0.00     0.140 N 
HETATM   17  H4  UNL     1      26.455   3.942  51.479  1.00  0.00     0.322 HD
BRANCH  16  18
HETATM   18  C4  UNL     1      26.518   2.078  52.204  1.00  0.00     0.302 C 
BRANCH  18  19
HETATM   19  C5  UNL     1      26.512   1.629  53.584  1.00  0.00    -0.000 C 
HETATM   20  C6  UNL     1      27.027   0.435  53.955  1.00  0.00    -0.018 C 
BRANCH  20  21
HETATM   21  C7  UNL     1      27.688  -0.690  53.245  1.00  0.00     0.112 C 
HETATM   22 BR1  UNL     1      29.594  -0.600  53.654  1.00  0.00    -0.092 Br
ENDBRANCH  20  21
ENDBRANCH  18  19
ENDBRANCH  16  18
ENDBRANCH   4  16
BRANCH  14  23
HETATM   23  N5  UNL     1      23.172   4.797  48.303  1.00  0.00     0.087 N 
HETATM   24  H17 UNL     1      23.259   5.823  48.362  1.00  0.00     0.313 HD
HETATM   25  H18 UNL     1      22.414   4.475  47.661  1.00  0.00     0.313 HD
ENDBRANCH  14  23
TORSDOF 5
ENDMDL
MODEL 7
REMARK VINA RESULT:      -5.8      2.853      5.536
REMARK  5 active torsions:
REMARK  status: ('A' for Active; 'I' for Inactive)
REMARK    1  A    between atoms: C3_4  and  N2_5 
REMARK    2  A    between atoms: N2_5  and  C4_6 
REMARK    3  A    between atoms: C4_6  and  C5_7 
REMARK    4  A    between atoms: C6_8  and  C7_9 
REMARK    5  A    between atoms: C14_20  and  N5_21 
ROOT
HETATM    1  C1  UNL     1      22.585  -1.365  53.068  1.00  0.00     0.039 C 
HETATM    2  C2  UNL     1      22.506  -0.033  53.030  1.00  0.00     0.020 C 
HETATM    3  N1  UNL     1      23.200   1.007  53.704  1.00  0.00    -0.339 N 
HETATM    4  C3  UNL     1      23.006   1.789  52.480  1.00  0.00     0.347 C 
HETATM    5  N3  UNL     1      22.924   3.180  52.667  1.00  0.00    -0.221 NA
HETATM    6  C8  UNL     1      22.460   4.018  51.834  1.00  0.00     0.228 C 
HETATM    7  N4  UNL     1      22.023   3.302  50.660  1.00  0.00    -0.247 NA
HETATM    8  C9  UNL     1      20.782   2.885  50.766  1.00  0.00     0.296 C 
HETATM    9  O1  UNL     1      19.477   2.614  51.226  1.00  0.00    -0.349 OA
HETATM   10  C10 UNL     1      19.423   1.372  52.015  1.00  0.00     0.181 C 
HETATM   11  C11 UNL     1      19.966   0.348  51.094  1.00  0.00     0.004 C 
HETATM   12  C12 UNL     1      21.283   0.643  50.985  1.00  0.00    -0.004 C 
HETATM   13  C13 UNL     1      21.733   1.087  52.341  1.00  0.00     0.128 C 
HETATM   14  C14 UNL     1      20.534   1.502  53.079  1.00  0.00     0.274 C 
HETATM   15  H3  UNL     1      23.650   1.166  54.637  1.00  0.00     0.163 HD
ENDROOT
BRANCH   4  16
HETATM   16  N2  UNL     1      24.029   1.362  51.515  1.00  0.00     0.140 N 
HETATM   17  H4  UNL     1      24.057   0.323  51.564  1.00  0.00     0.322 HD
BRANCH  16  18
HETATM   18  C4  UNL     1      25.329   1.855  51.751  1.00  0.00     0.302 C 
BRANCH  18  19
HETATM   19  C5  UNL     1      26.477   1.032  51.415  1.00  0.00    -0.000 C 
HETATM   20  C6  UNL     1      26.789  -0.086  52.108  1.00  0.00    -0.018 C 
BRANCH  20  21
HETATM   21  C7  UNL     1      26.202  -0.800  53.270  1.00  0.00     0.112 C 
HETATM   22 BR1  UNL     1      26.643   0.228  54.870  1.00  0.00    -0.092 Br
ENDBRANCH  20  21
ENDBRANCH  18  19
ENDBRANCH  16  18
ENDBRANCH   4  16
BRANCH  14  23
HETATM   23  N5  UNL     1      20.262   0.556  54.164  1.00  0.00     0.087 N 
HETATM   24  H17 UNL     1      19.251   0.394  54.273  1.00  0.00     0.313 HD
HETATM   25  H18 UNL     1      20.716   0.972  55.008  1.00  0.00     0.313 HD
ENDBRANCH  14  23
TORSDOF 5
ENDMDL
MODEL 8
REMARK VINA RESULT:      -5.7      4.524      5.925
REMARK  5 active torsions:
REMARK  status: ('A' for Active; 'I' for Inactive)
REMARK    1  A    between atoms: C3_4  and  N2_5 
REMARK    2  A    between atoms: N2_5  and  C4_6 
REMARK    3  A    between atoms: C4_6  and  C5_7 
REMARK    4  A    between atoms: C6_8  and  C7_9 
REMARK    5  A    between atoms: C14_20  and  N5_21 
ROOT
HETATM    1  C1  UNL     1      26.476   3.127  49.845  1.00  0.00     0.039 C 
HETATM    2  C2  UNL     1      25.514   3.874  50.392  1.00  0.00     0.020 C 
HETATM    3  N1  UNL     1      25.419   5.250  50.734  1.00  0.00    -0.339 N 
HETATM    4  C3  UNL     1      23.994   5.124  50.417  1.00  0.00     0.347 C 
HETATM    5  N3  UNL     1      23.145   5.991  51.127  1.00  0.00    -0.221 NA
HETATM    6  C8  UNL     1      21.889   5.863  51.258  1.00  0.00     0.228 C 
HETATM    7  N4  UNL     1      21.476   4.672  50.556  1.00  0.00    -0.247 NA
HETATM    8  C9  UNL     1      21.552   3.600  51.311  1.00  0.00     0.296 C 
HETATM    9  O1  UNL     1      21.757   2.708  52.385  1.00  0.00    -0.349 OA
HETATM   10  C10 UNL     1      23.144   2.214  52.426  1.00  0.00     0.181 C 
HETATM   11  C11 UNL     1      23.340   1.608  51.089  1.00  0.00     0.004 C 
HETATM   12  C12 UNL     1      23.362   2.657  50.233  1.00  0.00    -0.004 C 
HETATM   13  C13 UNL     1      24.091   3.761  50.932  1.00  0.00     0.128 C 
HETATM   14  C14 UNL     1      24.039   3.469  52.370  1.00  0.00     0.274 C 
HETATM   15  H3  UNL     1      26.054   6.016  51.062  1.00  0.00     0.163 HD
ENDROOT
BRANCH   4  16
HETATM   16  N2  UNL     1      23.858   5.198  48.955  1.00  0.00     0.140 N 
HETATM   17  H4  UNL     1      24.761   4.861  48.563  1.00  0.00     0.322 HD
BRANCH  16  18
HETATM   18  C4  UNL     1      23.597   6.483  48.435  1.00  0.00     0.302 C 
BRANCH  18  19
HETATM   19  C5  UNL     1      24.637   7.181  47.702  1.00  0.00    -0.000 C 
HETATM   20  C6  UNL     1      25.344   8.198  48.246  1.00  0.00    -0.018 C 
BRANCH  20  21
HETATM   21  C7  UNL     1      25.350   8.885  49.563  1.00  0.00     0.112 C 
HETATM   22 BR1  UNL     1      27.216   9.138  50.080  1.00  0.00    -0.092 Br
ENDBRANCH  20  21
ENDBRANCH  18  19
ENDBRANCH  16  18
ENDBRANCH   4  16
BRANCH  14  23
HETATM   23  N5  UNL     1      25.376   3.119  52.857  1.00  0.00     0.087 N 
HETATM   24  H17 UNL     1      25.566   2.114  52.734  1.00  0.00     0.313 HD
HETATM   25  H18 UNL     1      25.393   3.433  53.854  1.00  0.00     0.313 HD
ENDBRANCH  14  23
TORSDOF 5
ENDMDL
MODEL 9
REMARK VINA RESULT:      -5.5      8.743     11.364
REMARK  5 active torsions:
REMARK  status: ('A' for Active; 'I' for Inactive)
REMARK    1  A    between atoms: C3_4  and  N2_5 
REMARK    2  A    between atoms: N2_5  and  C4_6 
REMARK    3  A    between atoms: C4_6  and  C5_7 
REMARK    4  A    between atoms: C6_8  and  C7_9 
REMARK    5  A    between atoms: C14_20  and  N5_21 
ROOT
HETATM    1  C1  UNL     1      28.836   5.352  48.174  1.00  0.00     0.039 C 
HETATM    2  C2  UNL     1      29.285   6.586  48.414  1.00  0.00     0.020 C 
HETATM    3  N1  UNL     1      30.288   7.113  49.272  1.00  0.00    -0.339 N 
HETATM    4  C3  UNL     1      30.487   8.134  48.239  1.00  0.00     0.347 C 
HETATM    5  N3  UNL     1      30.942   9.378  48.711  1.00  0.00    -0.221 NA
HETATM    6  C8  UNL     1      30.892  10.478  48.080  1.00  0.00     0.228 C 
HETATM    7  N4  UNL     1      30.283  10.240  46.794  1.00  0.00    -0.247 NA
HETATM    8  C9  UNL     1      28.973  10.334  46.840  1.00  0.00     0.296 C 
HETATM    9  O1  UNL     1      27.640  10.512  47.265  1.00  0.00    -0.349 OA
HETATM   10  C10 UNL     1      27.060   9.262  47.782  1.00  0.00     0.181 C 
HETATM   11  C11 UNL     1      27.215   8.311  46.657  1.00  0.00     0.004 C 
HETATM   12  C12 UNL     1      28.547   8.080  46.580  1.00  0.00    -0.004 C 
HETATM   13  C13 UNL     1      29.052   8.033  47.988  1.00  0.00     0.128 C 
HETATM   14  C14 UNL     1      28.067   8.730  48.823  1.00  0.00     0.274 C 
HETATM   15  H3  UNL     1      30.706   6.894  50.206  1.00  0.00     0.163 HD
ENDROOT
BRANCH   4  16
HETATM   16  N2  UNL     1      31.319   7.540  47.184  1.00  0.00     0.140 N 
HETATM   17  H4  UNL     1      30.922   6.595  47.001  1.00  0.00     0.322 HD
BRANCH  16  18
HETATM   18  C4  UNL     1      32.687   7.397  47.497  1.00  0.00     0.302 C 
BRANCH  18  19
HETATM   19  C5  UNL     1      33.493   6.443  46.757  1.00  0.00    -0.000 C 
HETATM   20  C6  UNL     1      33.335   5.108  46.894  1.00  0.00    -0.018 C 
BRANCH  20  21
HETATM   21  C7  UNL     1      32.444   4.232  47.697  1.00  0.00     0.112 C 
HETATM   22 BR1  UNL     1      33.175   2.423  47.616  1.00  0.00    -0.092 Br
ENDBRANCH  20  21
ENDBRANCH  18  19
ENDBRANCH  16  18
ENDBRANCH   4  16
BRANCH  14  23
HETATM   23  N5  UNL     1      27.384   7.772  49.696  1.00  0.00     0.087 N 
HETATM   24  H17 UNL     1      27.516   6.805  49.365  1.00  0.00     0.313 HD
HETATM   25  H18 UNL     1      26.385   8.080  49.710  1.00  0.00     0.313 HD
ENDBRANCH  14  23
TORSDOF 5
ENDMDL
