MODEL 1
REMARK VINA RESULT:      -8.5      0.000      0.000
REMARK  7 active torsions:
REMARK  status: ('A' for Active; 'I' for Inactive)
REMARK    1  A    between atoms: N1_2  and  C3_4 
REMARK    2  A    between atoms: C3_4  and  C4_5 
REMARK    3  A    between atoms: C4_5  and  C5_6 
REMARK    4  A    between atoms: C5_6  and  C6_7 
REMARK       I    between atoms: C6_7  and  N2_9 
REMARK    5  A    between atoms: N2_9  and  C7_10 
REMARK    6  A    between atoms: C14_19  and  N5_20 
REMARK    7  A    between atoms: N5_20  and  C15_21 
ROOT
HETATM    1  C7  UNL     1      22.530   0.952  51.861  1.00  0.00     0.035 A 
HETATM    2  C8  UNL     1      23.006   0.252  52.947  1.00  0.00     0.030 A 
HETATM    3  C9  UNL     1      24.312   0.312  53.362  1.00  0.00     0.016 A 
HETATM    4  C10 UNL     1      25.244   1.087  52.708  1.00  0.00     0.000 A 
HETATM    5  C11 UNL     1      26.557   1.148  53.123  1.00  0.00     0.073 A 
HETATM    6  C12 UNL     1      26.978   0.390  54.266  1.00  0.00     0.102 C 
HETATM    7  N3  UNL     1      27.329  -0.237  55.185  1.00  0.00    -0.191 NA
HETATM    8  C13 UNL     1      27.412   1.954  52.400  1.00  0.00     0.142 A 
HETATM    9  N4  UNL     1      27.011   2.665  51.327  1.00  0.00    -0.241 NA
HETATM   10  C14 UNL     1      25.722   2.592  50.937  1.00  0.00     0.139 A 
HETATM   11  C21 UNL     1      24.812   1.807  51.613  1.00  0.00     0.024 A 
HETATM   12  C22 UNL     1      23.489   1.704  51.247  1.00  0.00     0.045 A 
ENDROOT
BRANCH  10  13
HETATM   13  N5  UNL     1      25.239   3.330  49.795  1.00  0.00    -0.340 N 
HETATM   14  H17 UNL     1      24.691   2.952  49.013  1.00  0.00     0.167 HD
BRANCH  13  15
HETATM   15  C15 UNL     1      25.557   4.736  49.752  1.00  0.00     0.035 A 
HETATM   16  C16 UNL     1      24.894   5.658  50.531  1.00  0.00     0.029 A 
HETATM   17  C17 UNL     1      25.126   7.002  50.556  1.00  0.00     0.004 A 
HETATM   18  C18 UNL     1      26.130   7.478  49.712  1.00  0.00     0.019 A 
HETATM   19  C19 UNL     1      26.839   6.594  48.896  1.00  0.00     0.013 A 
HETATM   20 BR1  UNL     1      28.226   7.122  47.707  1.00  0.00    -0.051 Br
HETATM   21  C20 UNL     1      26.549   5.236  48.922  1.00  0.00     0.048 A 
ENDBRANCH  13  15
ENDBRANCH  10  13
BRANCH   1  22
HETATM   22  N2  UNL     1      21.172   0.842  51.490  1.00  0.00    -0.327 N 
HETATM   23  C6  UNL     1      20.033   1.516  51.990  1.00  0.00     0.222 C 
HETATM   24  O1  UNL     1      20.220   2.345  52.904  1.00  0.00    -0.273 OA
HETATM   25  H13 UNL     1      20.966   0.145  50.713  1.00  0.00     0.169 HD
BRANCH  23  26
HETATM   26  C5  UNL     1      18.713   1.191  51.399  1.00  0.00     0.105 C 
BRANCH  26  27
HETATM   27  C4  UNL     1      18.268  -0.210  51.571  1.00  0.00     0.039 C 
BRANCH  27  28
HETATM   28  C3  UNL     1      18.498  -0.674  52.980  1.00  0.00     0.271 C 
BRANCH  28  29
HETATM   29  N1  UNL     1      17.314  -1.430  53.383  1.00  0.00     0.080 N 
HETATM   30  C1  UNL     1      16.311  -1.265  52.378  1.00  0.00     0.309 C 
HETATM   31  C2  UNL     1      17.727  -2.804  53.568  1.00  0.00     0.309 C 
ENDBRANCH  28  29
ENDBRANCH  27  28
ENDBRANCH  26  27
ENDBRANCH  23  26
ENDBRANCH   1  22
TORSDOF 7
ENDMDL
MODEL 2
REMARK VINA RESULT:      -8.4      1.677      2.451
REMARK  7 active torsions:
REMARK  status: ('A' for Active; 'I' for Inactive)
REMARK    1  A    between atoms: N1_2  and  C3_4 
REMARK    2  A    between atoms: C3_4  and  C4_5 
REMARK    3  A    between atoms: C4_5  and  C5_6 
REMARK    4  A    between atoms: C5_6  and  C6_7 
REMARK       I    between atoms: C6_7  and  N2_9 
REMARK    5  A    between atoms: N2_9  and  C7_10 
REMARK    6  A    between atoms: C14_19  and  N5_20 
REMARK    7  A    between atoms: N5_20  and  C15_21 
ROOT
HETATM    1  C7  UNL     1      23.010   0.333  52.548  1.00  0.00     0.035 A 
HETATM    2  C8  UNL     1      23.700  -0.329  53.539  1.00  0.00     0.030 A 
HETATM    3  C9  UNL     1      25.026  -0.103  53.808  1.00  0.00     0.016 A 
HETATM    4  C10 UNL     1      25.763   0.815  53.092  1.00  0.00     0.000 A 
HETATM    5  C11 UNL     1      27.095   1.044  53.360  1.00  0.00     0.073 A 
HETATM    6  C12 UNL     1      27.745   0.315  54.412  1.00  0.00     0.102 C 
HETATM    7  N3  UNL     1      28.282  -0.287  55.254  1.00  0.00    -0.191 NA
HETATM    8  C13 UNL     1      27.744   1.984  52.586  1.00  0.00     0.142 A 
HETATM    9  N4  UNL     1      27.128   2.667  51.600  1.00  0.00    -0.241 NA
HETATM   10  C14 UNL     1      25.824   2.428  51.353  1.00  0.00     0.139 A 
HETATM   11  C21 UNL     1      25.113   1.503  52.088  1.00  0.00     0.024 A 
HETATM   12  C22 UNL     1      23.781   1.230  51.868  1.00  0.00     0.045 A 
ENDROOT
BRANCH  10  13
HETATM   13  N5  UNL     1      25.116   3.129  50.309  1.00  0.00    -0.340 N 
HETATM   14  H17 UNL     1      24.222   2.850  49.886  1.00  0.00     0.167 HD
BRANCH  13  15
HETATM   15  C15 UNL     1      25.724   4.340  49.815  1.00  0.00     0.035 A 
HETATM   16  C16 UNL     1      26.859   4.320  49.035  1.00  0.00     0.029 A 
HETATM   17  C17 UNL     1      27.501   5.409  48.525  1.00  0.00     0.004 A 
HETATM   18  C18 UNL     1      26.951   6.656  48.827  1.00  0.00     0.019 A 
HETATM   19  C19 UNL     1      25.801   6.744  49.614  1.00  0.00     0.013 A 
HETATM   20 BR1  UNL     1      24.960   8.382  50.090  1.00  0.00    -0.051 Br
HETATM   21  C20 UNL     1      25.198   5.590  50.100  1.00  0.00     0.048 A 
ENDBRANCH  13  15
ENDBRANCH  10  13
BRANCH   1  22
HETATM   22  N2  UNL     1      21.646   0.048  52.326  1.00  0.00    -0.327 N 
HETATM   23  C6  UNL     1      20.545   0.116  53.211  1.00  0.00     0.222 C 
HETATM   24  O1  UNL     1      20.779   0.482  54.381  1.00  0.00    -0.273 OA
HETATM   25  H13 UNL     1      21.400  -0.269  51.340  1.00  0.00     0.169 HD
BRANCH  23  26
HETATM   26  C5  UNL     1      19.206  -0.249  52.691  1.00  0.00     0.105 C 
BRANCH  26  27
HETATM   27  C4  UNL     1      18.898   0.244  51.330  1.00  0.00     0.039 C 
BRANCH  27  28
HETATM   28  C3  UNL     1      18.104   1.517  51.391  1.00  0.00     0.271 C 
BRANCH  28  29
HETATM   29  N1  UNL     1      18.863   2.533  50.665  1.00  0.00     0.080 N 
HETATM   30  C1  UNL     1      19.570   3.332  51.617  1.00  0.00     0.309 C 
HETATM   31  C2  UNL     1      19.727   1.840  49.736  1.00  0.00     0.309 C 
ENDBRANCH  28  29
ENDBRANCH  27  28
ENDBRANCH  26  27
ENDBRANCH  23  26
ENDBRANCH   1  22
TORSDOF 7
ENDMDL
MODEL 3
REMARK VINA RESULT:      -8.2      3.679      8.988
REMARK  7 active torsions:
REMARK  status: ('A' for Active; 'I' for Inactive)
REMARK    1  A    between atoms: N1_2  and  C3_4 
REMARK    2  A    between atoms: C3_4  and  C4_5 
REMARK    3  A    between atoms: C4_5  and  C5_6 
REMARK    4  A    between atoms: C5_6  and  C6_7 
REMARK       I    between atoms: C6_7  and  N2_9 
REMARK    5  A    between atoms: N2_9  and  C7_10 
REMARK    6  A    between atoms: C14_19  and  N5_20 
REMARK    7  A    between atoms: N5_20  and  C15_21 
ROOT
HETATM    1  C7  UNL     1      25.721   3.920  49.652  1.00  0.00     0.035 A 
HETATM    2  C8  UNL     1      24.612   3.600  48.900  1.00  0.00     0.030 A 
HETATM    3  C9  UNL     1      23.559   2.872  49.393  1.00  0.00     0.016 A 
HETATM    4  C10 UNL     1      23.543   2.408  50.690  1.00  0.00     0.000 A 
HETATM    5  C11 UNL     1      22.486   1.677  51.187  1.00  0.00     0.073 A 
HETATM    6  C12 UNL     1      21.364   1.385  50.342  1.00  0.00     0.102 C 
HETATM    7  N3  UNL     1      20.456   1.129  49.654  1.00  0.00    -0.191 NA
HETATM    8  C13 UNL     1      22.567   1.259  52.499  1.00  0.00     0.142 A 
HETATM    9  N4  UNL     1      23.624   1.538  53.289  1.00  0.00    -0.241 NA
HETATM   10  C14 UNL     1      24.649   2.255  52.784  1.00  0.00     0.139 A 
HETATM   11  C21 UNL     1      24.634   2.706  51.481  1.00  0.00     0.024 A 
HETATM   12  C22 UNL     1      25.659   3.440  50.927  1.00  0.00     0.045 A 
ENDROOT
BRANCH  10  13
HETATM   13  N5  UNL     1      25.804   2.581  53.584  1.00  0.00    -0.340 N 
HETATM   14  H17 UNL     1      25.922   3.413  54.174  1.00  0.00     0.167 HD
BRANCH  13  15
HETATM   15  C15 UNL     1      26.900   1.644  53.549  1.00  0.00     0.035 A 
HETATM   16  C16 UNL     1      28.185   2.010  53.885  1.00  0.00     0.029 A 
HETATM   17  C17 UNL     1      29.278   1.196  53.881  1.00  0.00     0.004 A 
HETATM   18  C18 UNL     1      29.068  -0.130  53.500  1.00  0.00     0.019 A 
HETATM   19  C19 UNL     1      27.789  -0.565  53.147  1.00  0.00     0.013 A 
HETATM   20 BR1  UNL     1      27.378  -2.343  52.613  1.00  0.00    -0.051 Br
HETATM   21  C20 UNL     1      26.719   0.321  53.174  1.00  0.00     0.048 A 
ENDBRANCH  13  15
ENDBRANCH  10  13
BRANCH   1  22
HETATM   22  N2  UNL     1      26.769   4.672  49.078  1.00  0.00    -0.327 N 
HETATM   23  C6  UNL     1      26.839   6.050  48.769  1.00  0.00     0.222 C 
HETATM   24  O1  UNL     1      25.833   6.741  49.030  1.00  0.00    -0.273 OA
HETATM   25  H13 UNL     1      27.647   4.121  48.838  1.00  0.00     0.169 HD
BRANCH  23  26
HETATM   26  C5  UNL     1      28.088   6.568  48.162  1.00  0.00     0.105 C 
BRANCH  26  27
HETATM   27  C4  UNL     1      29.212   5.607  48.106  1.00  0.00     0.039 C 
BRANCH  27  28
HETATM   28  C3  UNL     1      30.520   6.326  47.940  1.00  0.00     0.271 C 
BRANCH  28  29
HETATM   29  N1  UNL     1      31.554   5.482  48.536  1.00  0.00     0.080 N 
HETATM   30  C1  UNL     1      32.642   5.384  47.614  1.00  0.00     0.309 C 
HETATM   31  C2  UNL     1      31.919   6.080  49.801  1.00  0.00     0.309 C 
ENDBRANCH  28  29
ENDBRANCH  27  28
ENDBRANCH  26  27
ENDBRANCH  23  26
ENDBRANCH   1  22
TORSDOF 7
ENDMDL
MODEL 4
REMARK VINA RESULT:      -8.0      1.892      3.102
REMARK  7 active torsions:
REMARK  status: ('A' for Active; 'I' for Inactive)
REMARK    1  A    between atoms: N1_2  and  C3_4 
REMARK    2  A    between atoms: C3_4  and  C4_5 
REMARK    3  A    between atoms: C4_5  and  C5_6 
REMARK    4  A    between atoms: C5_6  and  C6_7 
REMARK       I    between atoms: C6_7  and  N2_9 
REMARK    5  A    between atoms: N2_9  and  C7_10 
REMARK    6  A    between atoms: C14_19  and  N5_20 
REMARK    7  A    between atoms: N5_20  and  C15_21 
ROOT
HETATM    1  C7  UNL     1      22.443   1.314  51.780  1.00  0.00     0.035 A 
HETATM    2  C8  UNL     1      22.867   0.605  52.883  1.00  0.00     0.030 A 
HETATM    3  C9  UNL     1      24.171   0.592  53.308  1.00  0.00     0.016 A 
HETATM    4  C10 UNL     1      25.154   1.299  52.651  1.00  0.00     0.000 A 
HETATM    5  C11 UNL     1      26.464   1.287  53.077  1.00  0.00     0.073 A 
HETATM    6  C12 UNL     1      26.828   0.524  54.237  1.00  0.00     0.102 C 
HETATM    7  N3  UNL     1      27.133  -0.108  55.169  1.00  0.00    -0.191 NA
HETATM    8  C13 UNL     1      27.373   2.028  52.350  1.00  0.00     0.142 A 
HETATM    9  N4  UNL     1      27.024   2.744  51.262  1.00  0.00    -0.241 NA
HETATM   10  C14 UNL     1      25.737   2.742  50.860  1.00  0.00     0.139 A 
HETATM   11  C21 UNL     1      24.776   2.025  51.540  1.00  0.00     0.024 A 
HETATM   12  C22 UNL     1      23.451   1.996  51.164  1.00  0.00     0.045 A 
ENDROOT
BRANCH  10  13
HETATM   13  N5  UNL     1      25.309   3.489  49.703  1.00  0.00    -0.340 N 
HETATM   14  H17 UNL     1      24.526   3.254  49.081  1.00  0.00     0.167 HD
BRANCH  13  15
HETATM   15  C15 UNL     1      26.055   4.684  49.391  1.00  0.00     0.035 A 
HETATM   16  C16 UNL     1      27.287   4.634  48.777  1.00  0.00     0.029 A 
HETATM   17  C17 UNL     1      28.062   5.706  48.446  1.00  0.00     0.004 A 
HETATM   18  C18 UNL     1      27.552   6.967  48.762  1.00  0.00     0.019 A 
HETATM   19  C19 UNL     1      26.309   7.084  49.386  1.00  0.00     0.013 A 
HETATM   20 BR1  UNL     1      25.511   8.742  49.865  1.00  0.00    -0.051 Br
HETATM   21  C20 UNL     1      25.573   5.947  49.695  1.00  0.00     0.048 A 
ENDBRANCH  13  15
ENDBRANCH  10  13
BRANCH   1  22
HETATM   22  N2  UNL     1      21.085   1.281  51.398  1.00  0.00    -0.327 N 
HETATM   23  C6  UNL     1      19.986   2.037  51.870  1.00  0.00     0.222 C 
HETATM   24  O1  UNL     1      20.217   2.875  52.765  1.00  0.00    -0.273 OA
HETATM   25  H13 UNL     1      20.842   0.578  50.638  1.00  0.00     0.169 HD
BRANCH  23  26
HETATM   26  C5  UNL     1      18.654   1.781  51.274  1.00  0.00     0.105 C 
BRANCH  26  27
HETATM   27  C4  UNL     1      18.616   1.746  49.795  1.00  0.00     0.039 C 
BRANCH  27  28
HETATM   28  C3  UNL     1      18.540   3.135  49.231  1.00  0.00     0.271 C 
BRANCH  28  29
HETATM   29  N1  UNL     1      19.609   3.258  48.241  1.00  0.00     0.080 N 
HETATM   30  C1  UNL     1      19.016   3.310  46.942  1.00  0.00     0.309 C 
HETATM   31  C2  UNL     1      20.370   4.440  48.578  1.00  0.00     0.309 C 
ENDBRANCH  28  29
ENDBRANCH  27  28
ENDBRANCH  26  27
ENDBRANCH  23  26
ENDBRANCH   1  22
TORSDOF 7
ENDMDL
MODEL 5
REMARK VINA RESULT:      -8.0      4.624      7.673
REMARK  7 active torsions:
REMARK  status: ('A' for Active; 'I' for Inactive)
REMARK    1  A    between atoms: N1_2  and  C3_4 
REMARK    2  A    between atoms: C3_4  and  C4_5 
REMARK    3  A    between atoms: C4_5  and  C5_6 
REMARK    4  A    between atoms: C5_6  and  C6_7 
REMARK       I    between atoms: C6_7  and  N2_9 
REMARK    5  A    between atoms: N2_9  and  C7_10 
REMARK    6  A    between atoms: C14_19  and  N5_20 
REMARK    7  A    between atoms: N5_20  and  C15_21 
ROOT
HETATM    1  C7  UNL     1      26.104   4.047  50.062  1.00  0.00     0.035 A 
HETATM    2  C8  UNL     1      27.075   4.185  49.095  1.00  0.00     0.030 A 
HETATM    3  C9  UNL     1      27.377   5.385  48.504  1.00  0.00     0.016 A 
HETATM    4  C10 UNL     1      26.719   6.546  48.845  1.00  0.00     0.000 A 
HETATM    5  C11 UNL     1      27.022   7.753  48.252  1.00  0.00     0.073 A 
HETATM    6  C12 UNL     1      28.049   7.817  47.252  1.00  0.00     0.102 C 
HETATM    7  N3  UNL     1      28.871   7.871  46.426  1.00  0.00    -0.191 NA
HETATM    8  C13 UNL     1      26.305   8.858  48.664  1.00  0.00     0.142 A 
HETATM    9  N4  UNL     1      25.342   8.792  49.606  1.00  0.00    -0.241 NA
HETATM   10  C14 UNL     1      25.061   7.602  50.174  1.00  0.00     0.139 A 
HETATM   11  C21 UNL     1      25.738   6.457  49.811  1.00  0.00     0.024 A 
HETATM   12  C22 UNL     1      25.482   5.223  50.366  1.00  0.00     0.045 A 
ENDROOT
BRANCH  10  13
HETATM   13  N5  UNL     1      24.039   7.473  51.185  1.00  0.00    -0.340 N 
HETATM   14  H17 UNL     1      24.169   7.574  52.199  1.00  0.00     0.167 HD
BRANCH  13  15
HETATM   15  C15 UNL     1      22.706   7.175  50.722  1.00  0.00     0.035 A 
HETATM   16  C16 UNL     1      21.998   8.048  49.926  1.00  0.00     0.029 A 
HETATM   17  C17 UNL     1      20.738   7.852  49.444  1.00  0.00     0.004 A 
HETATM   18  C18 UNL     1      20.115   6.653  49.794  1.00  0.00     0.019 A 
HETATM   19  C19 UNL     1      20.779   5.726  50.599  1.00  0.00     0.013 A 
HETATM   20 BR1  UNL     1      20.036   4.061  51.141  1.00  0.00    -0.051 Br
HETATM   21  C20 UNL     1      22.064   5.992  51.056  1.00  0.00     0.048 A 
ENDBRANCH  13  15
ENDBRANCH  10  13
BRANCH   1  22
HETATM   22  N2  UNL     1      25.844   2.780  50.627  1.00  0.00    -0.327 N 
HETATM   23  C6  UNL     1      26.595   2.027  51.561  1.00  0.00     0.222 C 
HETATM   24  O1  UNL     1      27.659   2.532  51.972  1.00  0.00    -0.273 OA
HETATM   25  H13 UNL     1      24.946   2.311  50.303  1.00  0.00     0.169 HD
BRANCH  23  26
HETATM   26  C5  UNL     1      26.068   0.707  51.978  1.00  0.00     0.105 C 
BRANCH  26  27
HETATM   27  C4  UNL     1      27.073  -0.238  52.515  1.00  0.00     0.039 C 
BRANCH  27  28
HETATM   28  C3  UNL     1      27.129  -0.163  54.013  1.00  0.00     0.271 C 
BRANCH  28  29
HETATM   29  N1  UNL     1      28.528  -0.332  54.401  1.00  0.00     0.080 N 
HETATM   30  C1  UNL     1      29.186  -1.099  53.389  1.00  0.00     0.309 C 
HETATM   31  C2  UNL     1      29.086   0.989  54.579  1.00  0.00     0.309 C 
ENDBRANCH  28  29
ENDBRANCH  27  28
ENDBRANCH  26  27
ENDBRANCH  23  26
ENDBRANCH   1  22
TORSDOF 7
ENDMDL
MODEL 6
REMARK VINA RESULT:      -7.9      3.594      7.446
REMARK  7 active torsions:
REMARK  status: ('A' for Active; 'I' for Inactive)
REMARK    1  A    between atoms: N1_2  and  C3_4 
REMARK    2  A    between atoms: C3_4  and  C4_5 
REMARK    3  A    between atoms: C4_5  and  C5_6 
REMARK    4  A    between atoms: C5_6  and  C6_7 
REMARK       I    between atoms: C6_7  and  N2_9 
REMARK    5  A    between atoms: N2_9  and  C7_10 
REMARK    6  A    between atoms: C14_19  and  N5_20 
REMARK    7  A    between atoms: N5_20  and  C15_21 
ROOT
HETATM    1  C7  UNL     1      25.685   3.235  51.010  1.00  0.00     0.035 A 
HETATM    2  C8  UNL     1      26.770   2.395  51.126  1.00  0.00     0.030 A 
HETATM    3  C9  UNL     1      26.712   1.182  51.764  1.00  0.00     0.016 A 
HETATM    4  C10 UNL     1      25.547   0.721  52.338  1.00  0.00     0.000 A 
HETATM    5  C11 UNL     1      25.486  -0.497  52.979  1.00  0.00     0.073 A 
HETATM    6  C12 UNL     1      26.660  -1.319  53.058  1.00  0.00     0.102 C 
HETATM    7  N3  UNL     1      27.616  -1.983  53.141  1.00  0.00    -0.191 NA
HETATM    8  C13 UNL     1      24.273  -0.868  53.520  1.00  0.00     0.142 A 
HETATM    9  N4  UNL     1      23.172  -0.092  53.441  1.00  0.00    -0.241 NA
HETATM   10  C14 UNL     1      23.252   1.097  52.809  1.00  0.00     0.139 A 
HETATM   11  C21 UNL     1      24.433   1.530  52.245  1.00  0.00     0.024 A 
HETATM   12  C22 UNL     1      24.557   2.736  51.592  1.00  0.00     0.045 A 
ENDROOT
BRANCH  10  13
HETATM   13  N5  UNL     1      22.107   1.967  52.697  1.00  0.00    -0.340 N 
HETATM   14  H17 UNL     1      21.979   2.870  53.170  1.00  0.00     0.167 HD
BRANCH  13  15
HETATM   15  C15 UNL     1      21.040   1.524  51.833  1.00  0.00     0.035 A 
HETATM   16  C16 UNL     1      21.029   1.805  50.485  1.00  0.00     0.029 A 
HETATM   17  C17 UNL     1      20.067   1.429  49.595  1.00  0.00     0.004 A 
HETATM   18  C18 UNL     1      18.997   0.692  50.106  1.00  0.00     0.019 A 
HETATM   19  C19 UNL     1      18.949   0.375  51.465  1.00  0.00     0.013 A 
HETATM   20 BR1  UNL     1      17.548  -0.622  52.276  1.00  0.00    -0.051 Br
HETATM   21  C20 UNL     1      19.967   0.791  52.315  1.00  0.00     0.048 A 
ENDBRANCH  13  15
ENDBRANCH  10  13
BRANCH   1  22
HETATM   22  N2  UNL     1      25.818   4.471  50.340  1.00  0.00    -0.327 N 
HETATM   23  C6  UNL     1      26.684   4.848  49.286  1.00  0.00     0.222 C 
HETATM   24  O1  UNL     1      27.466   3.977  48.855  1.00  0.00    -0.273 OA
HETATM   25  H13 UNL     1      25.170   5.245  50.677  1.00  0.00     0.169 HD
BRANCH  23  26
HETATM   26  C5  UNL     1      26.599   6.237  48.776  1.00  0.00     0.105 C 
BRANCH  26  27
HETATM   27  C4  UNL     1      25.593   7.097  49.438  1.00  0.00     0.039 C 
BRANCH  27  28
HETATM   28  C3  UNL     1      24.334   7.170  48.623  1.00  0.00     0.271 C 
BRANCH  28  29
HETATM   29  N1  UNL     1      23.216   7.233  49.563  1.00  0.00     0.080 N 
HETATM   30  C1  UNL     1      22.579   5.954  49.591  1.00  0.00     0.309 C 
HETATM   31  C2  UNL     1      23.754   7.640  50.841  1.00  0.00     0.309 C 
ENDBRANCH  28  29
ENDBRANCH  27  28
ENDBRANCH  26  27
ENDBRANCH  23  26
ENDBRANCH   1  22
TORSDOF 7
ENDMDL
MODEL 7
REMARK VINA RESULT:      -7.8      3.471      8.379
REMARK  7 active torsions:
REMARK  status: ('A' for Active; 'I' for Inactive)
REMARK    1  A    between atoms: N1_2  and  C3_4 
REMARK    2  A    between atoms: C3_4  and  C4_5 
REMARK    3  A    between atoms: C4_5  and  C5_6 
REMARK    4  A    between atoms: C5_6  and  C6_7 
REMARK       I    between atoms: C6_7  and  N2_9 
REMARK    5  A    between atoms: N2_9  and  C7_10 
REMARK    6  A    between atoms: C14_19  and  N5_20 
REMARK    7  A    between atoms: N5_20  and  C15_21 
ROOT
HETATM    1  C7  UNL     1      25.465   3.217  51.134  1.00  0.00     0.035 A 
HETATM    2  C8  UNL     1      26.584   2.416  51.192  1.00  0.00     0.030 A 
HETATM    3  C9  UNL     1      26.594   1.189  51.807  1.00  0.00     0.016 A 
HETATM    4  C10 UNL     1      25.469   0.675  52.414  1.00  0.00     0.000 A 
HETATM    5  C11 UNL     1      25.477  -0.557  53.033  1.00  0.00     0.073 A 
HETATM    6  C12 UNL     1      26.682  -1.336  53.051  1.00  0.00     0.102 C 
HETATM    7  N3  UNL     1      27.664  -1.966  53.083  1.00  0.00    -0.191 NA
HETATM    8  C13 UNL     1      24.300  -0.982  53.611  1.00  0.00     0.142 A 
HETATM    9  N4  UNL     1      23.170  -0.246  53.590  1.00  0.00    -0.241 NA
HETATM   10  C14 UNL     1      23.182   0.956  52.980  1.00  0.00     0.139 A 
HETATM   11  C21 UNL     1      24.324   1.444  52.380  1.00  0.00     0.024 A 
HETATM   12  C22 UNL     1      24.379   2.666  51.748  1.00  0.00     0.045 A 
ENDROOT
BRANCH  10  13
HETATM   13  N5  UNL     1      22.003   1.786  52.928  1.00  0.00    -0.340 N 
HETATM   14  H17 UNL     1      21.879   2.698  53.385  1.00  0.00     0.167 HD
BRANCH  13  15
HETATM   15  C15 UNL     1      20.891   1.283  52.158  1.00  0.00     0.035 A 
HETATM   16  C16 UNL     1      20.732   1.586  50.824  1.00  0.00     0.029 A 
HETATM   17  C17 UNL     1      19.718   1.158  50.020  1.00  0.00     0.004 A 
HETATM   18  C18 UNL     1      18.755   0.338  50.611  1.00  0.00     0.019 A 
HETATM   19  C19 UNL     1      18.860  -0.005  51.961  1.00  0.00     0.013 A 
HETATM   20 BR1  UNL     1      17.615  -1.113  52.876  1.00  0.00    -0.051 Br
HETATM   21  C20 UNL     1      19.922   0.467  52.721  1.00  0.00     0.048 A 
ENDBRANCH  13  15
ENDBRANCH  10  13
BRANCH   1  22
HETATM   22  N2  UNL     1      25.528   4.470  50.485  1.00  0.00    -0.327 N 
HETATM   23  C6  UNL     1      24.871   4.926  49.318  1.00  0.00     0.222 C 
HETATM   24  O1  UNL     1      24.108   4.121  48.746  1.00  0.00    -0.273 OA
HETATM   25  H13 UNL     1      26.168   5.187  50.939  1.00  0.00     0.169 HD
BRANCH  23  26
HETATM   26  C5  UNL     1      25.133   6.311  48.864  1.00  0.00     0.105 C 
BRANCH  26  27
HETATM   27  C4  UNL     1      26.545   6.749  48.946  1.00  0.00     0.039 C 
BRANCH  27  28
HETATM   28  C3  UNL     1      26.750   8.029  48.188  1.00  0.00     0.271 C 
BRANCH  28  29
HETATM   29  N1  UNL     1      27.827   8.757  48.857  1.00  0.00     0.080 N 
HETATM   30  C1  UNL     1      28.211   9.856  48.028  1.00  0.00     0.309 C 
HETATM   31  C2  UNL     1      27.330   9.158  50.155  1.00  0.00     0.309 C 
ENDBRANCH  28  29
ENDBRANCH  27  28
ENDBRANCH  26  27
ENDBRANCH  23  26
ENDBRANCH   1  22
TORSDOF 7
ENDMDL
MODEL 8
REMARK VINA RESULT:      -7.4      4.384      9.603
REMARK  7 active torsions:
REMARK  status: ('A' for Active; 'I' for Inactive)
REMARK    1  A    between atoms: N1_2  and  C3_4 
REMARK    2  A    between atoms: C3_4  and  C4_5 
REMARK    3  A    between atoms: C4_5  and  C5_6 
REMARK    4  A    between atoms: C5_6  and  C6_7 
REMARK       I    between atoms: C6_7  and  N2_9 
REMARK    5  A    between atoms: N2_9  and  C7_10 
REMARK    6  A    between atoms: C14_19  and  N5_20 
REMARK    7  A    between atoms: N5_20  and  C15_21 
ROOT
HETATM    1  C7  UNL     1      25.308   5.827  49.152  1.00  0.00     0.035 A 
HETATM    2  C8  UNL     1      24.292   6.211  48.305  1.00  0.00     0.030 A 
HETATM    3  C9  UNL     1      22.964   6.048  48.607  1.00  0.00     0.016 A 
HETATM    4  C10 UNL     1      22.557   5.480  49.795  1.00  0.00     0.000 A 
HETATM    5  C11 UNL     1      21.223   5.315  50.100  1.00  0.00     0.073 A 
HETATM    6  C12 UNL     1      20.221   5.744  49.166  1.00  0.00     0.102 C 
HETATM    7  N3  UNL     1      19.402   6.074  48.403  1.00  0.00    -0.191 NA
HETATM    8  C13 UNL     1      20.919   4.737  51.315  1.00  0.00     0.142 A 
HETATM    9  N4  UNL     1      21.865   4.338  52.189  1.00  0.00    -0.241 NA
HETATM   10  C14 UNL     1      23.164   4.508  51.872  1.00  0.00     0.139 A 
HETATM   11  C21 UNL     1      23.541   5.080  50.675  1.00  0.00     0.024 A 
HETATM   12  C22 UNL     1      24.855   5.271  50.313  1.00  0.00     0.045 A 
ENDROOT
BRANCH  10  13
HETATM   13  N5  UNL     1      24.218   4.098  52.769  1.00  0.00    -0.340 N 
HETATM   14  H17 UNL     1      24.739   4.704  53.414  1.00  0.00     0.167 HD
BRANCH  13  15
HETATM   15  C15 UNL     1      24.570   2.700  52.757  1.00  0.00     0.035 A 
HETATM   16  C16 UNL     1      25.843   2.271  52.452  1.00  0.00     0.029 A 
HETATM   17  C17 UNL     1      26.265   0.975  52.415  1.00  0.00     0.004 A 
HETATM   18  C18 UNL     1      25.313  -0.001  52.716  1.00  0.00     0.019 A 
HETATM   19  C19 UNL     1      24.005   0.369  53.033  1.00  0.00     0.013 A 
HETATM   20 BR1  UNL     1      22.623  -0.866  53.460  1.00  0.00    -0.051 Br
HETATM   21  C20 UNL     1      23.644   1.711  53.051  1.00  0.00     0.048 A 
ENDBRANCH  13  15
ENDBRANCH  10  13
BRANCH   1  22
HETATM   22  N2  UNL     1      26.654   6.024  48.775  1.00  0.00    -0.327 N 
HETATM   23  C6  UNL     1      27.709   5.090  48.638  1.00  0.00     0.222 C 
HETATM   24  O1  UNL     1      27.443   3.896  48.881  1.00  0.00    -0.273 OA
HETATM   25  H13 UNL     1      26.925   7.030  48.559  1.00  0.00     0.169 HD
BRANCH  23  26
HETATM   26  C5  UNL     1      29.038   5.594  48.221  1.00  0.00     0.105 C 
BRANCH  26  27
HETATM   27  C4  UNL     1      29.038   6.927  47.577  1.00  0.00     0.039 C 
BRANCH  27  28
HETATM   28  C3  UNL     1      30.341   7.634  47.816  1.00  0.00     0.271 C 
BRANCH  28  29
HETATM   29  N1  UNL     1      30.022   9.016  48.171  1.00  0.00     0.080 N 
HETATM   30  C1  UNL     1      28.611   9.112  48.382  1.00  0.00     0.309 C 
HETATM   31  C2  UNL     1      30.805   9.349  49.340  1.00  0.00     0.309 C 
ENDBRANCH  28  29
ENDBRANCH  27  28
ENDBRANCH  26  27
ENDBRANCH  23  26
ENDBRANCH   1  22
TORSDOF 7
ENDMDL
MODEL 9
REMARK VINA RESULT:      -7.3      3.386      5.769
REMARK  7 active torsions:
REMARK  status: ('A' for Active; 'I' for Inactive)
REMARK    1  A    between atoms: N1_2  and  C3_4 
REMARK    2  A    between atoms: C3_4  and  C4_5 
REMARK    3  A    between atoms: C4_5  and  C5_6 
REMARK    4  A    between atoms: C5_6  and  C6_7 
REMARK       I    between atoms: C6_7  and  N2_9 
REMARK    5  A    between atoms: N2_9  and  C7_10 
REMARK    6  A    between atoms: C14_19  and  N5_20 
REMARK    7  A    between atoms: N5_20  and  C15_21 
ROOT
HETATM    1  C7  UNL     1      25.155   3.046  50.809  1.00  0.00     0.035 A 
HETATM    2  C8  UNL     1      26.286   3.087  50.023  1.00  0.00     0.030 A 
HETATM    3  C9  UNL     1      26.749   4.238  49.439  1.00  0.00     0.016 A 
HETATM    4  C10 UNL     1      26.105   5.444  49.604  1.00  0.00     0.000 A 
HETATM    5  C11 UNL     1      26.569   6.602  49.018  1.00  0.00     0.073 A 
HETATM    6  C12 UNL     1      27.757   6.565  48.213  1.00  0.00     0.102 C 
HETATM    7  N3  UNL     1      28.712   6.537  47.543  1.00  0.00    -0.191 NA
HETATM    8  C13 UNL     1      25.851   7.758  49.244  1.00  0.00     0.142 A 
HETATM    9  N4  UNL     1      24.737   7.787  50.003  1.00  0.00    -0.241 NA
HETATM   10  C14 UNL     1      24.298   6.644  50.568  1.00  0.00     0.139 A 
HETATM   11  C21 UNL     1      24.967   5.452  50.385  1.00  0.00     0.024 A 
HETATM   12  C22 UNL     1      24.553   4.263  50.943  1.00  0.00     0.045 A 
ENDROOT
BRANCH  10  13
HETATM   13  N5  UNL     1      23.111   6.617  51.388  1.00  0.00    -0.340 N 
HETATM   14  H17 UNL     1      23.080   6.581  52.414  1.00  0.00     0.167 HD
BRANCH  13  15
HETATM   15  C15 UNL     1      21.846   6.644  50.695  1.00  0.00     0.035 A 
HETATM   16  C16 UNL     1      21.262   7.824  50.290  1.00  0.00     0.029 A 
HETATM   17  C17 UNL     1      20.073   7.946  49.633  1.00  0.00     0.004 A 
HETATM   18  C18 UNL     1      19.393   6.761  49.347  1.00  0.00     0.019 A 
HETATM   19  C19 UNL     1      19.933   5.531  49.731  1.00  0.00     0.013 A 
HETATM   20 BR1  UNL     1      19.103   3.854  49.397  1.00  0.00    -0.051 Br
HETATM   21  C20 UNL     1      21.150   5.482  50.399  1.00  0.00     0.048 A 
ENDBRANCH  13  15
ENDBRANCH  10  13
BRANCH   1  22
HETATM   22  N2  UNL     1      24.734   1.825  51.378  1.00  0.00    -0.327 N 
HETATM   23  C6  UNL     1      24.828   1.360  52.711  1.00  0.00     0.222 C 
HETATM   24  O1  UNL     1      25.361   2.123  53.542  1.00  0.00    -0.273 OA
HETATM   25  H13 UNL     1      24.275   1.142  50.704  1.00  0.00     0.169 HD
BRANCH  23  26
HETATM   26  C5  UNL     1      24.293   0.013  53.020  1.00  0.00     0.105 C 
BRANCH  26  27
HETATM   27  C4  UNL     1      22.929  -0.011  53.594  1.00  0.00     0.039 C 
BRANCH  27  28
HETATM   28  C3  UNL     1      21.894  -0.072  52.508  1.00  0.00     0.271 C 
BRANCH  28  29
HETATM   29  N1  UNL     1      20.838   0.872  52.866  1.00  0.00     0.080 N 
HETATM   30  C1  UNL     1      21.186   2.157  52.345  1.00  0.00     0.309 C 
HETATM   31  C2  UNL     1      19.599   0.349  52.336  1.00  0.00     0.309 C 
ENDBRANCH  28  29
ENDBRANCH  27  28
ENDBRANCH  26  27
ENDBRANCH  23  26
ENDBRANCH   1  22
TORSDOF 7
ENDMDL
