MODEL 1
REMARK VINA RESULT:      -6.5      0.000      0.000
REMARK  10 active torsions:
REMARK  status: ('A' for Active; 'I' for Inactive)
REMARK    1  A    between atoms: C2_2  and  N1_3 
REMARK    2  A    between atoms: N1_3  and  C3_4 
REMARK    3  A    between atoms: C4_5  and  C5_6 
REMARK    4  A    between atoms: C7_8  and  N2_9 
REMARK       I    between atoms: N2_9  and  C8_10 
REMARK    5  A    between atoms: C8_10  and  C9_12 
REMARK    6  A    between atoms: C9_12  and  C10_13 
REMARK    7  A    between atoms: C10_13  and  C11_14 
REMARK    8  A    between atoms: C11_14  and  N3_15 
REMARK    9  A    between atoms: C14_18  and  O2_19 
REMARK   10  A    between atoms: O2_19  and  C15_20 
ROOT
HETATM    1  C5  UNL     1      22.733  -0.958  54.285  1.00  0.00     0.177 A 
HETATM    2  C6  UNL     1      23.567  -0.319  53.254  1.00  0.00     0.042 A 
HETATM    3  C7  UNL     1      24.862  -0.100  53.339  1.00  0.00     0.069 A 
HETATM    4  C14 UNL     1      25.558  -0.498  54.542  1.00  0.00     0.117 A 
HETATM    5  C17 UNL     1      24.831  -1.067  55.497  1.00  0.00     0.175 A 
HETATM    6  O3  UNL     1      23.466  -1.299  55.415  1.00  0.00    -0.347 OA
ENDROOT
BRANCH   3   7
HETATM    7  N2  UNL     1      25.431   0.535  52.208  1.00  0.00    -0.321 N 
HETATM    8  C8  UNL     1      25.528   1.939  52.330  1.00  0.00     0.245 C 
HETATM    9  O1  UNL     1      25.084   2.293  53.444  1.00  0.00    -0.268 OA
HETATM   10  H9  UNL     1      25.757  -0.001  51.344  1.00  0.00     0.169 HD
BRANCH   8  11
HETATM   11  C9  UNL     1      26.079   2.704  51.243  1.00  0.00     0.072 C 
BRANCH  11  12
HETATM   12  C10 UNL     1      26.503   3.219  50.141  1.00  0.00     0.008 C 
BRANCH  12  13
HETATM   13  C11 UNL     1      26.541   4.451  49.322  1.00  0.00     0.299 C 
BRANCH  13  14
HETATM   14  N3  UNL     1      25.517   5.359  49.815  1.00  0.00     0.083 N 
HETATM   15  C12 UNL     1      24.346   5.186  48.937  1.00  0.00     0.309 C 
HETATM   16  C13 UNL     1      26.056   6.703  49.514  1.00  0.00     0.309 C 
ENDBRANCH  13  14
ENDBRANCH  12  13
ENDBRANCH  11  12
ENDBRANCH   8  11
ENDBRANCH   3   7
BRANCH   4  17
HETATM   17  O2  UNL     1      26.912  -0.289  54.671  1.00  0.00    -0.347 OA
BRANCH  17  18
HETATM   18  C15 UNL     1      27.857  -0.771  53.733  1.00  0.00     0.171 C 
HETATM   19  C16 UNL     1      28.933   0.254  53.500  1.00  0.00     0.034 C 
ENDBRANCH  17  18
ENDBRANCH   4  17
BRANCH   1  20
HETATM   20  C4  UNL     1      21.497  -0.166  54.599  1.00  0.00     0.026 C 
HETATM   21  C3  UNL     1      20.652  -1.073  54.071  1.00  0.00     0.081 C 
BRANCH  21  22
HETATM   22  N1  UNL     1      19.227  -1.222  53.891  1.00  0.00    -0.399 N 
HETATM   23  H4  UNL     1      18.826  -0.510  54.574  1.00  0.00     0.158 HD
BRANCH  22  24
HETATM   24  C2  UNL     1      18.063  -1.734  53.351  1.00  0.00     0.061 C 
HETATM   25  C1  UNL     1      17.609  -2.947  53.643  1.00  0.00     0.079 C 
ENDBRANCH  22  24
ENDBRANCH  21  22
ENDBRANCH   1  20
TORSDOF 10
ENDMDL
MODEL 2
REMARK VINA RESULT:      -6.4      1.779      1.995
REMARK  10 active torsions:
REMARK  status: ('A' for Active; 'I' for Inactive)
REMARK    1  A    between atoms: C2_2  and  N1_3 
REMARK    2  A    between atoms: N1_3  and  C3_4 
REMARK    3  A    between atoms: C4_5  and  C5_6 
REMARK    4  A    between atoms: C7_8  and  N2_9 
REMARK       I    between atoms: N2_9  and  C8_10 
REMARK    5  A    between atoms: C8_10  and  C9_12 
REMARK    6  A    between atoms: C9_12  and  C10_13 
REMARK    7  A    between atoms: C10_13  and  C11_14 
REMARK    8  A    between atoms: C11_14  and  N3_15 
REMARK    9  A    between atoms: C14_18  and  O2_19 
REMARK   10  A    between atoms: O2_19  and  C15_20 
ROOT
HETATM    1  C5  UNL     1      24.203  -0.636  53.874  1.00  0.00     0.177 A 
HETATM    2  C6  UNL     1      24.531   0.599  53.144  1.00  0.00     0.042 A 
HETATM    3  C7  UNL     1      25.614   1.328  53.314  1.00  0.00     0.069 A 
HETATM    4  C14 UNL     1      26.583   0.917  54.305  1.00  0.00     0.117 A 
HETATM    5  C17 UNL     1      26.309  -0.188  54.990  1.00  0.00     0.175 A 
HETATM    6  O3  UNL     1      25.170  -0.961  54.819  1.00  0.00    -0.347 OA
ENDROOT
BRANCH   3   7
HETATM    7  N2  UNL     1      25.692   2.474  52.486  1.00  0.00    -0.321 N 
HETATM    8  C8  UNL     1      26.410   2.265  51.287  1.00  0.00     0.245 C 
HETATM    9  O1  UNL     1      26.809   1.081  51.241  1.00  0.00    -0.268 OA
HETATM   10  H9  UNL     1      25.246   3.410  52.745  1.00  0.00     0.169 HD
BRANCH   8  11
HETATM   11  C9  UNL     1      26.571   3.356  50.364  1.00  0.00     0.072 C 
BRANCH  11  12
HETATM   12  C10 UNL     1      26.636   4.191  49.384  1.00  0.00     0.008 C 
BRANCH  12  13
HETATM   13  C11 UNL     1      26.264   5.549  48.930  1.00  0.00     0.299 C 
BRANCH  13  14
HETATM   14  N3  UNL     1      25.611   6.236  50.034  1.00  0.00     0.083 N 
HETATM   15  C12 UNL     1      24.181   6.316  49.690  1.00  0.00     0.309 C 
HETATM   16  C13 UNL     1      26.128   7.619  49.949  1.00  0.00     0.309 C 
ENDBRANCH  13  14
ENDBRANCH  12  13
ENDBRANCH  11  12
ENDBRANCH   8  11
ENDBRANCH   3   7
BRANCH   4  17
HETATM   17  O2  UNL     1      27.729   1.650  54.512  1.00  0.00    -0.347 OA
BRANCH  17  18
HETATM   18  C15 UNL     1      28.994   1.054  54.726  1.00  0.00     0.171 C 
HETATM   19  C16 UNL     1      29.474   0.377  53.471  1.00  0.00     0.034 C 
ENDBRANCH  17  18
ENDBRANCH   4  17
BRANCH   1  20
HETATM   20  C4  UNL     1      22.811  -0.621  54.436  1.00  0.00     0.026 C 
HETATM   21  C3  UNL     1      22.220  -0.384  53.249  1.00  0.00     0.081 C 
BRANCH  21  22
HETATM   22  N1  UNL     1      20.879  -0.203  52.746  1.00  0.00    -0.399 N 
HETATM   23  H4  UNL     1      20.524  -1.203  52.649  1.00  0.00     0.158 HD
BRANCH  22  24
HETATM   24  C2  UNL     1      19.767   0.498  52.319  1.00  0.00     0.061 C 
HETATM   25  C1  UNL     1      19.367   0.509  51.053  1.00  0.00     0.079 C 
ENDBRANCH  22  24
ENDBRANCH  21  22
ENDBRANCH   1  20
TORSDOF 10
ENDMDL
MODEL 3
REMARK VINA RESULT:      -6.1      3.814      6.471
REMARK  10 active torsions:
REMARK  status: ('A' for Active; 'I' for Inactive)
REMARK    1  A    between atoms: C2_2  and  N1_3 
REMARK    2  A    between atoms: N1_3  and  C3_4 
REMARK    3  A    between atoms: C4_5  and  C5_6 
REMARK    4  A    between atoms: C7_8  and  N2_9 
REMARK       I    between atoms: N2_9  and  C8_10 
REMARK    5  A    between atoms: C8_10  and  C9_12 
REMARK    6  A    between atoms: C9_12  and  C10_13 
REMARK    7  A    between atoms: C10_13  and  C11_14 
REMARK    8  A    between atoms: C11_14  and  N3_15 
REMARK    9  A    between atoms: C14_18  and  O2_19 
REMARK   10  A    between atoms: O2_19  and  C15_20 
ROOT
HETATM    1  C5  UNL     1      25.290   1.182  52.575  1.00  0.00     0.177 A 
HETATM    2  C6  UNL     1      25.835   2.377  51.910  1.00  0.00     0.042 A 
HETATM    3  C7  UNL     1      25.176   3.166  51.088  1.00  0.00     0.069 A 
HETATM    4  C14 UNL     1      23.798   2.856  50.778  1.00  0.00     0.117 A 
HETATM    5  C17 UNL     1      23.281   1.776  51.354  1.00  0.00     0.175 A 
HETATM    6  O3  UNL     1      23.969   0.939  52.220  1.00  0.00    -0.347 OA
ENDROOT
BRANCH   3   7
HETATM    7  N2  UNL     1      25.930   4.251  50.578  1.00  0.00    -0.321 N 
HETATM    8  C8  UNL     1      26.731   3.916  49.463  1.00  0.00     0.245 C 
HETATM    9  O1  UNL     1      26.569   2.709  49.180  1.00  0.00    -0.268 OA
HETATM   10  H9  UNL     1      25.895   5.232  50.999  1.00  0.00     0.169 HD
BRANCH   8  11
HETATM   11  C9  UNL     1      27.554   4.929  48.858  1.00  0.00     0.072 C 
BRANCH  11  12
HETATM   12  C10 UNL     1      28.099   5.942  48.277  1.00  0.00     0.008 C 
BRANCH  12  13
HETATM   13  C11 UNL     1      29.375   6.512  47.792  1.00  0.00     0.299 C 
BRANCH  13  14
HETATM   14  N3  UNL     1      30.448   6.019  48.643  1.00  0.00     0.083 N 
HETATM   15  C12 UNL     1      31.275   7.186  48.992  1.00  0.00     0.309 C 
HETATM   16  C13 UNL     1      31.272   5.192  47.735  1.00  0.00     0.309 C 
ENDBRANCH  13  14
ENDBRANCH  12  13
ENDBRANCH  11  12
ENDBRANCH   8  11
ENDBRANCH   3   7
BRANCH   4  17
HETATM   17  O2  UNL     1      23.074   3.657  49.925  1.00  0.00    -0.347 OA
BRANCH  17  18
HETATM   18  C15 UNL     1      23.148   3.545  48.516  1.00  0.00     0.171 C 
HETATM   19  C16 UNL     1      22.337   2.370  48.042  1.00  0.00     0.034 C 
ENDBRANCH  17  18
ENDBRANCH   4  17
BRANCH   1  20
HETATM   20  C4  UNL     1      26.175  -0.020  52.416  1.00  0.00     0.026 C 
HETATM   21  C3  UNL     1      27.176   0.485  53.162  1.00  0.00     0.081 C 
BRANCH  21  22
HETATM   22  N1  UNL     1      28.486   0.070  53.607  1.00  0.00    -0.399 N 
HETATM   23  H4  UNL     1      28.581   0.555  54.551  1.00  0.00     0.158 HD
BRANCH  22  24
HETATM   24  C2  UNL     1      29.697  -0.592  53.545  1.00  0.00     0.061 C 
HETATM   25  C1  UNL     1      29.788  -1.914  53.454  1.00  0.00     0.079 C 
ENDBRANCH  22  24
ENDBRANCH  21  22
ENDBRANCH   1  20
TORSDOF 10
ENDMDL
MODEL 4
REMARK VINA RESULT:      -6.0      3.648      6.107
REMARK  10 active torsions:
REMARK  status: ('A' for Active; 'I' for Inactive)
REMARK    1  A    between atoms: C2_2  and  N1_3 
REMARK    2  A    between atoms: N1_3  and  C3_4 
REMARK    3  A    between atoms: C4_5  and  C5_6 
REMARK    4  A    between atoms: C7_8  and  N2_9 
REMARK       I    between atoms: N2_9  and  C8_10 
REMARK    5  A    between atoms: C8_10  and  C9_12 
REMARK    6  A    between atoms: C9_12  and  C10_13 
REMARK    7  A    between atoms: C10_13  and  C11_14 
REMARK    8  A    between atoms: C11_14  and  N3_15 
REMARK    9  A    between atoms: C14_18  and  O2_19 
REMARK   10  A    between atoms: O2_19  and  C15_20 
ROOT
HETATM    1  C5  UNL     1      25.051   1.322  53.032  1.00  0.00     0.177 A 
HETATM    2  C6  UNL     1      25.572   2.441  52.230  1.00  0.00     0.042 A 
HETATM    3  C7  UNL     1      24.941   3.037  51.241  1.00  0.00     0.069 A 
HETATM    4  C14 UNL     1      23.622   2.572  50.874  1.00  0.00     0.117 A 
HETATM    5  C17 UNL     1      23.128   1.555  51.572  1.00  0.00     0.175 A 
HETATM    6  O3  UNL     1      23.788   0.920  52.614  1.00  0.00    -0.347 OA
ENDROOT
BRANCH   3   7
HETATM    7  N2  UNL     1      25.663   4.089  50.626  1.00  0.00    -0.321 N 
HETATM    8  C8  UNL     1      26.528   3.661  49.594  1.00  0.00     0.245 C 
HETATM    9  O1  UNL     1      26.437   2.421  49.461  1.00  0.00    -0.268 OA
HETATM   10  H9  UNL     1      25.562   5.112  50.918  1.00  0.00     0.169 HD
BRANCH   8  11
HETATM   11  C9  UNL     1      27.327   4.633  48.897  1.00  0.00     0.072 C 
BRANCH  11  12
HETATM   12  C10 UNL     1      28.066   5.600  48.474  1.00  0.00     0.008 C 
BRANCH  12  13
HETATM   13  C11 UNL     1      28.060   6.986  47.958  1.00  0.00     0.299 C 
BRANCH  13  14
HETATM   14  N3  UNL     1      27.123   7.765  48.753  1.00  0.00     0.083 N 
HETATM   15  C12 UNL     1      26.239   8.457  47.800  1.00  0.00     0.309 C 
HETATM   16  C13 UNL     1      27.964   8.817  49.367  1.00  0.00     0.309 C 
ENDBRANCH  13  14
ENDBRANCH  12  13
ENDBRANCH  11  12
ENDBRANCH   8  11
ENDBRANCH   3   7
BRANCH   4  17
HETATM   17  O2  UNL     1      22.927   3.170  49.848  1.00  0.00    -0.347 OA
BRANCH  17  18
HETATM   18  C15 UNL     1      23.039   2.755  48.500  1.00  0.00     0.171 C 
HETATM   19  C16 UNL     1      22.005   1.707  48.186  1.00  0.00     0.034 C 
ENDBRANCH  17  18
ENDBRANCH   4  17
BRANCH   1  20
HETATM   20  C4  UNL     1      26.026   0.186  53.140  1.00  0.00     0.026 C 
HETATM   21  C3  UNL     1      27.082   0.978  53.413  1.00  0.00     0.081 C 
BRANCH  21  22
HETATM   22  N1  UNL     1      28.491   0.818  53.686  1.00  0.00    -0.399 N 
HETATM   23  H4  UNL     1      28.740   1.724  54.187  1.00  0.00     0.158 HD
BRANCH  22  24
HETATM   24  C2  UNL     1      29.718   0.183  53.693  1.00  0.00     0.061 C 
HETATM   25  C1  UNL     1      29.853  -1.121  53.482  1.00  0.00     0.079 C 
ENDBRANCH  22  24
ENDBRANCH  21  22
ENDBRANCH   1  20
TORSDOF 10
ENDMDL
MODEL 5
REMARK VINA RESULT:      -6.0      3.073      5.679
REMARK  10 active torsions:
REMARK  status: ('A' for Active; 'I' for Inactive)
REMARK    1  A    between atoms: C2_2  and  N1_3 
REMARK    2  A    between atoms: N1_3  and  C3_4 
REMARK    3  A    between atoms: C4_5  and  C5_6 
REMARK    4  A    between atoms: C7_8  and  N2_9 
REMARK       I    between atoms: N2_9  and  C8_10 
REMARK    5  A    between atoms: C8_10  and  C9_12 
REMARK    6  A    between atoms: C9_12  and  C10_13 
REMARK    7  A    between atoms: C10_13  and  C11_14 
REMARK    8  A    between atoms: C11_14  and  N3_15 
REMARK    9  A    between atoms: C14_18  and  O2_19 
REMARK   10  A    between atoms: O2_19  and  C15_20 
ROOT
HETATM    1  C5  UNL     1      24.295   0.573  53.325  1.00  0.00     0.177 A 
HETATM    2  C6  UNL     1      24.761   1.420  52.214  1.00  0.00     0.042 A 
HETATM    3  C7  UNL     1      24.013   1.882  51.234  1.00  0.00     0.069 A 
HETATM    4  C14 UNL     1      22.609   1.538  51.207  1.00  0.00     0.117 A 
HETATM    5  C17 UNL     1      22.160   0.764  52.189  1.00  0.00     0.175 A 
HETATM    6  O3  UNL     1      22.942   0.272  53.224  1.00  0.00    -0.347 OA
ENDROOT
BRANCH   3   7
HETATM    7  N2  UNL     1      24.704   2.675  50.286  1.00  0.00    -0.321 N 
HETATM    8  C8  UNL     1      24.603   4.065  50.523  1.00  0.00     0.245 C 
HETATM    9  O1  UNL     1      23.916   4.265  51.547  1.00  0.00    -0.268 OA
HETATM   10  H9  UNL     1      25.251   2.260  49.469  1.00  0.00     0.169 HD
BRANCH   8  11
HETATM   11  C9  UNL     1      25.253   4.980  49.623  1.00  0.00     0.072 C 
BRANCH  11  12
HETATM   12  C10 UNL     1      26.014   5.771  48.947  1.00  0.00     0.008 C 
BRANCH  12  13
HETATM   13  C11 UNL     1      27.415   6.083  48.590  1.00  0.00     0.299 C 
BRANCH  13  14
HETATM   14  N3  UNL     1      27.546   7.527  48.476  1.00  0.00     0.083 N 
HETATM   15  C12 UNL     1      26.834   8.105  49.629  1.00  0.00     0.309 C 
HETATM   16  C13 UNL     1      26.737   7.867  47.285  1.00  0.00     0.309 C 
ENDBRANCH  13  14
ENDBRANCH  12  13
ENDBRANCH  11  12
ENDBRANCH   8  11
ENDBRANCH   3   7
BRANCH   4  17
HETATM   17  O2  UNL     1      21.793   2.003  50.201  1.00  0.00    -0.347 OA
BRANCH  17  18
HETATM   18  C15 UNL     1      21.570   1.289  49.000  1.00  0.00     0.171 C 
HETATM   19  C16 UNL     1      22.252   1.974  47.848  1.00  0.00     0.034 C 
ENDBRANCH  17  18
ENDBRANCH   4  17
BRANCH   1  20
HETATM   20  C4  UNL     1      25.156  -0.640  53.524  1.00  0.00     0.026 C 
HETATM   21  C3  UNL     1      26.212   0.054  53.991  1.00  0.00     0.081 C 
BRANCH  21  22
HETATM   22  N1  UNL     1      27.547  -0.228  54.465  1.00  0.00    -0.399 N 
HETATM   23  H4  UNL     1      27.388  -1.014  55.166  1.00  0.00     0.158 HD
BRANCH  22  24
HETATM   24  C2  UNL     1      28.919  -0.093  54.546  1.00  0.00     0.061 C 
HETATM   25  C1  UNL     1      29.754  -0.743  53.744  1.00  0.00     0.079 C 
ENDBRANCH  22  24
ENDBRANCH  21  22
ENDBRANCH   1  20
TORSDOF 10
ENDMDL
MODEL 6
REMARK VINA RESULT:      -5.8      3.000      8.118
REMARK  10 active torsions:
REMARK  status: ('A' for Active; 'I' for Inactive)
REMARK    1  A    between atoms: C2_2  and  N1_3 
REMARK    2  A    between atoms: N1_3  and  C3_4 
REMARK    3  A    between atoms: C4_5  and  C5_6 
REMARK    4  A    between atoms: C7_8  and  N2_9 
REMARK       I    between atoms: N2_9  and  C8_10 
REMARK    5  A    between atoms: C8_10  and  C9_12 
REMARK    6  A    between atoms: C9_12  and  C10_13 
REMARK    7  A    between atoms: C10_13  and  C11_14 
REMARK    8  A    between atoms: C11_14  and  N3_15 
REMARK    9  A    between atoms: C14_18  and  O2_19 
REMARK   10  A    between atoms: O2_19  and  C15_20 
ROOT
HETATM    1  C5  UNL     1      24.430  -0.097  53.137  1.00  0.00     0.177 A 
HETATM    2  C6  UNL     1      22.966  -0.058  53.281  1.00  0.00     0.042 A 
HETATM    3  C7  UNL     1      22.196   0.980  53.027  1.00  0.00     0.069 A 
HETATM    4  C14 UNL     1      22.809   2.209  52.576  1.00  0.00     0.117 A 
HETATM    5  C17 UNL     1      24.131   2.209  52.447  1.00  0.00     0.175 A 
HETATM    6  O3  UNL     1      24.949   1.121  52.715  1.00  0.00    -0.347 OA
ENDROOT
BRANCH   3   7
HETATM    7  N2  UNL     1      20.814   0.760  53.248  1.00  0.00    -0.321 N 
HETATM    8  C8  UNL     1      20.136   0.221  52.132  1.00  0.00     0.245 C 
HETATM    9  O1  UNL     1      20.944   0.054  51.193  1.00  0.00    -0.268 OA
HETATM   10  H9  UNL     1      20.332   0.982  54.175  1.00  0.00     0.169 HD
BRANCH   8  11
HETATM   11  C9  UNL     1      18.724  -0.038  52.226  1.00  0.00     0.072 C 
BRANCH  11  12
HETATM   12  C10 UNL     1      17.517  -0.485  52.290  1.00  0.00     0.008 C 
BRANCH  12  13
HETATM   13  C11 UNL     1      16.682  -1.658  52.629  1.00  0.00     0.299 C 
BRANCH  13  14
HETATM   14  N3  UNL     1      15.305  -1.359  52.264  1.00  0.00     0.083 N 
HETATM   15  C12 UNL     1      15.277  -1.242  50.796  1.00  0.00     0.309 C 
HETATM   16  C13 UNL     1      15.086   0.007  52.787  1.00  0.00     0.309 C 
ENDBRANCH  13  14
ENDBRANCH  12  13
ENDBRANCH  11  12
ENDBRANCH   8  11
ENDBRANCH   3   7
BRANCH   4  17
HETATM   17  O2  UNL     1      22.040   3.315  52.297  1.00  0.00    -0.347 OA
BRANCH  17  18
HETATM   18  C15 UNL     1      21.690   3.697  50.980  1.00  0.00     0.171 C 
HETATM   19  C16 UNL     1      20.211   3.526  50.760  1.00  0.00     0.034 C 
ENDBRANCH  17  18
ENDBRANCH   4  17
BRANCH   1  20
HETATM   20  C4  UNL     1      25.115  -0.640  54.357  1.00  0.00     0.026 C 
HETATM   21  C3  UNL     1      26.351  -0.297  53.946  1.00  0.00     0.081 C 
BRANCH  21  22
HETATM   22  N1  UNL     1      27.704  -0.397  54.442  1.00  0.00    -0.399 N 
HETATM   23  H4  UNL     1      27.576  -0.867  55.389  1.00  0.00     0.158 HD
BRANCH  22  24
HETATM   24  C2  UNL     1      29.078  -0.255  54.418  1.00  0.00     0.061 C 
HETATM   25  C1  UNL     1      29.860  -0.968  53.616  1.00  0.00     0.079 C 
ENDBRANCH  22  24
ENDBRANCH  21  22
ENDBRANCH   1  20
TORSDOF 10
ENDMDL
MODEL 7
REMARK VINA RESULT:      -5.7      3.525      8.573
REMARK  10 active torsions:
REMARK  status: ('A' for Active; 'I' for Inactive)
REMARK    1  A    between atoms: C2_2  and  N1_3 
REMARK    2  A    between atoms: N1_3  and  C3_4 
REMARK    3  A    between atoms: C4_5  and  C5_6 
REMARK    4  A    between atoms: C7_8  and  N2_9 
REMARK       I    between atoms: N2_9  and  C8_10 
REMARK    5  A    between atoms: C8_10  and  C9_12 
REMARK    6  A    between atoms: C9_12  and  C10_13 
REMARK    7  A    between atoms: C10_13  and  C11_14 
REMARK    8  A    between atoms: C11_14  and  N3_15 
REMARK    9  A    between atoms: C14_18  and  O2_19 
REMARK   10  A    between atoms: O2_19  and  C15_20 
ROOT
HETATM    1  C5  UNL     1      24.705   5.431  48.872  1.00  0.00     0.177 A 
HETATM    2  C6  UNL     1      25.162   4.510  49.926  1.00  0.00     0.042 A 
HETATM    3  C7  UNL     1      24.475   4.164  50.995  1.00  0.00     0.069 A 
HETATM    4  C14 UNL     1      23.158   4.728  51.190  1.00  0.00     0.117 A 
HETATM    5  C17 UNL     1      22.723   5.572  50.262  1.00  0.00     0.175 A 
HETATM    6  O3  UNL     1      23.440   5.943  49.134  1.00  0.00    -0.347 OA
ENDROOT
BRANCH   3   7
HETATM    7  N2  UNL     1      25.142   3.262  51.860  1.00  0.00    -0.321 N 
HETATM    8  C8  UNL     1      24.825   1.905  51.624  1.00  0.00     0.245 C 
HETATM    9  O1  UNL     1      24.016   1.825  50.674  1.00  0.00    -0.268 OA
HETATM   10  H9  UNL     1      25.821   3.580  52.621  1.00  0.00     0.169 HD
BRANCH   8  11
HETATM   11  C9  UNL     1      25.428   0.889  52.444  1.00  0.00     0.072 C 
BRANCH  11  12
HETATM   12  C10 UNL     1      26.123  -0.033  53.018  1.00  0.00     0.008 C 
BRANCH  12  13
HETATM   13  C11 UNL     1      27.348  -0.855  52.921  1.00  0.00     0.299 C 
BRANCH  13  14
HETATM   14  N3  UNL     1      28.306  -0.364  53.900  1.00  0.00     0.083 N 
HETATM   15  C12 UNL     1      28.660   1.006  53.488  1.00  0.00     0.309 C 
HETATM   16  C13 UNL     1      29.513  -1.185  53.662  1.00  0.00     0.309 C 
ENDBRANCH  13  14
ENDBRANCH  12  13
ENDBRANCH  11  12
ENDBRANCH   8  11
ENDBRANCH   3   7
BRANCH   4  17
HETATM   17  O2  UNL     1      22.407   4.390  52.293  1.00  0.00    -0.347 OA
BRANCH  17  18
HETATM   18  C15 UNL     1      21.096   3.867  52.199  1.00  0.00     0.171 C 
HETATM   19  C16 UNL     1      21.107   2.380  52.434  1.00  0.00     0.034 C 
ENDBRANCH  17  18
ENDBRANCH   4  17
BRANCH   1  20
HETATM   20  C4  UNL     1      25.718   6.492  48.556  1.00  0.00     0.026 C 
HETATM   21  C3  UNL     1      26.781   5.695  48.777  1.00  0.00     0.081 C 
BRANCH  21  22
HETATM   22  N1  UNL     1      28.221   5.802  48.731  1.00  0.00    -0.399 N 
HETATM   23  H4  UNL     1      28.514   5.483  49.705  1.00  0.00     0.158 HD
BRANCH  22  24
HETATM   24  C2  UNL     1      29.456   6.063  48.172  1.00  0.00     0.061 C 
HETATM   25  C1  UNL     1      29.677   7.097  47.368  1.00  0.00     0.079 C 
ENDBRANCH  22  24
ENDBRANCH  21  22
ENDBRANCH   1  20
TORSDOF 10
ENDMDL
MODEL 8
REMARK VINA RESULT:      -5.6      2.905      5.817
REMARK  10 active torsions:
REMARK  status: ('A' for Active; 'I' for Inactive)
REMARK    1  A    between atoms: C2_2  and  N1_3 
REMARK    2  A    between atoms: N1_3  and  C3_4 
REMARK    3  A    between atoms: C4_5  and  C5_6 
REMARK    4  A    between atoms: C7_8  and  N2_9 
REMARK       I    between atoms: N2_9  and  C8_10 
REMARK    5  A    between atoms: C8_10  and  C9_12 
REMARK    6  A    between atoms: C9_12  and  C10_13 
REMARK    7  A    between atoms: C10_13  and  C11_14 
REMARK    8  A    between atoms: C11_14  and  N3_15 
REMARK    9  A    between atoms: C14_18  and  O2_19 
REMARK   10  A    between atoms: O2_19  and  C15_20 
ROOT
HETATM    1  C5  UNL     1      21.141   4.307  52.053  1.00  0.00     0.177 A 
HETATM    2  C6  UNL     1      22.483   3.764  52.315  1.00  0.00     0.042 A 
HETATM    3  C7  UNL     1      23.610   4.222  51.812  1.00  0.00     0.069 A 
HETATM    4  C14 UNL     1      23.562   5.351  50.909  1.00  0.00     0.117 A 
HETATM    5  C17 UNL     1      22.362   5.856  50.643  1.00  0.00     0.175 A 
HETATM    6  O3  UNL     1      21.171   5.378  51.167  1.00  0.00    -0.347 OA
ENDROOT
BRANCH   3   7
HETATM    7  N2  UNL     1      24.770   3.520  52.220  1.00  0.00    -0.321 N 
HETATM    8  C8  UNL     1      25.062   2.388  51.425  1.00  0.00     0.245 C 
HETATM    9  O1  UNL     1      24.205   2.282  50.520  1.00  0.00    -0.268 OA
HETATM   10  H9  UNL     1      25.369   3.819  53.053  1.00  0.00     0.169 HD
BRANCH   8  11
HETATM   11  C9  UNL     1      26.209   1.582  51.743  1.00  0.00     0.072 C 
BRANCH  11  12
HETATM   12  C10 UNL     1      27.090   0.721  52.124  1.00  0.00     0.008 C 
BRANCH  12  13
HETATM   13  C11 UNL     1      27.289  -0.621  52.713  1.00  0.00     0.299 C 
BRANCH  13  14
HETATM   14  N3  UNL     1      28.029  -0.468  53.957  1.00  0.00     0.083 N 
HETATM   15  C12 UNL     1      27.142   0.255  54.885  1.00  0.00     0.309 C 
HETATM   16  C13 UNL     1      29.114   0.476  53.613  1.00  0.00     0.309 C 
ENDBRANCH  13  14
ENDBRANCH  12  13
ENDBRANCH  11  12
ENDBRANCH   8  11
ENDBRANCH   3   7
BRANCH   4  17
HETATM   17  O2  UNL     1      24.717   5.862  50.363  1.00  0.00    -0.347 OA
BRANCH  17  18
HETATM   18  C15 UNL     1      25.240   5.425  49.123  1.00  0.00     0.171 C 
HETATM   19  C16 UNL     1      26.569   6.078  48.855  1.00  0.00     0.034 C 
ENDBRANCH  17  18
ENDBRANCH   4  17
BRANCH   1  20
HETATM   20  C4  UNL     1      20.155   3.245  51.662  1.00  0.00     0.026 C 
HETATM   21  C3  UNL     1      20.654   2.321  52.506  1.00  0.00     0.081 C 
BRANCH  21  22
HETATM   22  N1  UNL     1      20.375   0.951  52.871  1.00  0.00    -0.399 N 
HETATM   23  H4  UNL     1      21.347   0.547  53.033  1.00  0.00     0.158 HD
BRANCH  22  24
HETATM   24  C2  UNL     1      19.595  -0.155  53.147  1.00  0.00     0.061 C 
HETATM   25  C1  UNL     1      18.506  -0.458  52.450  1.00  0.00     0.079 C 
ENDBRANCH  22  24
ENDBRANCH  21  22
ENDBRANCH   1  20
TORSDOF 10
ENDMDL
MODEL 9
REMARK VINA RESULT:      -5.4      4.214      9.411
REMARK  10 active torsions:
REMARK  status: ('A' for Active; 'I' for Inactive)
REMARK    1  A    between atoms: C2_2  and  N1_3 
REMARK    2  A    between atoms: N1_3  and  C3_4 
REMARK    3  A    between atoms: C4_5  and  C5_6 
REMARK    4  A    between atoms: C7_8  and  N2_9 
REMARK       I    between atoms: N2_9  and  C8_10 
REMARK    5  A    between atoms: C8_10  and  C9_12 
REMARK    6  A    between atoms: C9_12  and  C10_13 
REMARK    7  A    between atoms: C10_13  and  C11_14 
REMARK    8  A    between atoms: C11_14  and  N3_15 
REMARK    9  A    between atoms: C14_18  and  O2_19 
REMARK   10  A    between atoms: O2_19  and  C15_20 
ROOT
HETATM    1  C5  UNL     1      25.669   6.928  48.030  1.00  0.00     0.177 A 
HETATM    2  C6  UNL     1      26.050   5.876  48.986  1.00  0.00     0.042 A 
HETATM    3  C7  UNL     1      25.341   5.488  50.026  1.00  0.00     0.069 A 
HETATM    4  C14 UNL     1      24.078   6.139  50.290  1.00  0.00     0.117 A 
HETATM    5  C17 UNL     1      23.711   7.102  49.451  1.00  0.00     0.175 A 
HETATM    6  O3  UNL     1      24.453   7.518  48.355  1.00  0.00    -0.347 OA
ENDROOT
BRANCH   3   7
HETATM    7  N2  UNL     1      25.932   4.455  50.793  1.00  0.00    -0.321 N 
HETATM    8  C8  UNL     1      25.563   3.155  50.380  1.00  0.00     0.245 C 
HETATM    9  O1  UNL     1      24.787   3.232  49.403  1.00  0.00    -0.268 OA
HETATM   10  H9  UNL     1      26.597   4.643  51.608  1.00  0.00     0.169 HD
BRANCH   8  11
HETATM   11  C9  UNL     1      26.087   2.017  51.087  1.00  0.00     0.072 C 
BRANCH  11  12
HETATM   12  C10 UNL     1      26.650   1.148  51.854  1.00  0.00     0.008 C 
BRANCH  12  13
HETATM   13  C11 UNL     1      27.596   0.965  52.977  1.00  0.00     0.299 C 
BRANCH  13  14
HETATM   14  N3  UNL     1      27.231  -0.251  53.687  1.00  0.00     0.083 N 
HETATM   15  C12 UNL     1      26.180  -0.904  52.887  1.00  0.00     0.309 C 
HETATM   16  C13 UNL     1      26.564   0.238  54.914  1.00  0.00     0.309 C 
ENDBRANCH  13  14
ENDBRANCH  12  13
ENDBRANCH  11  12
ENDBRANCH   8  11
ENDBRANCH   3   7
BRANCH   4  17
HETATM   17  O2  UNL     1      23.305   5.762  51.364  1.00  0.00    -0.347 OA
BRANCH  17  18
HETATM   18  C15 UNL     1      22.180   4.913  51.242  1.00  0.00     0.171 C 
HETATM   19  C16 UNL     1      22.354   3.686  52.096  1.00  0.00     0.034 C 
ENDBRANCH  17  18
ENDBRANCH   4  17
BRANCH   1  20
HETATM   20  C4  UNL     1      26.767   7.926  47.804  1.00  0.00     0.026 C 
HETATM   21  C3  UNL     1      27.682   7.241  48.516  1.00  0.00     0.081 C 
BRANCH  21  22
HETATM   22  N1  UNL     1      29.070   7.389  48.889  1.00  0.00    -0.399 N 
HETATM   23  H4  UNL     1      29.183   6.674  49.671  1.00  0.00     0.158 HD
BRANCH  22  24
HETATM   24  C2  UNL     1      30.352   7.900  48.831  1.00  0.00     0.061 C 
HETATM   25  C1  UNL     1      30.652   9.133  49.223  1.00  0.00     0.079 C 
ENDBRANCH  22  24
ENDBRANCH  21  22
ENDBRANCH   1  20
TORSDOF 10
ENDMDL
