MODEL 1
REMARK VINA RESULT:      -8.3      0.000      0.000
REMARK  8 active torsions:
REMARK  status: ('A' for Active; 'I' for Inactive)
REMARK    1  A    between atoms: C2_2  and  C3_3 
REMARK    2  A    between atoms: C3_3  and  C4_4 
REMARK    3  A    between atoms: C4_4  and  O1_23 
REMARK    4  A    between atoms: C5_5  and  C6_6 
REMARK    5  A    between atoms: N1_8  and  C8_9 
REMARK    6  A    between atoms: C10_11  and  C11_12 
REMARK    7  A    between atoms: O1_23  and  C19_24 
REMARK    8  A    between atoms: C19_24  and  C20_25 
ROOT
HETATM    1  C6  UNL     1      21.167   2.298  52.392  1.00  0.00    -0.023 C 
HETATM    2  C7  UNL     1      22.133   1.516  52.899  1.00  0.00     0.096 C 
HETATM    3  N1  UNL     1      22.301   0.245  53.543  1.00  0.00    -0.367 N 
HETATM    4  C16 UNL     1      21.405  -0.365  54.504  1.00  0.00     0.274 C 
HETATM    5  N3  UNL     1      20.245  -0.942  53.843  1.00  0.00    -0.266 NA
HETATM    6  C17 UNL     1      19.318  -0.523  53.052  1.00  0.00     0.198 C 
HETATM    7  N4  UNL     1      19.203   0.823  52.567  1.00  0.00    -0.381 N 
HETATM    8  C18 UNL     1      19.698   2.128  52.264  1.00  0.00     0.160 C 
HETATM    9  H25 UNL     1      18.181   0.942  52.247  1.00  0.00     0.160 HD
ENDROOT
BRANCH   1  10
HETATM   10  C5  UNL     1      21.752   3.516  51.878  1.00  0.00     0.047 C 
HETATM   11  C4  UNL     1      22.110   3.953  50.698  1.00  0.00     0.069 C 
BRANCH  11  12
HETATM   12  C3  UNL     1      22.221   3.721  49.292  1.00  0.00     0.032 C 
BRANCH  12  13
HETATM   13  C2  UNL     1      22.651   3.359  48.125  1.00  0.00    -0.028 C 
HETATM   14  C1  UNL     1      22.444   1.979  47.559  1.00  0.00     0.036 C 
ENDBRANCH  12  13
ENDBRANCH  11  12
BRANCH  11  15
HETATM   15  O1  UNL     1      22.677   5.212  50.434  1.00  0.00    -0.347 OA
BRANCH  15  16
HETATM   16  C19 UNL     1      23.876   5.566  51.104  1.00  0.00     0.214 C 
BRANCH  16  17
HETATM   17  C20 UNL     1      25.054   5.025  50.379  1.00  0.00    -0.034 A 
HETATM   18  C21 UNL     1      25.618   5.982  49.530  1.00  0.00     0.009 A 
HETATM   19  C22 UNL     1      26.720   5.684  48.763  1.00  0.00     0.001 A 
HETATM   20  C23 UNL     1      27.236   4.416  48.870  1.00  0.00     0.000 A 
HETATM   21  C24 UNL     1      26.714   3.420  49.702  1.00  0.00     0.001 A 
HETATM   22  C25 UNL     1      25.602   3.765  50.457  1.00  0.00     0.009 A 
ENDBRANCH  16  17
ENDBRANCH  15  16
ENDBRANCH  11  15
ENDBRANCH   1  10
BRANCH   3  23
HETATM   23  C8  UNL     1      23.514  -0.379  53.099  1.00  0.00     0.086 C 
HETATM   24  C9  UNL     1      24.646   0.471  52.642  1.00  0.00     0.031 C 
HETATM   25  C10 UNL     1      25.616  -0.242  53.594  1.00  0.00     0.007 C 
HETATM   26  C15 UNL     1      24.366  -0.715  54.339  1.00  0.00     0.031 C 
BRANCH  25  27
HETATM   27  C11 UNL     1      26.427   0.688  54.456  1.00  0.00     0.121 C 
HETATM   28  N2  UNL     1      27.771   0.725  54.277  1.00  0.00    -0.412 N 
HETATM   29  C12 UNL     1      28.755  -0.210  54.524  1.00  0.00     0.118 C 
HETATM   30  C14 UNL     1      28.586   1.592  53.578  1.00  0.00     0.118 C 
HETATM   31  C13 UNL     1      29.708   0.563  53.632  1.00  0.00     0.039 C 
ENDBRANCH  25  27
ENDBRANCH   3  23
TORSDOF 8
ENDMDL
MODEL 2
REMARK VINA RESULT:      -8.3      2.553      5.986
REMARK  8 active torsions:
REMARK  status: ('A' for Active; 'I' for Inactive)
REMARK    1  A    between atoms: C2_2  and  C3_3 
REMARK    2  A    between atoms: C3_3  and  C4_4 
REMARK    3  A    between atoms: C4_4  and  O1_23 
REMARK    4  A    between atoms: C5_5  and  C6_6 
REMARK    5  A    between atoms: N1_8  and  C8_9 
REMARK    6  A    between atoms: C10_11  and  C11_12 
REMARK    7  A    between atoms: O1_23  and  C19_24 
REMARK    8  A    between atoms: C19_24  and  C20_25 
ROOT
HETATM    1  C6  UNL     1      21.195  -0.478  53.478  1.00  0.00    -0.023 C 
HETATM    2  C7  UNL     1      20.814   0.542  52.691  1.00  0.00     0.096 C 
HETATM    3  N1  UNL     1      19.660   1.022  51.987  1.00  0.00    -0.367 N 
HETATM    4  C16 UNL     1      18.667   0.220  51.302  1.00  0.00     0.274 C 
HETATM    5  N3  UNL     1      17.740  -0.382  52.248  1.00  0.00    -0.266 NA
HETATM    6  C17 UNL     1      17.829  -1.145  53.283  1.00  0.00     0.198 C 
HETATM    7  N4  UNL     1      19.058  -1.652  53.823  1.00  0.00    -0.381 N 
HETATM    8  C18 UNL     1      20.473  -1.658  54.014  1.00  0.00     0.160 C 
HETATM    9  H25 UNL     1      18.793  -2.506  54.424  1.00  0.00     0.160 HD
ENDROOT
BRANCH   1  10
HETATM   10  C5  UNL     1      22.584  -0.314  53.842  1.00  0.00     0.047 C 
HETATM   11  C4  UNL     1      23.624   0.273  53.308  1.00  0.00     0.069 C 
BRANCH  11  12
HETATM   12  C3  UNL     1      24.178   1.040  52.236  1.00  0.00     0.032 C 
BRANCH  12  13
HETATM   13  C2  UNL     1      24.583   2.020  51.492  1.00  0.00    -0.028 C 
HETATM   14  C1  UNL     1      26.031   2.265  51.163  1.00  0.00     0.036 C 
ENDBRANCH  12  13
ENDBRANCH  11  12
BRANCH  11  15
HETATM   15  O1  UNL     1      24.916   0.301  53.863  1.00  0.00    -0.347 OA
BRANCH  15  16
HETATM   16  C19 UNL     1      25.776  -0.801  53.624  1.00  0.00     0.214 C 
BRANCH  16  17
HETATM   17  C20 UNL     1      27.197  -0.379  53.708  1.00  0.00    -0.034 A 
HETATM   18  C21 UNL     1      28.056  -1.366  53.215  1.00  0.00     0.009 A 
HETATM   19  C22 UNL     1      29.418  -1.176  53.205  1.00  0.00     0.001 A 
HETATM   20  C23 UNL     1      29.890   0.017  53.696  1.00  0.00     0.000 A 
HETATM   21  C24 UNL     1      29.079   1.038  54.200  1.00  0.00     0.001 A 
HETATM   22  C25 UNL     1      27.711   0.803  54.191  1.00  0.00     0.009 A 
ENDBRANCH  16  17
ENDBRANCH  15  16
ENDBRANCH  11  15
ENDBRANCH   1  10
BRANCH   3  23
HETATM   23  C8  UNL     1      19.604   2.454  52.047  1.00  0.00     0.086 C 
HETATM   24  C9  UNL     1      20.824   3.217  52.424  1.00  0.00     0.031 C 
HETATM   25  C10 UNL     1      20.703   4.102  51.175  1.00  0.00     0.007 C 
HETATM   26  C15 UNL     1      19.793   3.005  50.619  1.00  0.00     0.031 C 
BRANCH  25  27
HETATM   27  C11 UNL     1      21.969   4.200  50.368  1.00  0.00     0.121 C 
HETATM   28  N2  UNL     1      22.670   5.360  50.406  1.00  0.00    -0.412 N 
HETATM   29  C12 UNL     1      22.380   6.623  49.929  1.00  0.00     0.118 C 
HETATM   30  C14 UNL     1      23.783   5.745  51.126  1.00  0.00     0.118 C 
HETATM   31  C13 UNL     1      23.468   7.202  50.812  1.00  0.00     0.039 C 
ENDBRANCH  25  27
ENDBRANCH   3  23
TORSDOF 8
ENDMDL
MODEL 3
REMARK VINA RESULT:      -8.2      1.766      5.561
REMARK  8 active torsions:
REMARK  status: ('A' for Active; 'I' for Inactive)
REMARK    1  A    between atoms: C2_2  and  C3_3 
REMARK    2  A    between atoms: C3_3  and  C4_4 
REMARK    3  A    between atoms: C4_4  and  O1_23 
REMARK    4  A    between atoms: C5_5  and  C6_6 
REMARK    5  A    between atoms: N1_8  and  C8_9 
REMARK    6  A    between atoms: C10_11  and  C11_12 
REMARK    7  A    between atoms: O1_23  and  C19_24 
REMARK    8  A    between atoms: C19_24  and  C20_25 
ROOT
HETATM    1  C6  UNL     1      26.325   1.941  51.979  1.00  0.00    -0.023 C 
HETATM    2  C7  UNL     1      25.181   1.279  52.217  1.00  0.00     0.096 C 
HETATM    3  N1  UNL     1      24.645   0.283  53.100  1.00  0.00    -0.367 N 
HETATM    4  C16 UNL     1      25.339  -0.878  53.620  1.00  0.00     0.274 C 
HETATM    5  N3  UNL     1      26.231  -0.509  54.707  1.00  0.00    -0.266 NA
HETATM    6  C17 UNL     1      27.212   0.311  54.872  1.00  0.00     0.198 C 
HETATM    7  N4  UNL     1      27.728   1.184  53.856  1.00  0.00    -0.381 N 
HETATM    8  C18 UNL     1      27.658   1.913  52.630  1.00  0.00     0.160 C 
HETATM    9  H25 UNL     1      28.722   1.457  54.169  1.00  0.00     0.160 HD
ENDROOT
BRANCH   1  10
HETATM   10  C5  UNL     1      26.135   2.848  50.869  1.00  0.00     0.047 C 
HETATM   11  C4  UNL     1      25.144   3.147  50.069  1.00  0.00     0.069 C 
BRANCH  11  12
HETATM   12  C3  UNL     1      23.787   2.936  49.674  1.00  0.00     0.032 C 
BRANCH  12  13
HETATM   13  C2  UNL     1      22.671   2.943  49.015  1.00  0.00    -0.028 C 
HETATM   14  C1  UNL     1      22.439   2.126  47.772  1.00  0.00     0.036 C 
ENDBRANCH  12  13
ENDBRANCH  11  12
BRANCH  11  15
HETATM   15  O1  UNL     1      25.196   4.092  49.028  1.00  0.00    -0.347 OA
BRANCH  15  16
HETATM   16  C19 UNL     1      25.538   5.429  49.349  1.00  0.00     0.214 C 
BRANCH  16  17
HETATM   17  C20 UNL     1      26.831   5.799  48.721  1.00  0.00    -0.034 A 
HETATM   18  C21 UNL     1      26.773   7.067  48.133  1.00  0.00     0.009 A 
HETATM   19  C22 UNL     1      27.867   7.600  47.493  1.00  0.00     0.001 A 
HETATM   20  C23 UNL     1      29.009   6.837  47.459  1.00  0.00     0.000 A 
HETATM   21  C24 UNL     1      29.125   5.565  48.029  1.00  0.00     0.001 A 
HETATM   22  C25 UNL     1      27.996   5.067  48.664  1.00  0.00     0.009 A 
ENDBRANCH  16  17
ENDBRANCH  15  16
ENDBRANCH  11  15
ENDBRANCH   1  10
BRANCH   3  23
HETATM   23  C8  UNL     1      23.282   0.588  53.422  1.00  0.00     0.086 C 
HETATM   24  C9  UNL     1      22.533   1.559  52.579  1.00  0.00     0.031 C 
HETATM   25  C10 UNL     1      21.383   0.560  52.382  1.00  0.00     0.007 C 
HETATM   26  C15 UNL     1      22.385  -0.511  52.817  1.00  0.00     0.031 C 
BRANCH  25  27
HETATM   27  C11 UNL     1      20.985   0.359  50.945  1.00  0.00     0.121 C 
HETATM   28  N2  UNL     1      19.736   0.730  50.565  1.00  0.00    -0.412 N 
HETATM   29  C12 UNL     1      18.492   0.223  50.883  1.00  0.00     0.118 C 
HETATM   30  C14 UNL     1      19.259   1.862  49.937  1.00  0.00     0.118 C 
HETATM   31  C13 UNL     1      17.848   1.501  50.381  1.00  0.00     0.039 C 
ENDBRANCH  25  27
ENDBRANCH   3  23
TORSDOF 8
ENDMDL
MODEL 4
REMARK VINA RESULT:      -8.2      1.989      6.023
REMARK  8 active torsions:
REMARK  status: ('A' for Active; 'I' for Inactive)
REMARK    1  A    between atoms: C2_2  and  C3_3 
REMARK    2  A    between atoms: C3_3  and  C4_4 
REMARK    3  A    between atoms: C4_4  and  O1_23 
REMARK    4  A    between atoms: C5_5  and  C6_6 
REMARK    5  A    between atoms: N1_8  and  C8_9 
REMARK    6  A    between atoms: C10_11  and  C11_12 
REMARK    7  A    between atoms: O1_23  and  C19_24 
REMARK    8  A    between atoms: C19_24  and  C20_25 
ROOT
HETATM    1  C6  UNL     1      24.597   0.394  52.966  1.00  0.00    -0.023 C 
HETATM    2  C7  UNL     1      23.269   0.442  52.773  1.00  0.00     0.096 C 
HETATM    3  N1  UNL     1      22.055  -0.108  53.305  1.00  0.00    -0.367 N 
HETATM    4  C16 UNL     1      21.859  -1.454  53.804  1.00  0.00     0.274 C 
HETATM    5  N3  UNL     1      22.416  -1.601  55.139  1.00  0.00    -0.266 NA
HETATM    6  C17 UNL     1      23.566  -1.424  55.695  1.00  0.00     0.198 C 
HETATM    7  N4  UNL     1      24.744  -0.969  55.012  1.00  0.00    -0.381 N 
HETATM    8  C18 UNL     1      25.445  -0.329  53.945  1.00  0.00     0.160 C 
HETATM    9  H25 UNL     1      25.580  -1.261  55.625  1.00  0.00     0.160 HD
ENDROOT
BRANCH   1  10
HETATM   10  C5  UNL     1      25.254   1.251  52.006  1.00  0.00     0.047 C 
HETATM   11  C4  UNL     1      26.379   1.918  51.968  1.00  0.00     0.069 C 
BRANCH  11  12
HETATM   12  C3  UNL     1      27.596   2.298  52.614  1.00  0.00     0.032 C 
BRANCH  12  13
HETATM   13  C2  UNL     1      28.581   2.386  53.452  1.00  0.00    -0.028 C 
HETATM   14  C1  UNL     1      29.116   1.211  54.226  1.00  0.00     0.036 C 
ENDBRANCH  12  13
ENDBRANCH  11  12
BRANCH  11  15
HETATM   15  O1  UNL     1      26.821   2.708  50.892  1.00  0.00    -0.347 OA
BRANCH  15  16
HETATM   16  C19 UNL     1      25.880   3.082  49.900  1.00  0.00     0.214 C 
BRANCH  16  17
HETATM   17  C20 UNL     1      26.220   4.412  49.335  1.00  0.00    -0.034 A 
HETATM   18  C21 UNL     1      27.548   4.461  48.900  1.00  0.00     0.009 A 
HETATM   19  C22 UNL     1      28.069   5.606  48.345  1.00  0.00     0.001 A 
HETATM   20  C23 UNL     1      27.231   6.690  48.238  1.00  0.00     0.000 A 
HETATM   21  C24 UNL     1      25.896   6.698  48.656  1.00  0.00     0.001 A 
HETATM   22  C25 UNL     1      25.414   5.521  49.210  1.00  0.00     0.009 A 
ENDBRANCH  16  17
ENDBRANCH  15  16
ENDBRANCH  11  15
ENDBRANCH   1  10
BRANCH   3  23
HETATM   23  C8  UNL     1      21.013   0.877  53.283  1.00  0.00     0.086 C 
HETATM   24  C9  UNL     1      21.261   2.188  52.625  1.00  0.00     0.031 C 
HETATM   25  C10 UNL     1      19.992   2.044  51.773  1.00  0.00     0.007 C 
HETATM   26  C15 UNL     1      20.065   0.554  52.111  1.00  0.00     0.031 C 
BRANCH  25  27
HETATM   27  C11 UNL     1      20.211   2.265  50.301  1.00  0.00     0.121 C 
HETATM   28  N2  UNL     1      19.647   3.354  49.722  1.00  0.00    -0.412 N 
HETATM   29  C12 UNL     1      18.328   3.683  49.479  1.00  0.00     0.118 C 
HETATM   30  C14 UNL     1      20.154   4.596  49.396  1.00  0.00     0.118 C 
HETATM   31  C13 UNL     1      18.733   5.129  49.266  1.00  0.00     0.039 C 
ENDBRANCH  25  27
ENDBRANCH   3  23
TORSDOF 8
ENDMDL
MODEL 5
REMARK VINA RESULT:      -8.2      2.581      7.202
REMARK  8 active torsions:
REMARK  status: ('A' for Active; 'I' for Inactive)
REMARK    1  A    between atoms: C2_2  and  C3_3 
REMARK    2  A    between atoms: C3_3  and  C4_4 
REMARK    3  A    between atoms: C4_4  and  O1_23 
REMARK    4  A    between atoms: C5_5  and  C6_6 
REMARK    5  A    between atoms: N1_8  and  C8_9 
REMARK    6  A    between atoms: C10_11  and  C11_12 
REMARK    7  A    between atoms: O1_23  and  C19_24 
REMARK    8  A    between atoms: C19_24  and  C20_25 
ROOT
HETATM    1  C6  UNL     1      23.922   2.850  51.273  1.00  0.00    -0.023 C 
HETATM    2  C7  UNL     1      22.841   3.441  51.808  1.00  0.00     0.096 C 
HETATM    3  N1  UNL     1      21.833   4.407  51.477  1.00  0.00    -0.367 N 
HETATM    4  C16 UNL     1      22.011   5.611  50.691  1.00  0.00     0.274 C 
HETATM    5  N3  UNL     1      22.070   5.303  49.271  1.00  0.00    -0.266 NA
HETATM    6  C17 UNL     1      22.784   4.546  48.509  1.00  0.00     0.198 C 
HETATM    7  N4  UNL     1      23.852   3.701  48.964  1.00  0.00    -0.381 N 
HETATM    8  C18 UNL     1      24.578   2.964  49.947  1.00  0.00     0.160 C 
HETATM    9  H25 UNL     1      24.459   3.492  48.099  1.00  0.00     0.160 HD
ENDROOT
BRANCH   1  10
HETATM   10  C5  UNL     1      24.490   1.928  52.230  1.00  0.00     0.047 C 
HETATM   11  C4  UNL     1      24.091   0.826  52.814  1.00  0.00     0.069 C 
BRANCH  11  12
HETATM   12  C3  UNL     1      23.075  -0.162  52.993  1.00  0.00     0.032 C 
BRANCH  12  13
HETATM   13  C2  UNL     1      22.144  -0.906  53.501  1.00  0.00    -0.028 C 
HETATM   14  C1  UNL     1      21.473  -0.609  54.816  1.00  0.00     0.036 C 
ENDBRANCH  12  13
ENDBRANCH  11  12
BRANCH  11  15
HETATM   15  O1  UNL     1      24.841   0.080  53.740  1.00  0.00    -0.347 OA
BRANCH  15  16
HETATM   16  C19 UNL     1      25.732  -0.907  53.247  1.00  0.00     0.214 C 
BRANCH  16  17
HETATM   17  C20 UNL     1      27.138  -0.523  53.526  1.00  0.00    -0.034 A 
HETATM   18  C21 UNL     1      28.037  -1.488  53.061  1.00  0.00     0.009 A 
HETATM   19  C22 UNL     1      29.393  -1.327  53.222  1.00  0.00     0.001 A 
HETATM   20  C23 UNL     1      29.820  -0.184  53.853  1.00  0.00     0.000 A 
HETATM   21  C24 UNL     1      28.968   0.814  54.338  1.00  0.00     0.001 A 
HETATM   22  C25 UNL     1      27.608   0.609  54.154  1.00  0.00     0.009 A 
ENDBRANCH  16  17
ENDBRANCH  15  16
ENDBRANCH  11  15
ENDBRANCH   1  10
BRANCH   3  23
HETATM   23  C8  UNL     1      20.572   4.020  52.039  1.00  0.00     0.086 C 
HETATM   24  C9  UNL     1      19.519   3.456  51.151  1.00  0.00     0.031 C 
HETATM   25  C10 UNL     1      19.351   2.233  52.064  1.00  0.00     0.007 C 
HETATM   26  C15 UNL     1      20.721   2.605  52.633  1.00  0.00     0.031 C 
BRANCH  25  27
HETATM   27  C11 UNL     1      19.417   0.915  51.342  1.00  0.00     0.121 C 
HETATM   28  N2  UNL     1      18.523  -0.049  51.676  1.00  0.00    -0.412 N 
HETATM   29  C12 UNL     1      18.364  -0.794  52.827  1.00  0.00     0.118 C 
HETATM   30  C14 UNL     1      17.335  -0.448  51.098  1.00  0.00     0.118 C 
HETATM   31  C13 UNL     1      16.963  -1.171  52.386  1.00  0.00     0.039 C 
ENDBRANCH  25  27
ENDBRANCH   3  23
TORSDOF 8
ENDMDL
MODEL 6
REMARK VINA RESULT:      -8.1      2.265      5.757
REMARK  8 active torsions:
REMARK  status: ('A' for Active; 'I' for Inactive)
REMARK    1  A    between atoms: C2_2  and  C3_3 
REMARK    2  A    between atoms: C3_3  and  C4_4 
REMARK    3  A    between atoms: C4_4  and  O1_23 
REMARK    4  A    between atoms: C5_5  and  C6_6 
REMARK    5  A    between atoms: N1_8  and  C8_9 
REMARK    6  A    between atoms: C10_11  and  C11_12 
REMARK    7  A    between atoms: O1_23  and  C19_24 
REMARK    8  A    between atoms: C19_24  and  C20_25 
ROOT
HETATM    1  C6  UNL     1      23.302   3.264  49.763  1.00  0.00    -0.023 C 
HETATM    2  C7  UNL     1      22.428   3.619  50.718  1.00  0.00     0.096 C 
HETATM    3  N1  UNL     1      21.069   4.056  50.865  1.00  0.00    -0.367 N 
HETATM    4  C16 UNL     1      20.341   4.937  49.974  1.00  0.00     0.274 C 
HETATM    5  N3  UNL     1      19.900   4.227  48.784  1.00  0.00    -0.266 NA
HETATM    6  C17 UNL     1      20.459   3.535  47.850  1.00  0.00     0.198 C 
HETATM    7  N4  UNL     1      21.866   3.265  47.762  1.00  0.00    -0.381 N 
HETATM    8  C18 UNL     1      23.189   3.151  48.287  1.00  0.00     0.160 C 
HETATM    9  H25 UNL     1      22.058   2.995  46.737  1.00  0.00     0.160 HD
ENDROOT
BRANCH   1  10
HETATM   10  C5  UNL     1      24.569   2.927  50.370  1.00  0.00     0.047 C 
HETATM   11  C4  UNL     1      25.825   3.194  50.118  1.00  0.00     0.069 C 
BRANCH  11  12
HETATM   12  C3  UNL     1      26.793   3.845  49.292  1.00  0.00     0.032 C 
BRANCH  12  13
HETATM   13  C2  UNL     1      27.554   4.737  48.740  1.00  0.00    -0.028 C 
HETATM   14  C1  UNL     1      27.120   6.157  48.496  1.00  0.00     0.036 C 
ENDBRANCH  12  13
ENDBRANCH  11  12
BRANCH  11  15
HETATM   15  O1  UNL     1      26.921   2.740  50.873  1.00  0.00    -0.347 OA
BRANCH  15  16
HETATM   16  C19 UNL     1      26.724   2.466  52.249  1.00  0.00     0.214 C 
BRANCH  16  17
HETATM   17  C20 UNL     1      27.256   1.123  52.594  1.00  0.00    -0.034 A 
HETATM   18  C21 UNL     1      26.396   0.105  52.169  1.00  0.00     0.009 A 
HETATM   19  C22 UNL     1      26.701  -1.216  52.392  1.00  0.00     0.001 A 
HETATM   20  C23 UNL     1      27.880  -1.488  53.045  1.00  0.00     0.000 A 
HETATM   21  C24 UNL     1      28.776  -0.512  53.491  1.00  0.00     0.001 A 
HETATM   22  C25 UNL     1      28.427   0.808  53.244  1.00  0.00     0.009 A 
ENDBRANCH  16  17
ENDBRANCH  15  16
ENDBRANCH  11  15
ENDBRANCH   1  10
BRANCH   3  23
HETATM   23  C8  UNL     1      20.492   3.489  52.049  1.00  0.00     0.086 C 
HETATM   24  C9  UNL     1      19.614   2.294  51.932  1.00  0.00     0.031 C 
HETATM   25  C10 UNL     1      20.437   1.539  52.985  1.00  0.00     0.007 C 
HETATM   26  C15 UNL     1      21.537   2.563  52.701  1.00  0.00     0.031 C 
BRANCH  25  27
HETATM   27  C11 UNL     1      20.870   0.163  52.556  1.00  0.00     0.121 C 
HETATM   28  N2  UNL     1      21.560  -0.600  53.439  1.00  0.00    -0.412 N 
HETATM   29  C12 UNL     1      22.828  -0.469  53.970  1.00  0.00     0.118 C 
HETATM   30  C14 UNL     1      21.168  -1.617  54.286  1.00  0.00     0.118 C 
HETATM   31  C13 UNL     1      22.465  -1.451  55.068  1.00  0.00     0.039 C 
ENDBRANCH  25  27
ENDBRANCH   3  23
TORSDOF 8
ENDMDL
MODEL 7
REMARK VINA RESULT:      -7.9      2.398      6.095
REMARK  8 active torsions:
REMARK  status: ('A' for Active; 'I' for Inactive)
REMARK    1  A    between atoms: C2_2  and  C3_3 
REMARK    2  A    between atoms: C3_3  and  C4_4 
REMARK    3  A    between atoms: C4_4  and  O1_23 
REMARK    4  A    between atoms: C5_5  and  C6_6 
REMARK    5  A    between atoms: N1_8  and  C8_9 
REMARK    6  A    between atoms: C10_11  and  C11_12 
REMARK    7  A    between atoms: O1_23  and  C19_24 
REMARK    8  A    between atoms: C19_24  and  C20_25 
ROOT
HETATM    1  C6  UNL     1      21.826   2.314  51.719  1.00  0.00    -0.023 C 
HETATM    2  C7  UNL     1      21.911   2.548  50.399  1.00  0.00     0.096 C 
HETATM    3  N1  UNL     1      21.088   2.939  49.292  1.00  0.00    -0.367 N 
HETATM    4  C16 UNL     1      19.710   2.559  49.059  1.00  0.00     0.274 C 
HETATM    5  N3  UNL     1      18.807   3.330  49.899  1.00  0.00    -0.266 NA
HETATM    6  C17 UNL     1      18.668   3.550  51.162  1.00  0.00     0.198 C 
HETATM    7  N4  UNL     1      19.507   2.997  52.187  1.00  0.00    -0.381 N 
HETATM    8  C18 UNL     1      20.701   2.393  52.683  1.00  0.00     0.160 C 
HETATM    9  H25 UNL     1      18.946   3.064  53.104  1.00  0.00     0.160 HD
ENDROOT
BRANCH   1  10
HETATM   10  C5  UNL     1      23.124   1.930  52.225  1.00  0.00     0.047 C 
HETATM   11  C4  UNL     1      23.586   0.951  52.959  1.00  0.00     0.069 C 
BRANCH  11  12
HETATM   12  C3  UNL     1      23.334  -0.248  53.695  1.00  0.00     0.032 C 
BRANCH  12  13
HETATM   13  C2  UNL     1      22.801  -1.138  54.472  1.00  0.00    -0.028 C 
HETATM   14  C1  UNL     1      21.322  -1.412  54.523  1.00  0.00     0.036 C 
ENDBRANCH  12  13
ENDBRANCH  11  12
BRANCH  11  15
HETATM   15  O1  UNL     1      24.931   0.780  53.336  1.00  0.00    -0.347 OA
BRANCH  15  16
HETATM   16  C19 UNL     1      25.922   0.806  52.323  1.00  0.00     0.214 C 
BRANCH  16  17
HETATM   17  C20 UNL     1      27.137   0.078  52.767  1.00  0.00    -0.034 A 
HETATM   18  C21 UNL     1      28.127   0.956  53.218  1.00  0.00     0.009 A 
HETATM   19  C22 UNL     1      29.336   0.486  53.672  1.00  0.00     0.001 A 
HETATM   20  C23 UNL     1      29.525  -0.875  53.664  1.00  0.00     0.000 A 
HETATM   21  C24 UNL     1      28.572  -1.800  53.225  1.00  0.00     0.001 A 
HETATM   22  C25 UNL     1      27.366  -1.279  52.775  1.00  0.00     0.009 A 
ENDBRANCH  16  17
ENDBRANCH  15  16
ENDBRANCH  11  15
ENDBRANCH   1  10
BRANCH   3  23
HETATM   23  C8  UNL     1      21.824   3.791  48.403  1.00  0.00     0.086 C 
HETATM   24  C9  UNL     1      22.148   5.180  48.826  1.00  0.00     0.031 C 
HETATM   25  C10 UNL     1      23.636   4.971  48.508  1.00  0.00     0.007 C 
HETATM   26  C15 UNL     1      23.325   3.474  48.562  1.00  0.00     0.031 C 
BRANCH  25  27
HETATM   27  C11 UNL     1      24.564   5.360  49.627  1.00  0.00     0.121 C 
HETATM   28  N2  UNL     1      25.868   5.589  49.332  1.00  0.00    -0.412 N 
HETATM   29  C12 UNL     1      26.876   4.743  48.915  1.00  0.00     0.118 C 
HETATM   30  C14 UNL     1      26.575   6.753  49.113  1.00  0.00     0.118 C 
HETATM   31  C13 UNL     1      27.691   5.941  48.468  1.00  0.00     0.039 C 
ENDBRANCH  25  27
ENDBRANCH   3  23
TORSDOF 8
ENDMDL
MODEL 8
REMARK VINA RESULT:      -7.7      1.865      5.925
REMARK  8 active torsions:
REMARK  status: ('A' for Active; 'I' for Inactive)
REMARK    1  A    between atoms: C2_2  and  C3_3 
REMARK    2  A    between atoms: C3_3  and  C4_4 
REMARK    3  A    between atoms: C4_4  and  O1_23 
REMARK    4  A    between atoms: C5_5  and  C6_6 
REMARK    5  A    between atoms: N1_8  and  C8_9 
REMARK    6  A    between atoms: C10_11  and  C11_12 
REMARK    7  A    between atoms: O1_23  and  C19_24 
REMARK    8  A    between atoms: C19_24  and  C20_25 
ROOT
HETATM    1  C6  UNL     1      25.794   1.838  51.833  1.00  0.00    -0.023 C 
HETATM    2  C7  UNL     1      24.872   0.952  52.242  1.00  0.00     0.096 C 
HETATM    3  N1  UNL     1      24.699  -0.097  53.205  1.00  0.00    -0.367 N 
HETATM    4  C16 UNL     1      25.700  -1.052  53.636  1.00  0.00     0.274 C 
HETATM    5  N3  UNL     1      26.626  -0.446  54.580  1.00  0.00    -0.266 NA
HETATM    6  C17 UNL     1      27.411   0.577  54.591  1.00  0.00     0.198 C 
HETATM    7  N4  UNL     1      27.573   1.496  53.500  1.00  0.00    -0.381 N 
HETATM    8  C18 UNL     1      27.175   2.134  52.287  1.00  0.00     0.160 C 
HETATM    9  H25 UNL     1      28.513   1.995  53.665  1.00  0.00     0.160 HD
ENDROOT
BRANCH   1  10
HETATM   10  C5  UNL     1      25.255   2.629  50.750  1.00  0.00     0.047 C 
HETATM   11  C4  UNL     1      25.746   3.470  49.876  1.00  0.00     0.069 C 
BRANCH  11  12
HETATM   12  C3  UNL     1      26.881   4.160  49.349  1.00  0.00     0.032 C 
BRANCH  12  13
HETATM   13  C2  UNL     1      27.674   4.839  48.581  1.00  0.00    -0.028 C 
HETATM   14  C1  UNL     1      27.604   6.336  48.438  1.00  0.00     0.036 C 
ENDBRANCH  12  13
ENDBRANCH  11  12
BRANCH  11  15
HETATM   15  O1  UNL     1      25.004   4.140  48.886  1.00  0.00    -0.347 OA
BRANCH  15  16
HETATM   16  C19 UNL     1      23.854   4.867  49.282  1.00  0.00     0.214 C 
BRANCH  16  17
HETATM   17  C20 UNL     1      24.046   6.318  49.034  1.00  0.00    -0.034 A 
HETATM   18  C21 UNL     1      24.368   7.003  50.210  1.00  0.00     0.009 A 
HETATM   19  C22 UNL     1      24.585   8.360  50.201  1.00  0.00     0.001 A 
HETATM   20  C23 UNL     1      24.473   9.007  48.994  1.00  0.00     0.000 A 
HETATM   21  C24 UNL     1      24.155   8.374  47.788  1.00  0.00     0.001 A 
HETATM   22  C25 UNL     1      23.944   7.004  47.845  1.00  0.00     0.009 A 
ENDBRANCH  16  17
ENDBRANCH  15  16
ENDBRANCH  11  15
ENDBRANCH   1  10
BRANCH   3  23
HETATM   23  C8  UNL     1      23.359  -0.087  53.714  1.00  0.00     0.086 C 
HETATM   24  C9  UNL     1      22.426   0.992  53.291  1.00  0.00     0.031 C 
HETATM   25  C10 UNL     1      21.365  -0.036  52.874  1.00  0.00     0.007 C 
HETATM   26  C15 UNL     1      22.509  -1.051  52.861  1.00  0.00     0.031 C 
BRANCH  25  27
HETATM   27  C11 UNL     1      20.823   0.169  51.485  1.00  0.00     0.121 C 
HETATM   28  N2  UNL     1      19.509   0.471  51.344  1.00  0.00    -0.412 N 
HETATM   29  C12 UNL     1      18.367  -0.269  51.578  1.00  0.00     0.118 C 
HETATM   30  C14 UNL     1      18.851   1.669  51.155  1.00  0.00     0.118 C 
HETATM   31  C13 UNL     1      17.544   1.004  51.568  1.00  0.00     0.039 C 
ENDBRANCH  25  27
ENDBRANCH   3  23
TORSDOF 8
ENDMDL
MODEL 9
REMARK VINA RESULT:      -7.7      2.733      6.705
REMARK  8 active torsions:
REMARK  status: ('A' for Active; 'I' for Inactive)
REMARK    1  A    between atoms: C2_2  and  C3_3 
REMARK    2  A    between atoms: C3_3  and  C4_4 
REMARK    3  A    between atoms: C4_4  and  O1_23 
REMARK    4  A    between atoms: C5_5  and  C6_6 
REMARK    5  A    between atoms: N1_8  and  C8_9 
REMARK    6  A    between atoms: C10_11  and  C11_12 
REMARK    7  A    between atoms: O1_23  and  C19_24 
REMARK    8  A    between atoms: C19_24  and  C20_25 
ROOT
HETATM    1  C6  UNL     1      22.238   4.141  51.356  1.00  0.00    -0.023 C 
HETATM    2  C7  UNL     1      23.177   3.575  50.580  1.00  0.00     0.096 C 
HETATM    3  N1  UNL     1      24.378   3.916  49.874  1.00  0.00    -0.367 N 
HETATM    4  C16 UNL     1      24.649   5.153  49.171  1.00  0.00     0.274 C 
HETATM    5  N3  UNL     1      24.990   6.217  50.102  1.00  0.00    -0.266 NA
HETATM    6  C17 UNL     1      24.439   6.771  51.128  1.00  0.00     0.198 C 
HETATM    7  N4  UNL     1      23.162   6.401  51.671  1.00  0.00    -0.381 N 
HETATM    8  C18 UNL     1      22.057   5.520  51.872  1.00  0.00     0.160 C 
HETATM    9  H25 UNL     1      22.831   7.240  52.259  1.00  0.00     0.160 HD
ENDROOT
BRANCH   1  10
HETATM   10  C5  UNL     1      21.260   3.146  51.732  1.00  0.00     0.047 C 
HETATM   11  C4  UNL     1      21.300   1.960  52.285  1.00  0.00     0.069 C 
BRANCH  11  12
HETATM   12  C3  UNL     1      22.078   0.900  52.845  1.00  0.00     0.032 C 
BRANCH  12  13
HETATM   13  C2  UNL     1      22.464  -0.254  53.290  1.00  0.00    -0.028 C 
HETATM   14  C1  UNL     1      23.844  -0.512  53.832  1.00  0.00     0.036 C 
ENDBRANCH  12  13
ENDBRANCH  11  12
BRANCH  11  15
HETATM   15  O1  UNL     1      20.182   1.153  52.561  1.00  0.00    -0.347 OA
BRANCH  15  16
HETATM   16  C19 UNL     1      19.224   0.955  51.535  1.00  0.00     0.214 C 
BRANCH  16  17
HETATM   17  C20 UNL     1      18.256  -0.101  51.925  1.00  0.00    -0.034 A 
HETATM   18  C21 UNL     1      18.728  -0.860  53.000  1.00  0.00     0.009 A 
HETATM   19  C22 UNL     1      17.983  -1.894  53.517  1.00  0.00     0.001 A 
HETATM   20  C23 UNL     1      16.765  -2.143  52.934  1.00  0.00     0.000 A 
HETATM   21  C24 UNL     1      16.242  -1.417  51.858  1.00  0.00     0.001 A 
HETATM   22  C25 UNL     1      17.029  -0.383  51.370  1.00  0.00     0.009 A 
ENDBRANCH  16  17
ENDBRANCH  15  16
ENDBRANCH  11  15
ENDBRANCH   1  10
BRANCH   3  23
HETATM   23  C8  UNL     1      25.321   2.838  49.951  1.00  0.00     0.086 C 
HETATM   24  C9  UNL     1      26.651   3.076  50.574  1.00  0.00     0.031 C 
HETATM   25  C10 UNL     1      26.471   1.872  51.510  1.00  0.00     0.007 C 
HETATM   26  C15 UNL     1      24.979   1.984  51.189  1.00  0.00     0.031 C 
BRANCH  25  27
HETATM   27  C11 UNL     1      26.724   2.179  52.961  1.00  0.00     0.121 C 
HETATM   28  N2  UNL     1      27.601   1.399  53.642  1.00  0.00    -0.412 N 
HETATM   29  C12 UNL     1      27.541   0.076  54.029  1.00  0.00     0.118 C 
HETATM   30  C14 UNL     1      28.930   1.571  53.969  1.00  0.00     0.118 C 
HETATM   31  C13 UNL     1      29.039   0.081  54.264  1.00  0.00     0.039 C 
ENDBRANCH  25  27
ENDBRANCH   3  23
TORSDOF 8
ENDMDL
