MODEL 1
REMARK VINA RESULT:      -7.5      0.000      0.000
REMARK  3 active torsions:
REMARK  status: ('A' for Active; 'I' for Inactive)
REMARK    1  A    between atoms: C2_2  and  C3_3 
REMARK    2  A    between atoms: C9_13  and  N3_14 
REMARK    3  A    between atoms: C13_18  and  O2_19 
ROOT
HETATM    1  C3  UNL     1      28.238  -0.045  54.345  1.00  0.00     0.067 C 
HETATM    2  C4  UNL     1      29.043   1.189  53.995  1.00  0.00     0.179 C 
HETATM    3  O1  UNL     1      28.622   1.533  52.694  1.00  0.00    -0.386 OA
HETATM    4  C5  UNL     1      27.401   2.247  52.861  1.00  0.00     0.212 C 
HETATM    5  C6  UNL     1      26.343   1.331  53.337  1.00  0.00     0.037 A 
HETATM    6  C7  UNL     1      26.820   0.244  54.032  1.00  0.00     0.056 A 
HETATM    7  N1  UNL     1      25.908  -0.666  54.485  1.00  0.00    -0.222 NA
HETATM    8  C8  UNL     1      24.583  -0.469  54.237  1.00  0.00     0.225 A 
HETATM    9 CL1  UNL     1      23.358  -1.594  54.786  1.00  0.00    -0.041 Cl
HETATM   10  N2  UNL     1      24.198   0.614  53.553  1.00  0.00    -0.200 NA
HETATM   11  C9  UNL     1      25.018   1.563  53.070  1.00  0.00     0.143 A 
ENDROOT
BRANCH  11  12
HETATM   12  N3  UNL     1      24.478   2.678  52.388  1.00  0.00    -0.338 N 
HETATM   13  C10 UNL     1      24.278   2.746  51.006  1.00  0.00     0.089 C 
HETATM   14  C11 UNL     1      23.297   3.244  50.270  1.00  0.00    -0.003 C 
HETATM   15  C12 UNL     1      22.041   3.918  50.760  1.00  0.00     0.092 C 
HETATM   16  C13 UNL     1      22.460   4.992  51.727  1.00  0.00     0.044 C 
HETATM   17  C14 UNL     1      23.325   4.811  52.710  1.00  0.00     0.025 C 
HETATM   18  C15 UNL     1      24.167   3.787  53.308  1.00  0.00     0.160 C 
BRANCH  16  19
HETATM   19  O2  UNL     1      21.877   6.239  51.541  1.00  0.00    -0.365 OA
HETATM   20  H13 UNL     1      21.406   6.429  50.686  1.00  0.00     0.217 HD
ENDBRANCH  16  19
ENDBRANCH  11  12
BRANCH   1  21
HETATM   21  C2  UNL     1      28.680  -1.128  53.425  1.00  0.00     0.002 C 
HETATM   22  C1  UNL     1      29.968  -1.331  53.765  1.00  0.00     0.006 C 
ENDBRANCH   1  21
TORSDOF 3
ENDMDL
MODEL 2
REMARK VINA RESULT:      -7.4      3.047      3.860
REMARK  3 active torsions:
REMARK  status: ('A' for Active; 'I' for Inactive)
REMARK    1  A    between atoms: C2_2  and  C3_3 
REMARK    2  A    between atoms: C9_13  and  N3_14 
REMARK    3  A    between atoms: C13_18  and  O2_19 
ROOT
HETATM    1  C3  UNL     1      27.281   0.799  52.690  1.00  0.00     0.067 C 
HETATM    2  C4  UNL     1      26.398  -0.234  53.357  1.00  0.00     0.179 C 
HETATM    3  O1  UNL     1      25.320   0.505  53.885  1.00  0.00    -0.386 OA
HETATM    4  C5  UNL     1      24.429   0.716  52.794  1.00  0.00     0.212 C 
HETATM    5  C6  UNL     1      25.039   1.642  51.817  1.00  0.00     0.037 A 
HETATM    6  C7  UNL     1      26.414   1.638  51.831  1.00  0.00     0.056 A 
HETATM    7  N1  UNL     1      27.058   2.486  50.975  1.00  0.00    -0.222 NA
HETATM    8  C8  UNL     1      26.328   3.290  50.152  1.00  0.00     0.225 A 
HETATM    9 CL1  UNL     1      27.085   4.402  49.031  1.00  0.00    -0.041 Cl
HETATM   10  N2  UNL     1      24.992   3.236  50.198  1.00  0.00    -0.200 NA
HETATM   11  C9  UNL     1      24.272   2.436  51.003  1.00  0.00     0.143 A 
ENDROOT
BRANCH  11  12
HETATM   12  N3  UNL     1      22.860   2.453  50.930  1.00  0.00    -0.338 N 
HETATM   13  C10 UNL     1      22.081   1.454  50.341  1.00  0.00     0.089 C 
HETATM   14  C11 UNL     1      20.932   0.897  50.691  1.00  0.00    -0.003 C 
HETATM   15  C12 UNL     1      20.096   1.213  51.905  1.00  0.00     0.092 C 
HETATM   16  C13 UNL     1      19.893   2.703  51.930  1.00  0.00     0.044 C 
HETATM   17  C14 UNL     1      20.861   3.588  51.767  1.00  0.00     0.025 C 
HETATM   18  C15 UNL     1      22.294   3.675  51.531  1.00  0.00     0.160 C 
BRANCH  16  19
HETATM   19  O2  UNL     1      18.591   3.136  52.142  1.00  0.00    -0.365 OA
HETATM   20  H13 UNL     1      18.440   4.035  52.540  1.00  0.00     0.217 HD
ENDBRANCH  16  19
ENDBRANCH  11  12
BRANCH   1  21
HETATM   21  C2  UNL     1      27.817   1.676  53.767  1.00  0.00     0.002 C 
HETATM   22  C1  UNL     1      28.919   1.028  54.189  1.00  0.00     0.006 C 
ENDBRANCH   1  21
TORSDOF 3
ENDMDL
MODEL 3
REMARK VINA RESULT:      -7.4      1.826      6.329
REMARK  3 active torsions:
REMARK  status: ('A' for Active; 'I' for Inactive)
REMARK    1  A    between atoms: C2_2  and  C3_3 
REMARK    2  A    between atoms: C9_13  and  N3_14 
REMARK    3  A    between atoms: C13_18  and  O2_19 
ROOT
HETATM    1  C3  UNL     1      21.704   2.190  51.302  1.00  0.00     0.067 C 
HETATM    2  C4  UNL     1      22.584   2.915  50.306  1.00  0.00     0.179 C 
HETATM    3  O1  UNL     1      23.648   3.427  51.076  1.00  0.00    -0.386 OA
HETATM    4  C5  UNL     1      24.555   2.341  51.246  1.00  0.00     0.212 C 
HETATM    5  C6  UNL     1      23.953   1.316  52.124  1.00  0.00     0.037 A 
HETATM    6  C7  UNL     1      22.578   1.309  52.110  1.00  0.00     0.056 A 
HETATM    7  N1  UNL     1      21.942   0.407  52.914  1.00  0.00    -0.222 NA
HETATM    8  C8  UNL     1      22.679  -0.439  53.688  1.00  0.00     0.225 A 
HETATM    9 CL1  UNL     1      21.932  -1.619  54.744  1.00  0.00    -0.041 Cl
HETATM   10  N2  UNL     1      24.014  -0.371  53.646  1.00  0.00    -0.200 NA
HETATM   11  C9  UNL     1      24.727   0.480  52.888  1.00  0.00     0.143 A 
ENDROOT
BRANCH  11  12
HETATM   12  N3  UNL     1      26.140   0.428  52.913  1.00  0.00    -0.338 N 
HETATM   13  C10 UNL     1      26.975   1.536  53.081  1.00  0.00     0.089 C 
HETATM   14  C11 UNL     1      28.092   1.715  53.768  1.00  0.00    -0.003 C 
HETATM   15  C12 UNL     1      28.816   0.700  54.615  1.00  0.00     0.092 C 
HETATM   16  C13 UNL     1      29.006  -0.530  53.770  1.00  0.00     0.044 C 
HETATM   17  C14 UNL     1      28.050  -1.094  53.052  1.00  0.00     0.025 C 
HETATM   18  C15 UNL     1      26.643  -0.944  52.715  1.00  0.00     0.160 C 
BRANCH  16  19
HETATM   19  O2  UNL     1      30.282  -1.079  53.773  1.00  0.00    -0.365 OA
HETATM   20  H13 UNL     1      30.391  -2.046  53.569  1.00  0.00     0.217 HD
ENDBRANCH  16  19
ENDBRANCH  11  12
BRANCH   1  21
HETATM   21  C2  UNL     1      21.145   3.219  52.221  1.00  0.00     0.002 C 
HETATM   22  C1  UNL     1      19.831   3.230  51.927  1.00  0.00     0.006 C 
ENDBRANCH   1  21
TORSDOF 3
ENDMDL
MODEL 4
REMARK VINA RESULT:      -7.0      1.981      2.440
REMARK  3 active torsions:
REMARK  status: ('A' for Active; 'I' for Inactive)
REMARK    1  A    between atoms: C2_2  and  C3_3 
REMARK    2  A    between atoms: C9_13  and  N3_14 
REMARK    3  A    between atoms: C13_18  and  O2_19 
ROOT
HETATM    1  C3  UNL     1      26.733   0.400  53.481  1.00  0.00     0.067 C 
HETATM    2  C4  UNL     1      27.263   1.570  52.679  1.00  0.00     0.179 C 
HETATM    3  O1  UNL     1      26.704   1.405  51.395  1.00  0.00    -0.386 OA
HETATM    4  C5  UNL     1      25.382   1.929  51.483  1.00  0.00     0.212 C 
HETATM    5  C6  UNL     1      24.551   1.056  52.338  1.00  0.00     0.037 A 
HETATM    6  C7  UNL     1      25.269   0.341  53.268  1.00  0.00     0.056 A 
HETATM    7  N1  UNL     1      24.578  -0.510  54.083  1.00  0.00    -0.222 NA
HETATM    8  C8  UNL     1      23.227  -0.619  53.948  1.00  0.00     0.225 A 
HETATM    9 CL1  UNL     1      22.277  -1.690  54.956  1.00  0.00    -0.041 Cl
HETATM   10  N2  UNL     1      22.600   0.110  53.018  1.00  0.00    -0.200 NA
HETATM   11  C9  UNL     1      23.191   0.973  52.174  1.00  0.00     0.143 A 
ENDROOT
BRANCH  11  12
HETATM   12  N3  UNL     1      22.406   1.708  51.256  1.00  0.00    -0.338 N 
HETATM   13  C10 UNL     1      22.184   1.340  49.926  1.00  0.00     0.089 C 
HETATM   14  C11 UNL     1      21.109   1.387  49.155  1.00  0.00    -0.003 C 
HETATM   15  C12 UNL     1      19.737   1.886  49.533  1.00  0.00     0.092 C 
HETATM   16  C13 UNL     1      19.910   3.252  50.138  1.00  0.00     0.044 C 
HETATM   17  C14 UNL     1      20.802   3.545  51.069  1.00  0.00     0.025 C 
HETATM   18  C15 UNL     1      21.860   2.936  51.861  1.00  0.00     0.160 C 
BRANCH  16  19
HETATM   19  O2  UNL     1      19.058   4.240  49.664  1.00  0.00    -0.365 OA
HETATM   20  H13 UNL     1      19.430   5.140  49.459  1.00  0.00     0.217 HD
ENDBRANCH  16  19
ENDBRANCH  11  12
BRANCH   1  21
HETATM   21  C2  UNL     1      27.315  -0.835  52.888  1.00  0.00     0.002 C 
HETATM   22  C1  UNL     1      28.580  -0.846  53.350  1.00  0.00     0.006 C 
ENDBRANCH   1  21
TORSDOF 3
ENDMDL
MODEL 5
REMARK VINA RESULT:      -7.0      3.078      6.995
REMARK  3 active torsions:
REMARK  status: ('A' for Active; 'I' for Inactive)
REMARK    1  A    between atoms: C2_2  and  C3_3 
REMARK    2  A    between atoms: C9_13  and  N3_14 
REMARK    3  A    between atoms: C13_18  and  O2_19 
ROOT
HETATM    1  C3  UNL     1      22.797   3.934  49.316  1.00  0.00     0.067 C 
HETATM    2  C4  UNL     1      21.838   3.289  50.295  1.00  0.00     0.179 C 
HETATM    3  O1  UNL     1      22.287   1.958  50.410  1.00  0.00    -0.386 OA
HETATM    4  C5  UNL     1      23.370   1.996  51.334  1.00  0.00     0.212 C 
HETATM    5  C6  UNL     1      24.522   2.699  50.730  1.00  0.00     0.037 A 
HETATM    6  C7  UNL     1      24.172   3.608  49.759  1.00  0.00     0.056 A 
HETATM    7  N1  UNL     1      25.180   4.283  49.132  1.00  0.00    -0.222 NA
HETATM    8  C8  UNL     1      26.473   4.037  49.485  1.00  0.00     0.225 A 
HETATM    9 CL1  UNL     1      27.816   4.864  48.724  1.00  0.00    -0.041 Cl
HETATM   10  N2  UNL     1      26.733   3.138  50.440  1.00  0.00    -0.200 NA
HETATM   11  C9  UNL     1      25.811   2.427  51.112  1.00  0.00     0.143 A 
ENDROOT
BRANCH  11  12
HETATM   12  N3  UNL     1      26.218   1.527  52.124  1.00  0.00    -0.338 N 
HETATM   13  C10 UNL     1      25.933   0.159  52.135  1.00  0.00     0.089 C 
HETATM   14  C11 UNL     1      26.653  -0.899  52.472  1.00  0.00    -0.003 C 
HETATM   15  C12 UNL     1      28.076  -0.914  52.970  1.00  0.00     0.092 C 
HETATM   16  C13 UNL     1      28.159   0.061  54.113  1.00  0.00     0.044 C 
HETATM   17  C14 UNL     1      27.673   1.290  54.077  1.00  0.00     0.025 C 
HETATM   18  C15 UNL     1      26.967   2.209  53.196  1.00  0.00     0.160 C 
BRANCH  16  19
HETATM   19  O2  UNL     1      28.794  -0.396  55.259  1.00  0.00    -0.365 OA
HETATM   20  H13 UNL     1      29.781  -0.521  55.246  1.00  0.00     0.217 HD
ENDBRANCH  16  19
ENDBRANCH  11  12
BRANCH   1  21
HETATM   21  C2  UNL     1      22.588   3.270  48.000  1.00  0.00     0.002 C 
HETATM   22  C1  UNL     1      21.923   4.193  47.279  1.00  0.00     0.006 C 
ENDBRANCH   1  21
TORSDOF 3
ENDMDL
MODEL 6
REMARK VINA RESULT:      -6.8      3.263      5.102
REMARK  3 active torsions:
REMARK  status: ('A' for Active; 'I' for Inactive)
REMARK    1  A    between atoms: C2_2  and  C3_3 
REMARK    2  A    between atoms: C9_13  and  N3_14 
REMARK    3  A    between atoms: C13_18  and  O2_19 
ROOT
HETATM    1  C3  UNL     1      26.065   3.632  50.789  1.00  0.00     0.067 C 
HETATM    2  C4  UNL     1      24.721   4.325  50.706  1.00  0.00     0.179 C 
HETATM    3  O1  UNL     1      23.836   3.333  50.237  1.00  0.00    -0.386 OA
HETATM    4  C5  UNL     1      23.485   2.561  51.382  1.00  0.00     0.212 C 
HETATM    5  C6  UNL     1      24.656   1.788  51.847  1.00  0.00     0.037 A 
HETATM    6  C7  UNL     1      25.864   2.357  51.515  1.00  0.00     0.056 A 
HETATM    7  N1  UNL     1      26.999   1.693  51.886  1.00  0.00    -0.222 NA
HETATM    8  C8  UNL     1      26.896   0.512  52.558  1.00  0.00     0.225 A 
HETATM    9 CL1  UNL     1      28.306  -0.395  53.063  1.00  0.00    -0.041 Cl
HETATM   10  N2  UNL     1      25.683   0.024  52.844  1.00  0.00    -0.200 NA
HETATM   11  C9  UNL     1      24.514   0.604  52.523  1.00  0.00     0.143 A 
ENDROOT
BRANCH  11  12
HETATM   12  N3  UNL     1      23.298  -0.004  52.913  1.00  0.00    -0.338 N 
HETATM   13  C10 UNL     1      23.115  -0.735  54.089  1.00  0.00     0.089 C 
HETATM   14  C11 UNL     1      22.116  -0.792  54.957  1.00  0.00    -0.003 C 
HETATM   15  C12 UNL     1      20.817  -0.030  54.905  1.00  0.00     0.092 C 
HETATM   16  C13 UNL     1      20.229  -0.245  53.537  1.00  0.00     0.044 C 
HETATM   17  C14 UNL     1      20.907  -0.120  52.409  1.00  0.00     0.025 C 
HETATM   18  C15 UNL     1      22.236   0.202  51.911  1.00  0.00     0.160 C 
BRANCH  16  19
HETATM   19  O2  UNL     1      18.886  -0.593  53.499  1.00  0.00    -0.365 OA
HETATM   20  H13 UNL     1      18.218   0.011  53.923  1.00  0.00     0.217 HD
ENDBRANCH  16  19
ENDBRANCH  11  12
BRANCH   1  21
HETATM   21  C2  UNL     1      26.465   3.288  49.397  1.00  0.00     0.002 C 
HETATM   22  C1  UNL     1      27.145   4.374  48.982  1.00  0.00     0.006 C 
ENDBRANCH   1  21
TORSDOF 3
ENDMDL
MODEL 7
REMARK VINA RESULT:      -6.7      2.802      4.296
REMARK  3 active torsions:
REMARK  status: ('A' for Active; 'I' for Inactive)
REMARK    1  A    between atoms: C2_2  and  C3_3 
REMARK    2  A    between atoms: C9_13  and  N3_14 
REMARK    3  A    between atoms: C13_18  and  O2_19 
ROOT
HETATM    1  C3  UNL     1      22.602  -0.705  53.161  1.00  0.00     0.067 C 
HETATM    2  C4  UNL     1      21.543  -0.330  52.147  1.00  0.00     0.179 C 
HETATM    3  O1  UNL     1      21.294   1.038  52.379  1.00  0.00    -0.386 OA
HETATM    4  C5  UNL     1      22.336   1.737  51.706  1.00  0.00     0.212 C 
HETATM    5  C6  UNL     1      23.626   1.499  52.388  1.00  0.00     0.037 A 
HETATM    6  C7  UNL     1      23.678   0.310  53.078  1.00  0.00     0.056 A 
HETATM    7  N1  UNL     1      24.827   0.024  53.758  1.00  0.00    -0.222 NA
HETATM    8  C8  UNL     1      25.862   0.909  53.730  1.00  0.00     0.225 A 
HETATM    9 CL1  UNL     1      27.364   0.609  54.579  1.00  0.00    -0.041 Cl
HETATM   10  N2  UNL     1      25.734   2.045  53.035  1.00  0.00    -0.200 NA
HETATM   11  C9  UNL     1      24.647   2.412  52.335  1.00  0.00     0.143 A 
ENDROOT
BRANCH  11  12
HETATM   12  N3  UNL     1      24.653   3.630  51.616  1.00  0.00    -0.338 N 
HETATM   13  C10 UNL     1      25.396   3.867  50.457  1.00  0.00     0.089 C 
HETATM   14  C11 UNL     1      25.116   4.507  49.333  1.00  0.00    -0.003 C 
HETATM   15  C12 UNL     1      23.827   5.203  48.976  1.00  0.00     0.092 C 
HETATM   16  C13 UNL     1      23.493   6.132  50.112  1.00  0.00     0.044 C 
HETATM   17  C14 UNL     1      23.517   5.784  51.387  1.00  0.00     0.025 C 
HETATM   18  C15 UNL     1      23.793   4.646  52.250  1.00  0.00     0.160 C 
BRANCH  16  19
HETATM   19  O2  UNL     1      23.141   7.427  49.756  1.00  0.00    -0.365 OA
HETATM   20  H13 UNL     1      23.495   7.807  48.907  1.00  0.00     0.217 HD
ENDBRANCH  16  19
ENDBRANCH  11  12
BRANCH   1  21
HETATM   21  C2  UNL     1      21.981  -0.580  54.508  1.00  0.00     0.002 C 
HETATM   22  C1  UNL     1      21.163  -1.647  54.582  1.00  0.00     0.006 C 
ENDBRANCH   1  21
TORSDOF 3
ENDMDL
MODEL 8
REMARK VINA RESULT:      -6.7      2.867      6.465
REMARK  3 active torsions:
REMARK  status: ('A' for Active; 'I' for Inactive)
REMARK    1  A    between atoms: C2_2  and  C3_3 
REMARK    2  A    between atoms: C9_13  and  N3_14 
REMARK    3  A    between atoms: C13_18  and  O2_19 
ROOT
HETATM    1  C3  UNL     1      20.923   1.688  48.606  1.00  0.00     0.067 C 
HETATM    2  C4  UNL     1      22.238   2.058  47.952  1.00  0.00     0.179 C 
HETATM    3  O1  UNL     1      22.867   2.917  48.876  1.00  0.00    -0.386 OA
HETATM    4  C5  UNL     1      23.468   2.063  49.845  1.00  0.00     0.212 C 
HETATM    5  C6  UNL     1      22.421   1.397  50.648  1.00  0.00     0.037 A 
HETATM    6  C7  UNL     1      21.220   1.262  49.993  1.00  0.00     0.056 A 
HETATM    7  N1  UNL     1      20.190   0.679  50.674  1.00  0.00    -0.222 NA
HETATM    8  C8  UNL     1      20.385   0.259  51.956  1.00  0.00     0.225 A 
HETATM    9 CL1  UNL     1      19.111  -0.495  52.890  1.00  0.00    -0.041 Cl
HETATM   10  N2  UNL     1      21.585   0.426  52.525  1.00  0.00    -0.200 NA
HETATM   11  C9  UNL     1      22.655   0.986  51.936  1.00  0.00     0.143 A 
ENDROOT
BRANCH  11  12
HETATM   12  N3  UNL     1      23.878   1.076  52.640  1.00  0.00    -0.338 N 
HETATM   13  C10 UNL     1      24.752   0.007  52.857  1.00  0.00     0.089 C 
HETATM   14  C11 UNL     1      26.072  -0.085  52.829  1.00  0.00    -0.003 C 
HETATM   15  C12 UNL     1      27.058   1.017  52.535  1.00  0.00     0.092 C 
HETATM   16  C13 UNL     1      26.712   2.175  53.431  1.00  0.00     0.044 C 
HETATM   17  C14 UNL     1      25.490   2.651  53.591  1.00  0.00     0.025 C 
HETATM   18  C15 UNL     1      24.119   2.438  53.150  1.00  0.00     0.160 C 
BRANCH  16  19
HETATM   19  O2  UNL     1      27.773   2.753  54.115  1.00  0.00    -0.365 OA
HETATM   20  H13 UNL     1      27.669   2.957  55.084  1.00  0.00     0.217 HD
ENDBRANCH  16  19
ENDBRANCH  11  12
BRANCH   1  21
HETATM   21  C2  UNL     1      20.113   2.934  48.691  1.00  0.00     0.002 C 
HETATM   22  C1  UNL     1      19.675   3.117  47.431  1.00  0.00     0.006 C 
ENDBRANCH   1  21
TORSDOF 3
ENDMDL
MODEL 9
REMARK VINA RESULT:      -6.5      3.236      5.113
REMARK  3 active torsions:
REMARK  status: ('A' for Active; 'I' for Inactive)
REMARK    1  A    between atoms: C2_2  and  C3_3 
REMARK    2  A    between atoms: C9_13  and  N3_14 
REMARK    3  A    between atoms: C13_18  and  O2_19 
ROOT
HETATM    1  C3  UNL     1      21.946  -0.105  52.390  1.00  0.00     0.067 C 
HETATM    2  C4  UNL     1      21.006   0.226  51.251  1.00  0.00     0.179 C 
HETATM    3  O1  UNL     1      20.753   1.607  51.387  1.00  0.00    -0.386 OA
HETATM    4  C5  UNL     1      21.871   2.261  50.795  1.00  0.00     0.212 C 
HETATM    5  C6  UNL     1      23.076   2.047  51.622  1.00  0.00     0.037 A 
HETATM    6  C7  UNL     1      23.038   0.895  52.373  1.00  0.00     0.056 A 
HETATM    7  N1  UNL     1      24.104   0.635  53.186  1.00  0.00    -0.222 NA
HETATM    8  C8  UNL     1      25.148   1.509  53.224  1.00  0.00     0.225 A 
HETATM    9 CL1  UNL     1      26.547   1.240  54.243  1.00  0.00    -0.041 Cl
HETATM   10  N2  UNL     1      25.111   2.609  52.463  1.00  0.00    -0.200 NA
HETATM   11  C9  UNL     1      24.110   2.949  51.634  1.00  0.00     0.143 A 
ENDROOT
BRANCH  11  12
HETATM   12  N3  UNL     1      24.209   4.128  50.860  1.00  0.00    -0.338 N 
HETATM   13  C10 UNL     1      23.593   5.342  51.175  1.00  0.00     0.089 C 
HETATM   14  C11 UNL     1      24.002   6.598  51.092  1.00  0.00    -0.003 C 
HETATM   15  C12 UNL     1      25.338   7.092  50.598  1.00  0.00     0.092 C 
HETATM   16  C13 UNL     1      25.581   6.455  49.257  1.00  0.00     0.044 C 
HETATM   17  C14 UNL     1      25.420   5.168  49.005  1.00  0.00     0.025 C 
HETATM   18  C15 UNL     1      25.028   3.924  49.651  1.00  0.00     0.160 C 
BRANCH  16  19
HETATM   19  O2  UNL     1      26.001   7.309  48.246  1.00  0.00    -0.365 OA
HETATM   20  H13 UNL     1      26.936   7.650  48.259  1.00  0.00     0.217 HD
ENDBRANCH  16  19
ENDBRANCH  11  12
BRANCH   1  21
HETATM   21  C2  UNL     1      21.187   0.094  53.655  1.00  0.00     0.002 C 
HETATM   22  C1  UNL     1      21.090  -1.147  54.168  1.00  0.00     0.006 C 
ENDBRANCH   1  21
TORSDOF 3
ENDMDL
