MODEL 1
REMARK VINA RESULT:      -7.3      0.000      0.000
REMARK  4 active torsions:
REMARK  status: ('A' for Active; 'I' for Inactive)
REMARK    1  A    between atoms: C2_2  and  C3_3 
REMARK       I    between atoms: C3_3  and  N1_5 
REMARK    2  A    between atoms: N1_5  and  C5_7 
REMARK    3  A    between atoms: C5_7  and  C6_8 
REMARK    4  A    between atoms: C6_8  and  C7_9 
ROOT
HETATM    1  C7  UNL     1      25.003   0.102  53.810  1.00  0.00     0.061 C 
HETATM    2  C8  UNL     1      24.816  -0.321  55.223  1.00  0.00     0.039 C 
HETATM    3  C9  UNL     1      24.114  -1.645  55.373  1.00  0.00     0.178 C 
HETATM    4  O2  UNL     1      22.697  -1.544  55.258  1.00  0.00    -0.337 OA
HETATM    5  C10 UNL     1      22.050  -1.039  54.113  1.00  0.00     0.147 C 
HETATM    6  N2  UNL     1      22.558  -0.380  53.120  1.00  0.00    -0.212 NA
HETATM    7  C11 UNL     1      23.683   0.516  53.249  1.00  0.00     0.142 C 
HETATM    8  N3  UNL     1      23.568   1.754  52.863  1.00  0.00    -0.179 NA
HETATM    9  S1  UNL     1      22.034   2.313  52.189  1.00  0.00     0.092 SA
HETATM   10  N4  UNL     1      21.097   0.892  51.687  1.00  0.00    -0.320 N 
HETATM   11  C12 UNL     1      20.070   0.150  52.335  1.00  0.00     0.117 C 
HETATM   12  C13 UNL     1      19.743  -0.721  53.277  1.00  0.00     0.035 C 
HETATM   13 CL1  UNL     1      18.076  -1.246  53.543  1.00  0.00    -0.087 Cl
HETATM   14  C14 UNL     1      20.599  -1.415  54.253  1.00  0.00     0.138 C 
HETATM   15  H16 UNL     1      21.410   0.604  50.735  1.00  0.00     0.175 HD
ENDROOT
BRANCH   1  16
HETATM   16  C6  UNL     1      25.613  -0.908  52.903  1.00  0.00     0.032 C 
BRANCH  16  17
HETATM   17  C5  UNL     1      26.890  -0.466  52.280  1.00  0.00     0.126 C 
BRANCH  17  18
HETATM   18  N1  UNL     1      27.332   0.838  52.652  1.00  0.00    -0.353 N 
HETATM   19  C3  UNL     1      28.342   0.932  53.658  1.00  0.00     0.242 C 
HETATM   20  O1  UNL     1      28.840   2.003  54.098  1.00  0.00    -0.268 OA
HETATM   21  C4  UNL     1      27.056   2.217  52.299  1.00  0.00     0.152 C 
BRANCH  19  22
HETATM   22  C2  UNL     1      28.953  -0.211  54.332  1.00  0.00     0.064 C 
HETATM   23  C1  UNL     1      30.102  -0.438  53.716  1.00  0.00     0.017 C 
ENDBRANCH  19  22
ENDBRANCH  17  18
ENDBRANCH  16  17
ENDBRANCH   1  16
TORSDOF 4
ENDMDL
MODEL 2
REMARK VINA RESULT:      -7.1      4.051      4.834
REMARK  4 active torsions:
REMARK  status: ('A' for Active; 'I' for Inactive)
REMARK    1  A    between atoms: C2_2  and  C3_3 
REMARK       I    between atoms: C3_3  and  N1_5 
REMARK    2  A    between atoms: N1_5  and  C5_7 
REMARK    3  A    between atoms: C5_7  and  C6_8 
REMARK    4  A    between atoms: C6_8  and  C7_9 
ROOT
HETATM    1  C7  UNL     1      24.136   2.924  52.796  1.00  0.00     0.061 C 
HETATM    2  C8  UNL     1      23.065   1.895  52.856  1.00  0.00     0.039 C 
HETATM    3  C9  UNL     1      23.117   0.898  51.728  1.00  0.00     0.178 C 
HETATM    4  O2  UNL     1      22.528   1.383  50.525  1.00  0.00    -0.337 OA
HETATM    5  C10 UNL     1      22.971   2.544  49.861  1.00  0.00     0.147 C 
HETATM    6  N2  UNL     1      23.761   3.473  50.298  1.00  0.00    -0.212 NA
HETATM    7  C11 UNL     1      23.836   3.872  51.684  1.00  0.00     0.142 C 
HETATM    8  N3  UNL     1      23.635   5.117  52.007  1.00  0.00    -0.179 NA
HETATM    9  S1  UNL     1      23.274   6.295  50.741  1.00  0.00     0.092 SA
HETATM   10  N4  UNL     1      23.783   5.610  49.185  1.00  0.00    -0.320 N 
HETATM   11  C12 UNL     1      23.067   4.915  48.170  1.00  0.00     0.117 C 
HETATM   12  C13 UNL     1      22.481   3.793  47.784  1.00  0.00     0.035 C 
HETATM   13 CL1  UNL     1      21.702   3.627  46.204  1.00  0.00    -0.087 Cl
HETATM   14  C14 UNL     1      22.338   2.512  48.497  1.00  0.00     0.138 C 
HETATM   15  H16 UNL     1      24.803   5.787  49.058  1.00  0.00     0.175 HD
ENDROOT
BRANCH   1  16
HETATM   16  C6  UNL     1      25.523   2.411  52.627  1.00  0.00     0.032 C 
BRANCH  16  17
HETATM   17  C5  UNL     1      26.161   1.967  53.897  1.00  0.00     0.126 C 
BRANCH  17  18
HETATM   18  N1  UNL     1      26.292   0.555  54.053  1.00  0.00    -0.353 N 
HETATM   19  C3  UNL     1      27.596  -0.007  53.901  1.00  0.00     0.242 C 
HETATM   20  O1  UNL     1      27.884  -1.231  54.006  1.00  0.00    -0.268 OA
HETATM   21  C4  UNL     1      25.447  -0.586  54.343  1.00  0.00     0.152 C 
BRANCH  19  22
HETATM   22  C2  UNL     1      28.802   0.759  53.596  1.00  0.00     0.064 C 
HETATM   23  C1  UNL     1      29.806  -0.105  53.609  1.00  0.00     0.017 C 
ENDBRANCH  19  22
ENDBRANCH  17  18
ENDBRANCH  16  17
ENDBRANCH   1  16
TORSDOF 4
ENDMDL
MODEL 3
REMARK VINA RESULT:      -7.0      4.052      6.874
REMARK  4 active torsions:
REMARK  status: ('A' for Active; 'I' for Inactive)
REMARK    1  A    between atoms: C2_2  and  C3_3 
REMARK       I    between atoms: C3_3  and  N1_5 
REMARK    2  A    between atoms: N1_5  and  C5_7 
REMARK    3  A    between atoms: C5_7  and  C6_8 
REMARK    4  A    between atoms: C6_8  and  C7_9 
ROOT
HETATM    1  C7  UNL     1      21.804   2.690  52.233  1.00  0.00     0.061 C 
HETATM    2  C8  UNL     1      21.382   4.087  51.950  1.00  0.00     0.039 C 
HETATM    3  C9  UNL     1      21.484   4.469  50.496  1.00  0.00     0.178 C 
HETATM    4  O2  UNL     1      22.806   4.832  50.104  1.00  0.00    -0.337 OA
HETATM    5  C10 UNL     1      23.910   3.965  50.220  1.00  0.00     0.147 C 
HETATM    6  N2  UNL     1      24.003   2.856  50.883  1.00  0.00    -0.212 NA
HETATM    7  C11 UNL     1      23.289   2.598  52.111  1.00  0.00     0.142 C 
HETATM    8  N3  UNL     1      23.949   2.265  53.182  1.00  0.00    -0.179 NA
HETATM    9  S1  UNL     1      25.710   2.138  53.111  1.00  0.00     0.092 SA
HETATM   10  N4  UNL     1      26.186   1.984  51.408  1.00  0.00    -0.320 N 
HETATM   11  C12 UNL     1      26.628   2.941  50.453  1.00  0.00     0.117 C 
HETATM   12  C13 UNL     1      26.316   3.942  49.645  1.00  0.00     0.035 C 
HETATM   13 CL1  UNL     1      27.518   4.752  48.632  1.00  0.00    -0.087 Cl
HETATM   14  C14 UNL     1      25.012   4.582  49.402  1.00  0.00     0.138 C 
HETATM   15  H16 UNL     1      26.103   0.983  51.126  1.00  0.00     0.175 HD
ENDROOT
BRANCH   1  16
HETATM   16  C6  UNL     1      21.188   1.637  51.380  1.00  0.00     0.032 C 
BRANCH  16  17
HETATM   17  C5  UNL     1      21.570   0.251  51.762  1.00  0.00     0.126 C 
BRANCH  17  18
HETATM   18  N1  UNL     1      20.834  -0.309  52.850  1.00  0.00    -0.353 N 
HETATM   19  C3  UNL     1      21.579  -0.865  53.934  1.00  0.00     0.242 C 
HETATM   20  O1  UNL     1      21.085  -1.396  54.966  1.00  0.00    -0.268 OA
HETATM   21  C4  UNL     1      19.450  -0.506  53.233  1.00  0.00     0.152 C 
BRANCH  19  22
HETATM   22  C2  UNL     1      23.038  -0.903  54.009  1.00  0.00     0.064 C 
HETATM   23  C1  UNL     1      23.338  -1.262  55.247  1.00  0.00     0.017 C 
ENDBRANCH  19  22
ENDBRANCH  17  18
ENDBRANCH  16  17
ENDBRANCH   1  16
TORSDOF 4
ENDMDL
MODEL 4
REMARK VINA RESULT:      -7.0      3.441      4.140
REMARK  4 active torsions:
REMARK  status: ('A' for Active; 'I' for Inactive)
REMARK    1  A    between atoms: C2_2  and  C3_3 
REMARK       I    between atoms: C3_3  and  N1_5 
REMARK    2  A    between atoms: N1_5  and  C5_7 
REMARK    3  A    between atoms: C5_7  and  C6_8 
REMARK    4  A    between atoms: C6_8  and  C7_9 
ROOT
HETATM    1  C7  UNL     1      23.294   1.360  53.077  1.00  0.00     0.061 C 
HETATM    2  C8  UNL     1      21.942   0.748  52.989  1.00  0.00     0.039 C 
HETATM    3  C9  UNL     1      21.742  -0.110  51.767  1.00  0.00     0.178 C 
HETATM    4  O2  UNL     1      21.432   0.644  50.598  1.00  0.00    -0.337 OA
HETATM    5  C10 UNL     1      22.280   1.641  50.076  1.00  0.00     0.147 C 
HETATM    6  N2  UNL     1      23.299   2.212  50.636  1.00  0.00    -0.212 NA
HETATM    7  C11 UNL     1      23.403   2.444  52.058  1.00  0.00     0.142 C 
HETATM    8  N3  UNL     1      23.602   3.652  52.499  1.00  0.00    -0.179 NA
HETATM    9  S1  UNL     1      23.741   4.985  51.348  1.00  0.00     0.092 SA
HETATM   10  N4  UNL     1      24.104   4.303  49.751  1.00  0.00    -0.320 N 
HETATM   11  C12 UNL     1      23.273   3.976  48.643  1.00  0.00     0.117 C 
HETATM   12  C13 UNL     1      22.378   3.153  48.120  1.00  0.00     0.035 C 
HETATM   13 CL1  UNL     1      21.702   3.391  46.504  1.00  0.00    -0.087 Cl
HETATM   14  C14 UNL     1      21.770   1.939  48.692  1.00  0.00     0.138 C 
HETATM   15  H16 UNL     1      25.132   4.138  49.683  1.00  0.00     0.175 HD
ENDROOT
BRANCH   1  16
HETATM   16  C6  UNL     1      24.442   0.428  52.910  1.00  0.00     0.032 C 
BRANCH  16  17
HETATM   17  C5  UNL     1      25.626   0.773  53.744  1.00  0.00     0.126 C 
BRANCH  17  18
HETATM   18  N1  UNL     1      26.707   1.390  53.046  1.00  0.00    -0.353 N 
HETATM   19  C3  UNL     1      28.032   1.090  53.485  1.00  0.00     0.242 C 
HETATM   20  O1  UNL     1      29.093   1.549  52.979  1.00  0.00    -0.268 OA
HETATM   21  C4  UNL     1      26.899   2.303  51.936  1.00  0.00     0.152 C 
BRANCH  19  22
HETATM   22  C2  UNL     1      28.360   0.199  54.596  1.00  0.00     0.064 C 
HETATM   23  C1  UNL     1      29.318  -0.603  54.160  1.00  0.00     0.017 C 
ENDBRANCH  19  22
ENDBRANCH  17  18
ENDBRANCH  16  17
ENDBRANCH   1  16
TORSDOF 4
ENDMDL
MODEL 5
REMARK VINA RESULT:      -6.9      3.200      4.365
REMARK  4 active torsions:
REMARK  status: ('A' for Active; 'I' for Inactive)
REMARK    1  A    between atoms: C2_2  and  C3_3 
REMARK       I    between atoms: C3_3  and  N1_5 
REMARK    2  A    between atoms: N1_5  and  C5_7 
REMARK    3  A    between atoms: C5_7  and  C6_8 
REMARK    4  A    between atoms: C6_8  and  C7_9 
ROOT
HETATM    1  C7  UNL     1      22.664   1.460  51.513  1.00  0.00     0.061 C 
HETATM    2  C8  UNL     1      22.293   1.353  50.077  1.00  0.00     0.039 C 
HETATM    3  C9  UNL     1      20.938   1.928  49.755  1.00  0.00     0.178 C 
HETATM    4  O2  UNL     1      19.866   1.038  50.057  1.00  0.00    -0.337 OA
HETATM    5  C10 UNL     1      19.628   0.526  51.347  1.00  0.00     0.147 C 
HETATM    6  N2  UNL     1      20.407   0.545  52.382  1.00  0.00    -0.212 NA
HETATM    7  C11 UNL     1      21.848   0.488  52.298  1.00  0.00     0.142 C 
HETATM    8  N3  UNL     1      22.493  -0.449  52.930  1.00  0.00    -0.179 NA
HETATM    9  S1  UNL     1      21.591  -1.635  53.879  1.00  0.00     0.092 SA
HETATM   10  N4  UNL     1      19.975  -0.975  54.201  1.00  0.00    -0.320 N 
HETATM   11  C12 UNL     1      18.725  -1.157  53.548  1.00  0.00     0.117 C 
HETATM   12  C13 UNL     1      17.961  -0.892  52.499  1.00  0.00     0.035 C 
HETATM   13 CL1  UNL     1      16.321  -1.534  52.336  1.00  0.00    -0.087 Cl
HETATM   14  C14 UNL     1      18.248  -0.073  51.310  1.00  0.00     0.138 C 
HETATM   15  H16 UNL     1      20.029  -0.350  55.034  1.00  0.00     0.175 HD
ENDROOT
BRANCH   1  16
HETATM   16  C6  UNL     1      22.519   2.810  52.124  1.00  0.00     0.032 C 
BRANCH  16  17
HETATM   17  C5  UNL     1      23.737   3.658  52.008  1.00  0.00     0.126 C 
BRANCH  17  18
HETATM   18  N1  UNL     1      24.971   2.997  52.287  1.00  0.00    -0.353 N 
HETATM   19  C3  UNL     1      25.897   2.847  51.211  1.00  0.00     0.242 C 
HETATM   20  O1  UNL     1      27.026   2.290  51.288  1.00  0.00    -0.268 OA
HETATM   21  C4  UNL     1      25.636   2.378  53.417  1.00  0.00     0.152 C 
BRANCH  19  22
HETATM   22  C2  UNL     1      25.672   3.320  49.847  1.00  0.00     0.064 C 
HETATM   23  C1  UNL     1      26.764   3.982  49.498  1.00  0.00     0.017 C 
ENDBRANCH  19  22
ENDBRANCH  17  18
ENDBRANCH  16  17
ENDBRANCH   1  16
TORSDOF 4
ENDMDL
MODEL 6
REMARK VINA RESULT:      -6.9      3.764      5.351
REMARK  4 active torsions:
REMARK  status: ('A' for Active; 'I' for Inactive)
REMARK    1  A    between atoms: C2_2  and  C3_3 
REMARK       I    between atoms: C3_3  and  N1_5 
REMARK    2  A    between atoms: N1_5  and  C5_7 
REMARK    3  A    between atoms: C5_7  and  C6_8 
REMARK    4  A    between atoms: C6_8  and  C7_9 
ROOT
HETATM    1  C7  UNL     1      26.047   2.106  51.000  1.00  0.00     0.061 C 
HETATM    2  C8  UNL     1      26.481   2.641  49.682  1.00  0.00     0.039 C 
HETATM    3  C9  UNL     1      26.804   4.112  49.700  1.00  0.00     0.178 C 
HETATM    4  O2  UNL     1      25.648   4.940  49.609  1.00  0.00    -0.337 OA
HETATM    5  C10 UNL     1      24.593   4.897  50.542  1.00  0.00     0.147 C 
HETATM    6  N2  UNL     1      24.349   4.003  51.448  1.00  0.00    -0.212 NA
HETATM    7  C11 UNL     1      24.672   2.604  51.296  1.00  0.00     0.142 C 
HETATM    8  N3  UNL     1      23.734   1.710  51.419  1.00  0.00    -0.179 NA
HETATM    9  S1  UNL     1      22.082   2.228  51.769  1.00  0.00     0.092 SA
HETATM   10  N4  UNL     1      22.143   3.882  52.409  1.00  0.00    -0.320 N 
HETATM   11  C12 UNL     1      21.971   5.150  51.788  1.00  0.00     0.117 C 
HETATM   12  C13 UNL     1      22.472   6.086  50.997  1.00  0.00     0.035 C 
HETATM   13 CL1  UNL     1      21.598   7.577  50.623  1.00  0.00    -0.087 Cl
HETATM   14  C14 UNL     1      23.763   6.127  50.290  1.00  0.00     0.138 C 
HETATM   15  H16 UNL     1      22.346   3.838  53.431  1.00  0.00     0.175 HD
ENDROOT
BRANCH   1  16
HETATM   16  C6  UNL     1      26.931   2.425  52.155  1.00  0.00     0.032 C 
BRANCH  16  17
HETATM   17  C5  UNL     1      26.576   1.699  53.404  1.00  0.00     0.126 C 
BRANCH  17  18
HETATM   18  N1  UNL     1      26.622   0.275  53.318  1.00  0.00    -0.353 N 
HETATM   19  C3  UNL     1      27.872  -0.362  53.583  1.00  0.00     0.242 C 
HETATM   20  O1  UNL     1      28.082  -1.605  53.549  1.00  0.00    -0.268 OA
HETATM   21  C4  UNL     1      25.721  -0.821  53.021  1.00  0.00     0.152 C 
BRANCH  19  22
HETATM   22  C2  UNL     1      29.105   0.338  53.934  1.00  0.00     0.064 C 
HETATM   23  C1  UNL     1      30.100  -0.421  53.504  1.00  0.00     0.017 C 
ENDBRANCH  19  22
ENDBRANCH  17  18
ENDBRANCH  16  17
ENDBRANCH   1  16
TORSDOF 4
ENDMDL
MODEL 7
REMARK VINA RESULT:      -6.8      2.243      3.309
REMARK  4 active torsions:
REMARK  status: ('A' for Active; 'I' for Inactive)
REMARK    1  A    between atoms: C2_2  and  C3_3 
REMARK       I    between atoms: C3_3  and  N1_5 
REMARK    2  A    between atoms: N1_5  and  C5_7 
REMARK    3  A    between atoms: C5_7  and  C6_8 
REMARK    4  A    between atoms: C6_8  and  C7_9 
ROOT
HETATM    1  C7  UNL     1      21.832   0.799  53.522  1.00  0.00     0.061 C 
HETATM    2  C8  UNL     1      21.206   0.013  54.618  1.00  0.00     0.039 C 
HETATM    3  C9  UNL     1      20.629  -1.304  54.167  1.00  0.00     0.178 C 
HETATM    4  O2  UNL     1      19.339  -1.177  53.576  1.00  0.00    -0.337 OA
HETATM    5  C10 UNL     1      19.085  -0.383  52.440  1.00  0.00     0.147 C 
HETATM    6  N2  UNL     1      19.841   0.519  51.897  1.00  0.00    -0.212 NA
HETATM    7  C11 UNL     1      20.757   1.348  52.644  1.00  0.00     0.142 C 
HETATM    8  N3  UNL     1      20.663   2.644  52.565  1.00  0.00    -0.179 NA
HETATM    9  S1  UNL     1      19.413   3.362  51.544  1.00  0.00     0.092 SA
HETATM   10  N4  UNL     1      18.855   2.127  50.399  1.00  0.00    -0.320 N 
HETATM   11  C12 UNL     1      17.744   1.238  50.423  1.00  0.00     0.117 C 
HETATM   12  C13 UNL     1      17.196   0.146  50.932  1.00  0.00     0.035 C 
HETATM   13 CL1  UNL     1      15.600  -0.433  50.437  1.00  0.00    -0.087 Cl
HETATM   14  C14 UNL     1      17.721  -0.784  51.946  1.00  0.00     0.138 C 
HETATM   15  H16 UNL     1      19.507   2.106  49.585  1.00  0.00     0.175 HD
ENDROOT
BRANCH   1  16
HETATM   16  C6  UNL     1      22.816   0.070  52.677  1.00  0.00     0.032 C 
BRANCH  16  17
HETATM   17  C5  UNL     1      24.209   0.579  52.797  1.00  0.00     0.126 C 
BRANCH  17  18
HETATM   18  N1  UNL     1      25.031  -0.106  53.741  1.00  0.00    -0.353 N 
HETATM   19  C3  UNL     1      26.446  -0.016  53.572  1.00  0.00     0.242 C 
HETATM   20  O1  UNL     1      27.309  -0.559  54.314  1.00  0.00    -0.268 OA
HETATM   21  C4  UNL     1      24.867  -0.936  54.918  1.00  0.00     0.152 C 
BRANCH  19  22
HETATM   22  C2  UNL     1      27.111   0.727  52.504  1.00  0.00     0.064 C 
HETATM   23  C1  UNL     1      27.745   1.731  53.087  1.00  0.00     0.017 C 
ENDBRANCH  19  22
ENDBRANCH  17  18
ENDBRANCH  16  17
ENDBRANCH   1  16
TORSDOF 4
ENDMDL
MODEL 8
REMARK VINA RESULT:      -6.8      3.204      4.195
REMARK  4 active torsions:
REMARK  status: ('A' for Active; 'I' for Inactive)
REMARK    1  A    between atoms: C2_2  and  C3_3 
REMARK       I    between atoms: C3_3  and  N1_5 
REMARK    2  A    between atoms: N1_5  and  C5_7 
REMARK    3  A    between atoms: C5_7  and  C6_8 
REMARK    4  A    between atoms: C6_8  and  C7_9 
ROOT
HETATM    1  C7  UNL     1      24.564   1.937  52.080  1.00  0.00     0.061 C 
HETATM    2  C8  UNL     1      24.974   2.644  50.838  1.00  0.00     0.039 C 
HETATM    3  C9  UNL     1      24.596   4.102  50.816  1.00  0.00     0.178 C 
HETATM    4  O2  UNL     1      23.238   4.322  50.444  1.00  0.00    -0.337 OA
HETATM    5  C10 UNL     1      22.146   3.785  51.154  1.00  0.00     0.147 C 
HETATM    6  N2  UNL     1      22.146   2.853  52.055  1.00  0.00    -0.212 NA
HETATM    7  C11 UNL     1      23.083   1.754  52.067  1.00  0.00     0.142 C 
HETATM    8  N3  UNL     1      22.639   0.530  52.067  1.00  0.00    -0.179 NA
HETATM    9  S1  UNL     1      20.897   0.239  52.051  1.00  0.00     0.092 SA
HETATM   10  N4  UNL     1      20.081   1.726  52.573  1.00  0.00    -0.320 N 
HETATM   11  C12 UNL     1      19.493   2.797  51.844  1.00  0.00     0.117 C 
HETATM   12  C13 UNL     1      19.675   3.878  51.103  1.00  0.00     0.035 C 
HETATM   13 CL1  UNL     1      18.326   4.825  50.462  1.00  0.00    -0.087 Cl
HETATM   14  C14 UNL     1      20.927   4.515  50.660  1.00  0.00     0.138 C 
HETATM   15  H16 UNL     1      20.067   1.751  53.616  1.00  0.00     0.175 HD
ENDROOT
BRANCH   1  16
HETATM   16  C6  UNL     1      24.954   2.589  53.360  1.00  0.00     0.032 C 
BRANCH  16  17
HETATM   17  C5  UNL     1      26.232   2.082  53.931  1.00  0.00     0.126 C 
BRANCH  17  18
HETATM   18  N1  UNL     1      26.307   0.667  54.096  1.00  0.00    -0.353 N 
HETATM   19  C3  UNL     1      27.576   0.045  53.890  1.00  0.00     0.242 C 
HETATM   20  O1  UNL     1      27.813  -1.189  53.996  1.00  0.00    -0.268 OA
HETATM   21  C4  UNL     1      25.426  -0.433  54.438  1.00  0.00     0.152 C 
BRANCH  19  22
HETATM   22  C2  UNL     1      28.800   0.753  53.521  1.00  0.00     0.064 C 
HETATM   23  C1  UNL     1      29.778  -0.137  53.580  1.00  0.00     0.017 C 
ENDBRANCH  19  22
ENDBRANCH  17  18
ENDBRANCH  16  17
ENDBRANCH   1  16
TORSDOF 4
ENDMDL
MODEL 9
REMARK VINA RESULT:      -6.5      4.977      6.818
REMARK  4 active torsions:
REMARK  status: ('A' for Active; 'I' for Inactive)
REMARK    1  A    between atoms: C2_2  and  C3_3 
REMARK       I    between atoms: C3_3  and  N1_5 
REMARK    2  A    between atoms: N1_5  and  C5_7 
REMARK    3  A    between atoms: C5_7  and  C6_8 
REMARK    4  A    between atoms: C6_8  and  C7_9 
ROOT
HETATM    1  C7  UNL     1      24.281   3.066  50.842  1.00  0.00     0.061 C 
HETATM    2  C8  UNL     1      25.131   2.810  49.649  1.00  0.00     0.039 C 
HETATM    3  C9  UNL     1      26.458   3.521  49.685  1.00  0.00     0.178 C 
HETATM    4  O2  UNL     1      26.373   4.885  49.280  1.00  0.00    -0.337 OA
HETATM    5  C10 UNL     1      25.556   5.833  49.928  1.00  0.00     0.147 C 
HETATM    6  N2  UNL     1      24.603   5.631  50.782  1.00  0.00    -0.212 NA
HETATM    7  C11 UNL     1      23.756   4.461  50.772  1.00  0.00     0.142 C 
HETATM    8  N3  UNL     1      22.464   4.603  50.698  1.00  0.00    -0.179 NA
HETATM    9  S1  UNL     1      21.772   6.226  50.612  1.00  0.00     0.092 SA
HETATM   10  N4  UNL     1      22.995   7.380  51.179  1.00  0.00    -0.320 N 
HETATM   11  C12 UNL     1      23.936   8.190  50.483  1.00  0.00     0.117 C 
HETATM   12  C13 UNL     1      25.068   8.255  49.801  1.00  0.00     0.035 C 
HETATM   13 CL1  UNL     1      25.705   9.776  49.164  1.00  0.00    -0.087 Cl
HETATM   14  C14 UNL     1      26.005   7.180  49.431  1.00  0.00     0.138 C 
HETATM   15  H16 UNL     1      22.959   7.421  52.221  1.00  0.00     0.175 HD
ENDROOT
BRANCH   1  16
HETATM   16  C6  UNL     1      24.936   2.867  52.164  1.00  0.00     0.032 C 
BRANCH  16  17
HETATM   17  C5  UNL     1      25.341   1.460  52.430  1.00  0.00     0.126 C 
BRANCH  17  18
HETATM   18  N1  UNL     1      26.714   1.273  52.770  1.00  0.00    -0.353 N 
HETATM   19  C3  UNL     1      27.208  -0.067  52.810  1.00  0.00     0.242 C 
HETATM   20  O1  UNL     1      28.390  -0.404  53.092  1.00  0.00    -0.268 OA
HETATM   21  C4  UNL     1      27.864   2.084  53.118  1.00  0.00     0.152 C 
BRANCH  19  22
HETATM   22  C2  UNL     1      26.409  -1.257  52.528  1.00  0.00     0.064 C 
HETATM   23  C1  UNL     1      27.241  -2.285  52.578  1.00  0.00     0.017 C 
ENDBRANCH  19  22
ENDBRANCH  17  18
ENDBRANCH  16  17
ENDBRANCH   1  16
TORSDOF 4
ENDMDL
