MODEL 1
REMARK VINA RESULT:      -8.4      0.000      0.000
REMARK  4 active torsions:
REMARK  status: ('A' for Active; 'I' for Inactive)
REMARK    1  A    between atoms: N4_23  and  C18_24 
REMARK    2  A    between atoms: C18_24  and  C19_25 
REMARK    3  A    between atoms: C19_25  and  C20_26 
REMARK    4  A    between atoms: C20_26  and  N5_27 
ROOT
HETATM    1  C1  UNL     1      22.815  -0.749  55.573  1.00  0.00     0.044 C 
HETATM    2  C2  UNL     1      22.104  -0.647  54.269  1.00  0.00    -0.067 C 
HETATM    3  C3  UNL     1      20.999  -1.317  53.950  1.00  0.00    -0.023 C 
HETATM    4  C4  UNL     1      19.938  -0.490  53.967  1.00  0.00     0.012 C 
HETATM    5  C5  UNL     1      19.941   0.003  52.607  1.00  0.00    -0.002 C 
HETATM    6  C6  UNL     1      19.610   0.131  51.295  1.00  0.00    -0.007 C 
HETATM    7  C7  UNL     1      19.988   0.946  50.053  1.00  0.00     0.148 C 
HETATM    8  N1  UNL     1      21.120   1.772  50.352  1.00  0.00    -0.371 N 
HETATM    9  C8  UNL     1      21.641   2.873  51.056  1.00  0.00     0.133 C 
HETATM   10  N2  UNL     1      20.816   3.671  50.479  1.00  0.00    -0.225 NA
HETATM   11  C9  UNL     1      20.876   5.071  50.847  1.00  0.00     0.229 C 
HETATM   12  N3  UNL     1      21.734   5.362  51.717  1.00  0.00    -0.278 NA
HETATM   13  C10 UNL     1      22.679   4.600  52.445  1.00  0.00     0.192 C 
HETATM   14  C11 UNL     1      22.694   3.187  51.984  1.00  0.00     0.009 C 
HETATM   15  C12 UNL     1      23.715   2.519  52.472  1.00  0.00     0.045 C 
HETATM   16  C13 UNL     1      24.539   1.305  52.577  1.00  0.00     0.067 C 
HETATM   17  C14 UNL     1      23.949   0.137  52.934  1.00  0.00     0.077 C 
HETATM   18  C15 UNL     1      22.456   0.244  53.180  1.00  0.00     0.101 C 
HETATM   19  O1  UNL     1      24.698  -1.024  53.047  1.00  0.00    -0.344 OA
HETATM   20  C16 UNL     1      25.906  -1.205  52.317  1.00  0.00     0.278 C 
HETATM   21  C17 UNL     1      26.685   0.060  52.303  1.00  0.00     0.248 C 
HETATM   22  O2  UNL     1      27.932   0.173  52.321  1.00  0.00    -0.271 OA
HETATM   23  N4  UNL     1      25.911   1.276  52.263  1.00  0.00    -0.314 N 
HETATM   24  H9  UNL     1      22.031   1.501  49.868  1.00  0.00     0.161 HD
ENDROOT
BRANCH  23  25
HETATM   25  C18 UNL     1      26.586   2.495  51.880  1.00  0.00     0.134 C 
BRANCH  25  26
HETATM   26  C19 UNL     1      26.548   2.761  50.403  1.00  0.00     0.040 C 
BRANCH  26  27
HETATM   27  C20 UNL     1      26.876   4.193  50.036  1.00  0.00     0.119 C 
BRANCH  27  28
HETATM   28  N5  UNL     1      25.726   4.985  49.768  1.00  0.00    -0.404 N 
HETATM   29  C21 UNL     1      24.701   4.326  49.023  1.00  0.00     0.143 C 
HETATM   30  C22 UNL     1      23.589   5.234  48.581  1.00  0.00     0.187 C 
HETATM   31  O3  UNL     1      23.682   6.501  49.153  1.00  0.00    -0.388 OA
HETATM   32  C23 UNL     1      24.883   7.049  48.708  1.00  0.00     0.192 C 
HETATM   33  C24 UNL     1      26.004   6.326  49.363  1.00  0.00     0.098 C 
HETATM   34  C25 UNL     1      27.167   6.224  48.366  1.00  0.00     0.034 C 
ENDBRANCH  27  28
ENDBRANCH  26  27
ENDBRANCH  25  26
ENDBRANCH  23  25
TORSDOF 4
ENDMDL
MODEL 2
REMARK VINA RESULT:      -7.9      2.382      6.668
REMARK  4 active torsions:
REMARK  status: ('A' for Active; 'I' for Inactive)
REMARK    1  A    between atoms: N4_23  and  C18_24 
REMARK    2  A    between atoms: C18_24  and  C19_25 
REMARK    3  A    between atoms: C19_25  and  C20_26 
REMARK    4  A    between atoms: C20_26  and  N5_27 
ROOT
HETATM    1  C1  UNL     1      26.792   3.358  49.332  1.00  0.00     0.044 C 
HETATM    2  C2  UNL     1      25.760   4.354  49.728  1.00  0.00    -0.067 C 
HETATM    3  C3  UNL     1      25.911   5.675  49.662  1.00  0.00    -0.023 C 
HETATM    4  C4  UNL     1      25.204   6.170  48.630  1.00  0.00     0.012 C 
HETATM    5  C5  UNL     1      23.926   6.424  49.259  1.00  0.00    -0.002 C 
HETATM    6  C6  UNL     1      22.910   7.100  49.857  1.00  0.00    -0.007 C 
HETATM    7  C7  UNL     1      21.518   6.860  50.452  1.00  0.00     0.148 C 
HETATM    8  N1  UNL     1      21.242   5.454  50.464  1.00  0.00    -0.371 N 
HETATM    9  C8  UNL     1      20.971   4.283  49.731  1.00  0.00     0.133 C 
HETATM   10  N2  UNL     1      19.909   4.806  49.230  1.00  0.00    -0.225 NA
HETATM   11  C9  UNL     1      19.145   3.999  48.302  1.00  0.00     0.229 C 
HETATM   12  N3  UNL     1      19.614   2.858  48.068  1.00  0.00    -0.278 NA
HETATM   13  C10 UNL     1      20.765   2.168  48.518  1.00  0.00     0.192 C 
HETATM   14  C11 UNL     1      21.485   2.951  49.556  1.00  0.00     0.009 C 
HETATM   15  C12 UNL     1      22.413   2.241  50.156  1.00  0.00     0.045 C 
HETATM   16  C13 UNL     1      23.459   2.071  51.177  1.00  0.00     0.067 C 
HETATM   17  C14 UNL     1      24.487   2.955  51.219  1.00  0.00     0.077 C 
HETATM   18  C15 UNL     1      24.413   4.048  50.169  1.00  0.00     0.101 C 
HETATM   19  O1  UNL     1      25.492   2.821  52.166  1.00  0.00    -0.344 OA
HETATM   20  C16 UNL     1      25.262   2.166  53.407  1.00  0.00     0.278 C 
HETATM   21  C17 UNL     1      24.415   0.963  53.198  1.00  0.00     0.248 C 
HETATM   22  O2  UNL     1      24.482  -0.118  53.826  1.00  0.00    -0.271 OA
HETATM   23  N4  UNL     1      23.418   1.068  52.163  1.00  0.00    -0.314 N 
HETATM   24  H9  UNL     1      21.212   4.996  51.428  1.00  0.00     0.161 HD
ENDROOT
BRANCH  23  25
HETATM   25  C18 UNL     1      22.344   0.100  52.158  1.00  0.00     0.134 C 
BRANCH  25  26
HETATM   26  C19 UNL     1      21.192   0.481  53.043  1.00  0.00     0.040 C 
BRANCH  26  27
HETATM   27  C20 UNL     1      19.943  -0.340  52.800  1.00  0.00     0.119 C 
BRANCH  27  28
HETATM   28  N5  UNL     1      19.069   0.234  51.836  1.00  0.00    -0.404 N 
HETATM   29  C21 UNL     1      18.882   1.644  51.958  1.00  0.00     0.143 C 
HETATM   30  C22 UNL     1      17.808   2.195  51.064  1.00  0.00     0.187 C 
HETATM   31  O3  UNL     1      17.341   1.251  50.152  1.00  0.00    -0.388 OA
HETATM   32  C23 UNL     1      16.784   0.218  50.903  1.00  0.00     0.192 C 
HETATM   33  C24 UNL     1      17.881  -0.518  51.584  1.00  0.00     0.098 C 
HETATM   34  C25 UNL     1      17.380  -0.974  52.962  1.00  0.00     0.034 C 
ENDBRANCH  27  28
ENDBRANCH  26  27
ENDBRANCH  25  26
ENDBRANCH  23  25
TORSDOF 4
ENDMDL
MODEL 3
REMARK VINA RESULT:      -7.9      5.409      9.652
REMARK  4 active torsions:
REMARK  status: ('A' for Active; 'I' for Inactive)
REMARK    1  A    between atoms: N4_23  and  C18_24 
REMARK    2  A    between atoms: C18_24  and  C19_25 
REMARK    3  A    between atoms: C19_25  and  C20_26 
REMARK    4  A    between atoms: C20_26  and  N5_27 
ROOT
HETATM    1  C1  UNL     1      27.070   8.470  44.370  1.00  0.00     0.044 C 
HETATM    2  C2  UNL     1      26.326   8.698  45.638  1.00  0.00    -0.067 C 
HETATM    3  C3  UNL     1      25.183   9.372  45.741  1.00  0.00    -0.023 C 
HETATM    4  C4  UNL     1      24.161   8.519  45.938  1.00  0.00     0.012 C 
HETATM    5  C5  UNL     1      24.146   8.424  47.381  1.00  0.00    -0.002 C 
HETATM    6  C6  UNL     1      23.782   8.648  48.671  1.00  0.00    -0.007 C 
HETATM    7  C7  UNL     1      24.159   8.231  50.097  1.00  0.00     0.148 C 
HETATM    8  N1  UNL     1      25.335   7.414  50.058  1.00  0.00    -0.371 N 
HETATM    9  C8  UNL     1      25.927   6.189  49.698  1.00  0.00     0.133 C 
HETATM   10  N2  UNL     1      25.121   5.540  50.462  1.00  0.00    -0.225 NA
HETATM   11  C9  UNL     1      25.256   4.099  50.499  1.00  0.00     0.229 C 
HETATM   12  N3  UNL     1      26.152   3.622  49.759  1.00  0.00    -0.278 NA
HETATM   13  C10 UNL     1      27.083   4.200  48.862  1.00  0.00     0.192 C 
HETATM   14  C11 UNL     1      27.020   5.684  48.911  1.00  0.00     0.009 C 
HETATM   15  C12 UNL     1      28.024   6.243  48.273  1.00  0.00     0.045 C 
HETATM   16  C13 UNL     1      28.795   7.420  47.846  1.00  0.00     0.067 C 
HETATM   17  C14 UNL     1      28.164   8.411  47.169  1.00  0.00     0.077 C 
HETATM   18  C15 UNL     1      26.685   8.164  46.938  1.00  0.00     0.101 C 
HETATM   19  O1  UNL     1      28.863   9.533  46.749  1.00  0.00    -0.344 OA
HETATM   20  C16 UNL     1      30.039   9.971  47.418  1.00  0.00     0.278 C 
HETATM   21  C17 UNL     1      30.874   8.802  47.797  1.00  0.00     0.248 C 
HETATM   22  O2  UNL     1      32.124   8.753  47.831  1.00  0.00    -0.271 OA
HETATM   23  N4  UNL     1      30.154   7.607  48.162  1.00  0.00    -0.314 N 
HETATM   24  H9  UNL     1      26.219   7.855  50.462  1.00  0.00     0.161 HD
ENDROOT
BRANCH  23  25
HETATM   25  C18 UNL     1      30.872   6.578  48.880  1.00  0.00     0.134 C 
BRANCH  25  26
HETATM   26  C19 UNL     1      31.449   5.518  47.986  1.00  0.00     0.040 C 
BRANCH  26  27
HETATM   27  C20 UNL     1      32.956   5.397  48.084  1.00  0.00     0.119 C 
BRANCH  27  28
HETATM   28  N5  UNL     1      33.588   5.189  46.828  1.00  0.00    -0.404 N 
HETATM   29  C21 UNL     1      32.696   5.024  45.724  1.00  0.00     0.143 C 
HETATM   30  C22 UNL     1      33.374   4.609  44.450  1.00  0.00     0.187 C 
HETATM   31  O3  UNL     1      34.763   4.657  44.549  1.00  0.00    -0.388 OA
HETATM   32  C23 UNL     1      35.120   3.744  45.539  1.00  0.00     0.192 C 
HETATM   33  C24 UNL     1      34.693   4.284  46.856  1.00  0.00     0.098 C 
HETATM   34  C25 UNL     1      34.243   3.111  47.740  1.00  0.00     0.034 C 
ENDBRANCH  27  28
ENDBRANCH  26  27
ENDBRANCH  25  26
ENDBRANCH  23  25
TORSDOF 4
ENDMDL
MODEL 4
REMARK VINA RESULT:      -7.8      3.015      6.034
REMARK  4 active torsions:
REMARK  status: ('A' for Active; 'I' for Inactive)
REMARK    1  A    between atoms: N4_23  and  C18_24 
REMARK    2  A    between atoms: C18_24  and  C19_25 
REMARK    3  A    between atoms: C19_25  and  C20_26 
REMARK    4  A    between atoms: C20_26  and  N5_27 
ROOT
HETATM    1  C1  UNL     1      21.992   3.237  46.775  1.00  0.00     0.044 C 
HETATM    2  C2  UNL     1      21.769   2.822  48.187  1.00  0.00    -0.067 C 
HETATM    3  C3  UNL     1      20.853   1.944  48.588  1.00  0.00    -0.023 C 
HETATM    4  C4  UNL     1      21.442   0.780  48.916  1.00  0.00     0.012 C 
HETATM    5  C5  UNL     1      21.736   0.997  50.316  1.00  0.00    -0.002 C 
HETATM    6  C6  UNL     1      21.615   0.943  51.669  1.00  0.00    -0.007 C 
HETATM    7  C7  UNL     1      22.313   1.440  52.940  1.00  0.00     0.148 C 
HETATM    8  N1  UNL     1      23.384   2.321  52.581  1.00  0.00    -0.371 N 
HETATM    9  C8  UNL     1      24.653   2.481  51.995  1.00  0.00     0.133 C 
HETATM   10  N2  UNL     1      25.182   1.678  52.849  1.00  0.00    -0.225 NA
HETATM   11  C9  UNL     1      26.601   1.418  52.726  1.00  0.00     0.229 C 
HETATM   12  N3  UNL     1      27.176   2.003  51.774  1.00  0.00    -0.278 NA
HETATM   13  C10 UNL     1      26.727   2.881  50.758  1.00  0.00     0.192 C 
HETATM   14  C11 UNL     1      25.297   3.237  50.954  1.00  0.00     0.009 C 
HETATM   15  C12 UNL     1      24.922   4.224  50.173  1.00  0.00     0.045 C 
HETATM   16  C13 UNL     1      23.926   5.200  49.703  1.00  0.00     0.067 C 
HETATM   17  C14 UNL     1      22.723   4.753  49.266  1.00  0.00     0.077 C 
HETATM   18  C15 UNL     1      22.557   3.247  49.329  1.00  0.00     0.101 C 
HETATM   19  O1  UNL     1      21.763   5.646  48.812  1.00  0.00    -0.344 OA
HETATM   20  C16 UNL     1      21.734   6.997  49.257  1.00  0.00     0.278 C 
HETATM   21  C17 UNL     1      23.117   7.534  49.345  1.00  0.00     0.248 C 
HETATM   22  O2  UNL     1      23.481   8.708  49.112  1.00  0.00    -0.271 OA
HETATM   23  N4  UNL     1      24.133   6.591  49.743  1.00  0.00    -0.314 N 
HETATM   24  H9  UNL     1      23.240   3.349  52.829  1.00  0.00     0.161 HD
ENDROOT
BRANCH  23  25
HETATM   25  C18 UNL     1      25.400   7.117  50.198  1.00  0.00     0.134 C 
BRANCH  25  26
HETATM   26  C19 UNL     1      26.519   6.912  49.216  1.00  0.00     0.040 C 
BRANCH  26  27
HETATM   27  C20 UNL     1      27.140   8.203  48.727  1.00  0.00     0.119 C 
BRANCH  27  28
HETATM   28  N5  UNL     1      28.527   8.309  49.021  1.00  0.00    -0.404 N 
HETATM   29  C21 UNL     1      28.971   9.621  49.369  1.00  0.00     0.143 C 
HETATM   30  C22 UNL     1      30.463   9.749  49.480  1.00  0.00     0.187 C 
HETATM   31  O3  UNL     1      31.108   8.516  49.411  1.00  0.00    -0.388 OA
HETATM   32  C23 UNL     1      30.817   7.987  48.155  1.00  0.00     0.192 C 
HETATM   33  C24 UNL     1      29.384   7.595  48.128  1.00  0.00     0.098 C 
HETATM   34  C25 UNL     1      28.831   7.865  46.721  1.00  0.00     0.034 C 
ENDBRANCH  27  28
ENDBRANCH  26  27
ENDBRANCH  25  26
ENDBRANCH  23  25
TORSDOF 4
ENDMDL
MODEL 5
REMARK VINA RESULT:      -7.7      5.725      9.906
REMARK  4 active torsions:
REMARK  status: ('A' for Active; 'I' for Inactive)
REMARK    1  A    between atoms: N4_23  and  C18_24 
REMARK    2  A    between atoms: C18_24  and  C19_25 
REMARK    3  A    between atoms: C19_25  and  C20_26 
REMARK    4  A    between atoms: C20_26  and  N5_27 
ROOT
HETATM    1  C1  UNL     1      26.956   8.984  43.919  1.00  0.00     0.044 C 
HETATM    2  C2  UNL     1      25.964   8.828  45.018  1.00  0.00    -0.067 C 
HETATM    3  C3  UNL     1      24.646   8.952  44.877  1.00  0.00    -0.023 C 
HETATM    4  C4  UNL     1      24.062   7.741  44.921  1.00  0.00     0.012 C 
HETATM    5  C5  UNL     1      23.821   7.593  46.340  1.00  0.00    -0.002 C 
HETATM    6  C6  UNL     1      23.164   7.594  47.530  1.00  0.00    -0.007 C 
HETATM    7  C7  UNL     1      23.410   7.320  49.018  1.00  0.00     0.148 C 
HETATM    8  N1  UNL     1      24.806   7.078  49.232  1.00  0.00    -0.371 N 
HETATM    9  C8  UNL     1      25.915   6.232  49.042  1.00  0.00     0.133 C 
HETATM   10  N2  UNL     1      25.331   5.276  49.672  1.00  0.00    -0.225 NA
HETATM   11  C9  UNL     1      26.051   4.026  49.798  1.00  0.00     0.229 C 
HETATM   12  N3  UNL     1      27.185   4.001  49.257  1.00  0.00    -0.278 NA
HETATM   13  C10 UNL     1      27.934   4.951  48.522  1.00  0.00     0.192 C 
HETATM   14  C11 UNL     1      27.244   6.267  48.493  1.00  0.00     0.009 C 
HETATM   15  C12 UNL     1      28.017   7.221  48.026  1.00  0.00     0.045 C 
HETATM   16  C13 UNL     1      28.285   8.629  47.697  1.00  0.00     0.067 C 
HETATM   17  C14 UNL     1      27.432   9.286  46.871  1.00  0.00     0.077 C 
HETATM   18  C15 UNL     1      26.267   8.446  46.384  1.00  0.00     0.101 C 
HETATM   19  O1  UNL     1      27.658  10.613  46.538  1.00  0.00    -0.344 OA
HETATM   20  C16 UNL     1      28.393  11.481  47.392  1.00  0.00     0.278 C 
HETATM   21  C17 UNL     1      29.557  10.760  47.970  1.00  0.00     0.248 C 
HETATM   22  O2  UNL     1      30.681  11.243  48.236  1.00  0.00    -0.271 OA
HETATM   23  N4  UNL     1      29.354   9.360  48.249  1.00  0.00    -0.314 N 
HETATM   24  H9  UNL     1      25.330   7.836  49.772  1.00  0.00     0.161 HD
ENDROOT
BRANCH  23  25
HETATM   25  C18 UNL     1      30.292   8.704  49.132  1.00  0.00     0.134 C 
BRANCH  25  26
HETATM   26  C19 UNL     1      31.430   8.042  48.409  1.00  0.00     0.040 C 
BRANCH  26  27
HETATM   27  C20 UNL     1      31.579   6.570  48.733  1.00  0.00     0.119 C 
BRANCH  27  28
HETATM   28  N5  UNL     1      32.933   6.150  48.836  1.00  0.00    -0.404 N 
HETATM   29  C21 UNL     1      33.901   7.177  48.614  1.00  0.00     0.143 C 
HETATM   30  C22 UNL     1      35.314   6.674  48.530  1.00  0.00     0.187 C 
HETATM   31  O3  UNL     1      35.420   5.329  48.881  1.00  0.00    -0.388 OA
HETATM   32  C23 UNL     1      34.658   4.619  47.956  1.00  0.00     0.192 C 
HETATM   33  C24 UNL     1      33.222   4.898  48.212  1.00  0.00     0.098 C 
HETATM   34  C25 UNL     1      32.484   4.930  46.865  1.00  0.00     0.034 C 
ENDBRANCH  27  28
ENDBRANCH  26  27
ENDBRANCH  25  26
ENDBRANCH  23  25
TORSDOF 4
ENDMDL
MODEL 6
REMARK VINA RESULT:      -7.5      2.571      4.108
REMARK  4 active torsions:
REMARK  status: ('A' for Active; 'I' for Inactive)
REMARK    1  A    between atoms: N4_23  and  C18_24 
REMARK    2  A    between atoms: C18_24  and  C19_25 
REMARK    3  A    between atoms: C19_25  and  C20_26 
REMARK    4  A    between atoms: C20_26  and  N5_27 
ROOT
HETATM    1  C1  UNL     1      25.060   2.625  53.527  1.00  0.00     0.044 C 
HETATM    2  C2  UNL     1      24.106   2.026  52.555  1.00  0.00    -0.067 C 
HETATM    3  C3  UNL     1      23.539   0.829  52.682  1.00  0.00    -0.023 C 
HETATM    4  C4  UNL     1      22.246   0.964  53.030  1.00  0.00     0.012 C 
HETATM    5  C5  UNL     1      21.612   1.042  51.732  1.00  0.00    -0.002 C 
HETATM    6  C6  UNL     1      20.935   0.660  50.617  1.00  0.00    -0.007 C 
HETATM    7  C7  UNL     1      20.440   1.224  49.281  1.00  0.00     0.148 C 
HETATM    8  N1  UNL     1      20.933   2.560  49.117  1.00  0.00    -0.371 N 
HETATM    9  C8  UNL     1      20.900   3.904  49.532  1.00  0.00     0.133 C 
HETATM   10  N2  UNL     1      19.651   3.994  49.243  1.00  0.00    -0.225 NA
HETATM   11  C9  UNL     1      19.001   5.264  49.492  1.00  0.00     0.229 C 
HETATM   12  N3  UNL     1      19.734   6.157  49.986  1.00  0.00    -0.278 NA
HETATM   13  C10 UNL     1      21.096   6.194  50.372  1.00  0.00     0.192 C 
HETATM   14  C11 UNL     1      21.788   4.930  50.010  1.00  0.00     0.009 C 
HETATM   15  C12 UNL     1      23.092   5.026  50.140  1.00  0.00     0.045 C 
HETATM   16  C13 UNL     1      24.452   4.479  50.012  1.00  0.00     0.067 C 
HETATM   17  C14 UNL     1      24.748   3.301  50.615  1.00  0.00     0.077 C 
HETATM   18  C15 UNL     1      23.588   2.677  51.367  1.00  0.00     0.101 C 
HETATM   19  O1  UNL     1      26.022   2.761  50.517  1.00  0.00    -0.344 OA
HETATM   20  C16 UNL     1      26.874   3.060  49.418  1.00  0.00     0.278 C 
HETATM   21  C17 UNL     1      26.760   4.498  49.062  1.00  0.00     0.248 C 
HETATM   22  O2  UNL     1      27.674   5.239  48.633  1.00  0.00    -0.271 OA
HETATM   23  N4  UNL     1      25.455   5.087  49.235  1.00  0.00    -0.314 N 
HETATM   24  H9  UNL     1      21.671   2.691  48.357  1.00  0.00     0.161 HD
ENDROOT
BRANCH  23  25
HETATM   25  C18 UNL     1      25.190   6.346  48.575  1.00  0.00     0.134 C 
BRANCH  25  26
HETATM   26  C19 UNL     1      25.055   7.501  49.525  1.00  0.00     0.040 C 
BRANCH  26  27
HETATM   27  C20 UNL     1      26.379   8.010  50.053  1.00  0.00     0.119 C 
BRANCH  27  28
HETATM   28  N5  UNL     1      26.635   9.368  49.721  1.00  0.00    -0.404 N 
HETATM   29  C21 UNL     1      25.784   9.912  48.711  1.00  0.00     0.143 C 
HETATM   30  C22 UNL     1      26.198  11.275  48.235  1.00  0.00     0.187 C 
HETATM   31  O3  UNL     1      27.217  11.821  49.013  1.00  0.00    -0.388 OA
HETATM   32  C23 UNL     1      28.314  10.972  48.880  1.00  0.00     0.192 C 
HETATM   33  C24 UNL     1      28.018   9.703  49.595  1.00  0.00     0.098 C 
HETATM   34  C25 UNL     1      28.654   8.544  48.813  1.00  0.00     0.034 C 
ENDBRANCH  27  28
ENDBRANCH  26  27
ENDBRANCH  25  26
ENDBRANCH  23  25
TORSDOF 4
ENDMDL
MODEL 7
REMARK VINA RESULT:      -7.4      2.808      6.110
REMARK  4 active torsions:
REMARK  status: ('A' for Active; 'I' for Inactive)
REMARK    1  A    between atoms: N4_23  and  C18_24 
REMARK    2  A    between atoms: C18_24  and  C19_25 
REMARK    3  A    between atoms: C19_25  and  C20_26 
REMARK    4  A    between atoms: C20_26  and  N5_27 
ROOT
HETATM    1  C1  UNL     1      16.134   3.570  51.657  1.00  0.00     0.044 C 
HETATM    2  C2  UNL     1      17.072   3.503  50.503  1.00  0.00    -0.067 C 
HETATM    3  C3  UNL     1      16.769   3.851  49.254  1.00  0.00    -0.023 C 
HETATM    4  C4  UNL     1      17.348   5.027  48.950  1.00  0.00     0.012 C 
HETATM    5  C5  UNL     1      18.627   4.588  48.437  1.00  0.00    -0.002 C 
HETATM    6  C6  UNL     1      19.598   4.251  47.547  1.00  0.00    -0.007 C 
HETATM    7  C7  UNL     1      21.044   3.743  47.509  1.00  0.00     0.148 C 
HETATM    8  N1  UNL     1      21.476   3.439  48.841  1.00  0.00    -0.371 N 
HETATM    9  C8  UNL     1      21.828   3.911  50.119  1.00  0.00     0.133 C 
HETATM   10  N2  UNL     1      22.790   4.609  49.630  1.00  0.00    -0.225 NA
HETATM   11  C9  UNL     1      23.579   5.396  50.556  1.00  0.00     0.229 C 
HETATM   12  N3  UNL     1      23.227   5.323  51.759  1.00  0.00    -0.278 NA
HETATM   13  C10 UNL     1      22.192   4.628  52.430  1.00  0.00     0.192 C 
HETATM   14  C11 UNL     1      21.457   3.734  51.497  1.00  0.00     0.009 C 
HETATM   15  C12 UNL     1      20.656   2.909  52.132  1.00  0.00     0.045 C 
HETATM   16  C13 UNL     1      19.704   1.788  52.156  1.00  0.00     0.067 C 
HETATM   17  C14 UNL     1      18.588   1.855  51.388  1.00  0.00     0.077 C 
HETATM   18  C15 UNL     1      18.471   3.126  50.569  1.00  0.00     0.101 C 
HETATM   19  O1  UNL     1      17.668   0.816  51.392  1.00  0.00    -0.344 OA
HETATM   20  C16 UNL     1      18.050  -0.515  51.714  1.00  0.00     0.278 C 
HETATM   21  C17 UNL     1      19.011  -0.509  52.847  1.00  0.00     0.248 C 
HETATM   22  O2  UNL     1      19.107  -1.368  53.753  1.00  0.00    -0.271 OA
HETATM   23  N4  UNL     1      19.921   0.608  52.893  1.00  0.00    -0.314 N 
HETATM   24  H9  UNL     1      21.620   2.403  49.056  1.00  0.00     0.161 HD
ENDROOT
BRANCH  23  25
HETATM   25  C18 UNL     1      21.094   0.490  53.730  1.00  0.00     0.134 C 
BRANCH  25  26
HETATM   26  C19 UNL     1      22.258  -0.160  53.039  1.00  0.00     0.040 C 
BRANCH  26  27
HETATM   27  C20 UNL     1      23.543  -0.109  53.838  1.00  0.00     0.119 C 
BRANCH  27  28
HETATM   28  N5  UNL     1      24.712  -0.179  53.031  1.00  0.00    -0.404 N 
HETATM   29  C21 UNL     1      25.828  -0.827  53.643  1.00  0.00     0.143 C 
HETATM   30  C22 UNL     1      27.104  -0.713  52.858  1.00  0.00     0.187 C 
HETATM   31  O3  UNL     1      26.901  -0.164  51.593  1.00  0.00    -0.388 OA
HETATM   32  C23 UNL     1      26.408   1.123  51.796  1.00  0.00     0.192 C 
HETATM   33  C24 UNL     1      25.021   1.021  52.321  1.00  0.00     0.098 C 
HETATM   34  C25 UNL     1      24.794   2.164  53.322  1.00  0.00     0.034 C 
ENDBRANCH  27  28
ENDBRANCH  26  27
ENDBRANCH  25  26
ENDBRANCH  23  25
TORSDOF 4
ENDMDL
MODEL 8
REMARK VINA RESULT:      -7.2      4.045      7.492
REMARK  4 active torsions:
REMARK  status: ('A' for Active; 'I' for Inactive)
REMARK    1  A    between atoms: N4_23  and  C18_24 
REMARK    2  A    between atoms: C18_24  and  C19_25 
REMARK    3  A    between atoms: C19_25  and  C20_26 
REMARK    4  A    between atoms: C20_26  and  N5_27 
ROOT
HETATM    1  C1  UNL     1      22.561   6.259  45.926  1.00  0.00     0.044 C 
HETATM    2  C2  UNL     1      22.319   6.095  47.386  1.00  0.00    -0.067 C 
HETATM    3  C3  UNL     1      21.124   5.919  47.945  1.00  0.00    -0.023 C 
HETATM    4  C4  UNL     1      20.982   4.640  48.336  1.00  0.00     0.012 C 
HETATM    5  C5  UNL     1      21.518   4.693  49.679  1.00  0.00    -0.002 C 
HETATM    6  C6  UNL     1      21.558   4.763  51.035  1.00  0.00    -0.007 C 
HETATM    7  C7  UNL     1      22.566   4.806  52.189  1.00  0.00     0.148 C 
HETATM    8  N1  UNL     1      23.894   4.897  51.658  1.00  0.00    -0.371 N 
HETATM    9  C8  UNL     1      24.944   4.276  50.955  1.00  0.00     0.133 C 
HETATM   10  N2  UNL     1      25.022   3.344  51.836  1.00  0.00    -0.225 NA
HETATM   11  C9  UNL     1      26.013   2.308  51.622  1.00  0.00     0.229 C 
HETATM   12  N3  UNL     1      26.694   2.424  50.573  1.00  0.00    -0.278 NA
HETATM   13  C10 UNL     1      26.702   3.367  49.517  1.00  0.00     0.192 C 
HETATM   14  C11 UNL     1      25.767   4.488  49.795  1.00  0.00     0.009 C 
HETATM   15  C12 UNL     1      25.927   5.485  48.955  1.00  0.00     0.045 C 
HETATM   16  C13 UNL     1      25.615   6.841  48.476  1.00  0.00     0.067 C 
HETATM   17  C14 UNL     1      24.328   7.156  48.187  1.00  0.00     0.077 C 
HETATM   18  C15 UNL     1      23.343   6.024  48.410  1.00  0.00     0.101 C 
HETATM   19  O1  UNL     1      24.000   8.424  47.729  1.00  0.00    -0.344 OA
HETATM   20  C16 UNL     1      24.800   9.558  48.041  1.00  0.00     0.278 C 
HETATM   21  C17 UNL     1      26.240   9.202  47.960  1.00  0.00     0.248 C 
HETATM   22  O2  UNL     1      27.176   9.943  47.583  1.00  0.00    -0.271 OA
HETATM   23  N4  UNL     1      26.579   7.859  48.362  1.00  0.00    -0.314 N 
HETATM   24  H9  UNL     1      24.393   5.827  51.815  1.00  0.00     0.161 HD
ENDROOT
BRANCH  23  25
HETATM   25  C18 UNL     1      27.965   7.572  48.656  1.00  0.00     0.134 C 
BRANCH  25  26
HETATM   26  C19 UNL     1      28.716   6.997  47.489  1.00  0.00     0.040 C 
BRANCH  26  27
HETATM   27  C20 UNL     1      30.031   7.694  47.212  1.00  0.00     0.119 C 
BRANCH  27  28
HETATM   28  N5  UNL     1      31.161   6.840  47.341  1.00  0.00    -0.404 N 
HETATM   29  C21 UNL     1      30.858   5.491  47.699  1.00  0.00     0.143 C 
HETATM   30  C22 UNL     1      32.068   4.662  48.024  1.00  0.00     0.187 C 
HETATM   31  O3  UNL     1      33.258   5.320  47.724  1.00  0.00    -0.388 OA
HETATM   32  C23 UNL     1      33.294   6.459  48.525  1.00  0.00     0.192 C 
HETATM   33  C24 UNL     1      32.271   7.417  48.030  1.00  0.00     0.098 C 
HETATM   34  C25 UNL     1      31.670   8.154  49.237  1.00  0.00     0.034 C 
ENDBRANCH  27  28
ENDBRANCH  26  27
ENDBRANCH  25  26
ENDBRANCH  23  25
TORSDOF 4
ENDMDL
MODEL 9
REMARK VINA RESULT:      -7.1      7.989     13.406
REMARK  4 active torsions:
REMARK  status: ('A' for Active; 'I' for Inactive)
REMARK    1  A    between atoms: N4_23  and  C18_24 
REMARK    2  A    between atoms: C18_24  and  C19_25 
REMARK    3  A    between atoms: C19_25  and  C20_26 
REMARK    4  A    between atoms: C20_26  and  N5_27 
ROOT
HETATM    1  C1  UNL     1      33.574   4.360  41.817  1.00  0.00     0.044 C 
HETATM    2  C2  UNL     1      34.508   5.451  42.208  1.00  0.00    -0.067 C 
HETATM    3  C3  UNL     1      35.490   5.924  41.444  1.00  0.00    -0.023 C 
HETATM    4  C4  UNL     1      35.155   7.133  40.958  1.00  0.00     0.012 C 
HETATM    5  C5  UNL     1      35.650   8.004  42.001  1.00  0.00    -0.002 C 
HETATM    6  C6  UNL     1      36.469   8.859  42.668  1.00  0.00    -0.007 C 
HETATM    7  C7  UNL     1      36.555   9.625  43.993  1.00  0.00     0.148 C 
HETATM    8  N1  UNL     1      35.464   9.237  44.838  1.00  0.00    -0.371 N 
HETATM    9  C8  UNL     1      34.078   9.257  45.083  1.00  0.00     0.133 C 
HETATM   10  N2  UNL     1      34.076  10.542  45.138  1.00  0.00    -0.225 NA
HETATM   11  C9  UNL     1      32.805  11.195  45.376  1.00  0.00     0.229 C 
HETATM   12  N3  UNL     1      31.818  10.426  45.492  1.00  0.00    -0.278 NA
HETATM   13  C10 UNL     1      31.668   9.019  45.432  1.00  0.00     0.192 C 
HETATM   14  C11 UNL     1      32.987   8.347  45.303  1.00  0.00     0.009 C 
HETATM   15  C12 UNL     1      32.899   7.048  45.481  1.00  0.00     0.045 C 
HETATM   16  C13 UNL     1      33.502   5.712  45.603  1.00  0.00     0.067 C 
HETATM   17  C14 UNL     1      34.287   5.250  44.598  1.00  0.00     0.077 C 
HETATM   18  C15 UNL     1      34.448   6.215  43.440  1.00  0.00     0.101 C 
HETATM   19  O1  UNL     1      34.867   3.993  44.680  1.00  0.00    -0.344 OA
HETATM   20  C16 UNL     1      35.139   3.379  45.934  1.00  0.00     0.278 C 
HETATM   21  C17 UNL     1      34.018   3.628  46.876  1.00  0.00     0.248 C 
HETATM   22  O2  UNL     1      33.595   2.849  47.761  1.00  0.00    -0.271 OA
HETATM   23  N4  UNL     1      33.359   4.904  46.747  1.00  0.00    -0.314 N 
HETATM   24  H9  UNL     1      35.726   8.664  45.699  1.00  0.00     0.161 HD
ENDROOT
BRANCH  23  25
HETATM   25  C18 UNL     1      32.530   5.351  47.843  1.00  0.00     0.134 C 
BRANCH  25  26
HETATM   26  C19 UNL     1      31.065   5.099  47.625  1.00  0.00     0.040 C 
BRANCH  26  27
HETATM   27  C20 UNL     1      30.170   5.874  48.569  1.00  0.00     0.119 C 
BRANCH  27  28
HETATM   28  N5  UNL     1      29.688   7.092  48.017  1.00  0.00    -0.404 N 
HETATM   29  C21 UNL     1      29.950   8.255  48.803  1.00  0.00     0.143 C 
HETATM   30  C22 UNL     1      29.263   9.494  48.305  1.00  0.00     0.187 C 
HETATM   31  O3  UNL     1      28.661   9.304  47.063  1.00  0.00    -0.388 OA
HETATM   32  C23 UNL     1      27.691   8.319  47.240  1.00  0.00     0.192 C 
HETATM   33  C24 UNL     1      28.374   7.018  47.462  1.00  0.00     0.098 C 
HETATM   34  C25 UNL     1      27.547   6.199  48.465  1.00  0.00     0.034 C 
ENDBRANCH  27  28
ENDBRANCH  26  27
ENDBRANCH  25  26
ENDBRANCH  23  25
TORSDOF 4
ENDMDL
