MODEL 1
REMARK VINA RESULT:      -8.5      0.000      0.000
REMARK  3 active torsions:
REMARK  status: ('A' for Active; 'I' for Inactive)
REMARK    1  A    between atoms: C2_2  and  N1_3 
REMARK    2  A    between atoms: N1_3  and  O1_4 
REMARK    3  A    between atoms: O1_4  and  C3_5 
ROOT
HETATM    1  C3  UNL     1      24.027   7.940  49.735  1.00  0.00     0.125 C 
HETATM    2  C4  UNL     1      25.301   8.177  50.108  1.00  0.00     0.120 C 
HETATM    3  N2  UNL     1      26.706   8.248  50.442  1.00  0.00    -0.397 N 
HETATM    4  C5  UNL     1      27.775   8.478  49.478  1.00  0.00     0.120 C 
HETATM    5  C6  UNL     1      28.063   7.260  48.589  1.00  0.00     0.039 C 
HETATM    6  C7  UNL     1      26.731   6.742  48.077  1.00  0.00     0.022 A 
HETATM    7  C8  UNL     1      26.409   7.915  47.460  1.00  0.00    -0.010 A 
HETATM    8  C9  UNL     1      25.258   7.363  47.904  1.00  0.00     0.082 A 
HETATM    9 CL1  UNL     1      24.208   8.614  47.291  1.00  0.00    -0.112 Cl
HETATM   10  C10 UNL     1      25.105   6.193  48.573  1.00  0.00     0.063 A 
HETATM   11  C11 UNL     1      25.648   5.091  49.113  1.00  0.00    -0.041 A 
HETATM   12  C12 UNL     1      26.843   5.554  48.723  1.00  0.00    -0.005 A 
HETATM   13  C13 UNL     1      25.292   3.844  49.782  1.00  0.00     0.143 C 
HETATM   14  N3  UNL     1      25.561   3.749  51.163  1.00  0.00    -0.394 N 
HETATM   15  C14 UNL     1      24.727   2.977  51.985  1.00  0.00     0.241 C 
HETATM   16  N4  UNL     1      23.684   2.221  51.383  1.00  0.00    -0.369 N 
HETATM   17  C15 UNL     1      23.044   1.142  52.110  1.00  0.00     0.151 C 
HETATM   18  C16 UNL     1      23.197   2.454  50.055  1.00  0.00     0.035 C 
HETATM   19  C17 UNL     1      22.267   1.812  49.372  1.00  0.00    -0.001 C 
HETATM   20  C18 UNL     1      21.290   0.708  49.389  1.00  0.00     0.038 C 
HETATM   21  C19 UNL     1      23.856   3.596  49.437  1.00  0.00    -0.007 C 
HETATM   22  C20 UNL     1      22.915   4.170  48.670  1.00  0.00     0.014 C 
HETATM   23  C21 UNL     1      22.794   5.134  47.533  1.00  0.00     0.298 C 
HETATM   24  N5  UNL     1      22.849   6.517  48.038  1.00  0.00     0.099 N 
HETATM   25  C22 UNL     1      23.739   6.587  49.131  1.00  0.00     0.297 C 
HETATM   26  H6  UNL     1      26.960   8.108  51.467  1.00  0.00     0.158 HD
HETATM   27  H14 UNL     1      26.561   3.790  51.425  1.00  0.00     0.155 HD
HETATM   28  H27 UNL     1      21.858   6.761  48.264  1.00  0.00     0.317 HD
ENDROOT
BRANCH   1  29
HETATM   29  O1  UNL     1      22.824   8.654  49.758  1.00  0.00    -0.239 OA
BRANCH  29  30
HETATM   30  N1  UNL     1      21.700   8.166  50.369  1.00  0.00    -0.273 N 
HETATM   31  H4  UNL     1      21.813   7.574  51.243  1.00  0.00     0.193 HD
BRANCH  30  32
HETATM   32  C2  UNL     1      20.336   8.331  50.010  1.00  0.00     0.104 C 
HETATM   33  C1  UNL     1      19.508   9.369  50.019  1.00  0.00     0.032 C 
ENDBRANCH  30  32
ENDBRANCH  29  30
ENDBRANCH   1  29
TORSDOF 3
ENDMDL
MODEL 2
REMARK VINA RESULT:      -8.5      3.633      7.353
REMARK  3 active torsions:
REMARK  status: ('A' for Active; 'I' for Inactive)
REMARK    1  A    between atoms: C2_2  and  N1_3 
REMARK    2  A    between atoms: N1_3  and  O1_4 
REMARK    3  A    between atoms: O1_4  and  C3_5 
ROOT
HETATM    1  C3  UNL     1      23.084   2.360  50.520  1.00  0.00     0.125 C 
HETATM    2  C4  UNL     1      22.183   1.361  50.426  1.00  0.00     0.120 C 
HETATM    3  N2  UNL     1      21.284   0.232  50.505  1.00  0.00    -0.397 N 
HETATM    4  C5  UNL     1      20.060   0.203  51.297  1.00  0.00     0.120 C 
HETATM    5  C6  UNL     1      20.316   0.084  52.806  1.00  0.00     0.039 C 
HETATM    6  C7  UNL     1      21.385   1.099  53.169  1.00  0.00     0.022 A 
HETATM    7  C8  UNL     1      20.652   2.163  52.732  1.00  0.00    -0.010 A 
HETATM    8  C9  UNL     1      21.953   2.446  52.498  1.00  0.00     0.082 A 
HETATM    9 CL1  UNL     1      21.675   4.029  51.820  1.00  0.00    -0.112 Cl
HETATM   10  C10 UNL     1      23.031   1.671  52.774  1.00  0.00     0.063 A 
HETATM   11  C11 UNL     1      23.540   0.534  53.274  1.00  0.00    -0.041 A 
HETATM   12  C12 UNL     1      22.284   0.153  53.542  1.00  0.00    -0.005 A 
HETATM   13  C13 UNL     1      24.808  -0.133  53.550  1.00  0.00     0.143 C 
HETATM   14  N3  UNL     1      25.166  -1.215  52.719  1.00  0.00    -0.394 N 
HETATM   15  C14 UNL     1      26.519  -1.469  52.448  1.00  0.00     0.241 C 
HETATM   16  N4  UNL     1      27.506  -0.686  53.107  1.00  0.00    -0.369 N 
HETATM   17  C15 UNL     1      28.885  -1.132  53.159  1.00  0.00     0.151 C 
HETATM   18  C16 UNL     1      27.231   0.563  53.754  1.00  0.00     0.035 C 
HETATM   19  C17 UNL     1      28.039   1.365  54.423  1.00  0.00    -0.001 C 
HETATM   20  C18 UNL     1      29.417   1.580  54.899  1.00  0.00     0.038 C 
HETATM   21  C19 UNL     1      25.837   0.954  53.590  1.00  0.00    -0.007 C 
HETATM   22  C20 UNL     1      25.856   2.293  53.501  1.00  0.00     0.014 C 
HETATM   23  C21 UNL     1      24.933   3.464  53.618  1.00  0.00     0.298 C 
HETATM   24  N5  UNL     1      24.201   3.655  52.354  1.00  0.00     0.099 N 
HETATM   25  C22 UNL     1      23.923   2.400  51.772  1.00  0.00     0.297 C 
HETATM   26  H6  UNL     1      21.555  -0.635  49.948  1.00  0.00     0.158 HD
HETATM   27  H14 UNL     1      24.540  -2.037  52.764  1.00  0.00     0.155 HD
HETATM   28  H27 UNL     1      24.812   4.280  51.780  1.00  0.00     0.317 HD
ENDROOT
BRANCH   1  29
HETATM   29  O1  UNL     1      23.473   3.439  49.718  1.00  0.00    -0.239 OA
BRANCH  29  30
HETATM   30  N1  UNL     1      24.720   3.513  49.155  1.00  0.00    -0.273 N 
HETATM   31  H4  UNL     1      25.035   2.729  48.513  1.00  0.00     0.193 HD
BRANCH  30  32
HETATM   32  C2  UNL     1      25.712   4.520  49.293  1.00  0.00     0.104 C 
HETATM   33  C1  UNL     1      27.001   4.581  48.981  1.00  0.00     0.032 C 
ENDBRANCH  30  32
ENDBRANCH  29  30
ENDBRANCH   1  29
TORSDOF 3
ENDMDL
MODEL 3
REMARK VINA RESULT:      -8.4      3.133      5.344
REMARK  3 active torsions:
REMARK  status: ('A' for Active; 'I' for Inactive)
REMARK    1  A    between atoms: C2_2  and  N1_3 
REMARK    2  A    between atoms: N1_3  and  O1_4 
REMARK    3  A    between atoms: O1_4  and  C3_5 
ROOT
HETATM    1  C3  UNL     1      23.810   3.979  52.489  1.00  0.00     0.125 C 
HETATM    2  C4  UNL     1      24.729   3.428  53.309  1.00  0.00     0.120 C 
HETATM    3  N2  UNL     1      25.656   2.663  54.112  1.00  0.00    -0.397 N 
HETATM    4  C5  UNL     1      26.907   2.099  53.619  1.00  0.00     0.120 C 
HETATM    5  C6  UNL     1      26.707   0.876  52.714  1.00  0.00     0.039 C 
HETATM    6  C7  UNL     1      25.629   1.227  51.704  1.00  0.00     0.022 A 
HETATM    7  C8  UNL     1      26.322   2.286  51.195  1.00  0.00    -0.010 A 
HETATM    8  C9  UNL     1      25.007   2.595  51.129  1.00  0.00     0.082 A 
HETATM    9 CL1  UNL     1      25.225   4.158  50.386  1.00  0.00    -0.112 Cl
HETATM   10  C10 UNL     1      23.957   1.832  51.523  1.00  0.00     0.063 A 
HETATM   11  C11 UNL     1      23.492   0.687  52.047  1.00  0.00    -0.041 A 
HETATM   12  C12 UNL     1      24.766   0.287  52.165  1.00  0.00    -0.005 A 
HETATM   13  C13 UNL     1      22.250  -0.012  52.359  1.00  0.00     0.143 C 
HETATM   14  N3  UNL     1      21.888  -0.114  53.719  1.00  0.00    -0.394 N 
HETATM   15  C14 UNL     1      20.532  -0.134  54.079  1.00  0.00     0.241 C 
HETATM   16  N4  UNL     1      19.551  -0.156  53.050  1.00  0.00    -0.369 N 
HETATM   17  C15 UNL     1      18.186  -0.545  53.344  1.00  0.00     0.151 C 
HETATM   18  C16 UNL     1      19.821   0.193  51.686  1.00  0.00     0.035 C 
HETATM   19  C17 UNL     1      19.019   0.183  50.637  1.00  0.00    -0.001 C 
HETATM   20  C18 UNL     1      17.654  -0.090  50.153  1.00  0.00     0.038 C 
HETATM   21  C19 UNL     1      21.199   0.630  51.509  1.00  0.00    -0.007 C 
HETATM   22  C20 UNL     1      21.146   1.578  50.560  1.00  0.00     0.014 C 
HETATM   23  C21 UNL     1      22.046   2.299  49.607  1.00  0.00     0.298 C 
HETATM   24  N5  UNL     1      22.729   3.405  50.300  1.00  0.00     0.099 N 
HETATM   25  C22 UNL     1      23.014   3.028  51.629  1.00  0.00     0.297 C 
HETATM   26  H6  UNL     1      25.384   2.500  55.129  1.00  0.00     0.158 HD
HETATM   27  H14 UNL     1      22.533  -0.664  54.311  1.00  0.00     0.155 HD
HETATM   28  H27 UNL     1      22.084   4.223  50.205  1.00  0.00     0.317 HD
ENDROOT
BRANCH   1  29
HETATM   29  O1  UNL     1      23.367   5.275  52.203  1.00  0.00    -0.239 OA
BRANCH  29  30
HETATM   30  N1  UNL     1      24.210   6.354  52.237  1.00  0.00    -0.273 N 
HETATM   31  H4  UNL     1      24.859   6.466  53.070  1.00  0.00     0.193 HD
BRANCH  30  32
HETATM   32  C2  UNL     1      24.369   7.402  51.293  1.00  0.00     0.104 C 
HETATM   33  C1  UNL     1      23.564   7.949  50.390  1.00  0.00     0.032 C 
ENDBRANCH  30  32
ENDBRANCH  29  30
ENDBRANCH   1  29
TORSDOF 3
ENDMDL
MODEL 4
REMARK VINA RESULT:      -8.4      3.931      6.109
REMARK  3 active torsions:
REMARK  status: ('A' for Active; 'I' for Inactive)
REMARK    1  A    between atoms: C2_2  and  N1_3 
REMARK    2  A    between atoms: N1_3  and  O1_4 
REMARK    3  A    between atoms: O1_4  and  C3_5 
ROOT
HETATM    1  C3  UNL     1      30.200   9.414  48.535  1.00  0.00     0.125 C 
HETATM    2  C4  UNL     1      30.836   8.468  49.257  1.00  0.00     0.120 C 
HETATM    3  N2  UNL     1      31.385   7.326  49.952  1.00  0.00    -0.397 N 
HETATM    4  C5  UNL     1      32.248   6.322  49.341  1.00  0.00     0.120 C 
HETATM    5  C6  UNL     1      31.500   5.369  48.399  1.00  0.00     0.039 C 
HETATM    6  C7  UNL     1      30.626   6.216  47.491  1.00  0.00     0.022 A 
HETATM    7  C8  UNL     1      31.679   6.916  46.979  1.00  0.00    -0.010 A 
HETATM    8  C9  UNL     1      30.622   7.756  47.027  1.00  0.00     0.082 A 
HETATM    9 CL1  UNL     1      31.449   9.129  46.340  1.00  0.00    -0.112 Cl
HETATM   10  C10 UNL     1      29.367   7.483  47.466  1.00  0.00     0.063 A 
HETATM   11  C11 UNL     1      28.484   6.609  47.972  1.00  0.00    -0.041 A 
HETATM   12  C12 UNL     1      29.468   5.699  47.975  1.00  0.00    -0.005 A 
HETATM   13  C13 UNL     1      27.080   6.480  48.347  1.00  0.00     0.143 C 
HETATM   14  N3  UNL     1      26.777   6.443  49.724  1.00  0.00    -0.394 N 
HETATM   15  C14 UNL     1      25.563   6.973  50.186  1.00  0.00     0.241 C 
HETATM   16  N4  UNL     1      24.617   7.444  49.235  1.00  0.00    -0.369 N 
HETATM   17  C15 UNL     1      23.233   7.650  49.614  1.00  0.00     0.151 C 
HETATM   18  C16 UNL     1      24.941   7.744  47.871  1.00  0.00     0.035 C 
HETATM   19  C17 UNL     1      24.161   8.152  46.887  1.00  0.00    -0.001 C 
HETATM   20  C18 UNL     1      22.787   8.518  46.497  1.00  0.00     0.038 C 
HETATM   21  C19 UNL     1      26.363   7.568  47.608  1.00  0.00    -0.007 C 
HETATM   22  C20 UNL     1      26.673   8.516  46.709  1.00  0.00     0.014 C 
HETATM   23  C21 UNL     1      27.746   8.854  45.724  1.00  0.00     0.298 C 
HETATM   24  N5  UNL     1      28.870   9.513  46.411  1.00  0.00     0.099 N 
HETATM   25  C22 UNL     1      29.032   8.955  47.697  1.00  0.00     0.297 C 
HETATM   26  H6  UNL     1      31.121   7.219  50.978  1.00  0.00     0.158 HD
HETATM   27  H14 UNL     1      27.154   5.631  50.241  1.00  0.00     0.155 HD
HETATM   28  H27 UNL     1      28.632  10.532  46.402  1.00  0.00     0.317 HD
ENDROOT
BRANCH   1  29
HETATM   29  O1  UNL     1      30.341  10.792  48.341  1.00  0.00    -0.239 OA
BRANCH  29  30
HETATM   30  N1  UNL     1      29.760  11.707  49.180  1.00  0.00    -0.273 N 
HETATM   31  H4  UNL     1      30.120  11.783  50.175  1.00  0.00     0.193 HD
BRANCH  30  32
HETATM   32  C2  UNL     1      28.704  12.620  48.923  1.00  0.00     0.104 C 
HETATM   33  C1  UNL     1      27.531  12.512  48.310  1.00  0.00     0.032 C 
ENDBRANCH  30  32
ENDBRANCH  29  30
ENDBRANCH   1  29
TORSDOF 3
ENDMDL
MODEL 5
REMARK VINA RESULT:      -8.4      2.961      6.784
REMARK  3 active torsions:
REMARK  status: ('A' for Active; 'I' for Inactive)
REMARK    1  A    between atoms: C2_2  and  N1_3 
REMARK    2  A    between atoms: N1_3  and  O1_4 
REMARK    3  A    between atoms: O1_4  and  C3_5 
ROOT
HETATM    1  C3  UNL     1      24.130   3.106  52.547  1.00  0.00     0.125 C 
HETATM    2  C4  UNL     1      22.869   3.583  52.502  1.00  0.00     0.120 C 
HETATM    3  N2  UNL     1      21.559   4.145  52.265  1.00  0.00    -0.397 N 
HETATM    4  C5  UNL     1      20.495   3.478  51.524  1.00  0.00     0.120 C 
HETATM    5  C6  UNL     1      20.737   3.446  50.009  1.00  0.00     0.039 C 
HETATM    6  C7  UNL     1      22.167   2.987  49.785  1.00  0.00     0.022 A 
HETATM    7  C8  UNL     1      21.981   1.796  50.423  1.00  0.00    -0.010 A 
HETATM    8  C9  UNL     1      23.255   2.182  50.655  1.00  0.00     0.082 A 
HETATM    9 CL1  UNL     1      23.699   0.786  51.602  1.00  0.00    -0.112 Cl
HETATM   10  C10 UNL     1      23.873   3.306  50.211  1.00  0.00     0.063 A 
HETATM   11  C11 UNL     1      23.830   4.448  49.508  1.00  0.00    -0.041 A 
HETATM   12  C12 UNL     1      22.551   4.162  49.224  1.00  0.00    -0.005 A 
HETATM   13  C13 UNL     1      24.664   5.564  49.076  1.00  0.00     0.143 C 
HETATM   14  N3  UNL     1      24.451   6.812  49.698  1.00  0.00    -0.394 N 
HETATM   15  C14 UNL     1      25.525   7.697  49.873  1.00  0.00     0.241 C 
HETATM   16  N4  UNL     1      26.790   7.354  49.321  1.00  0.00    -0.369 N 
HETATM   17  C15 UNL     1      27.814   8.365  49.144  1.00  0.00     0.151 C 
HETATM   18  C16 UNL     1      27.145   6.028  48.906  1.00  0.00     0.035 C 
HETATM   19  C17 UNL     1      28.259   5.585  48.354  1.00  0.00    -0.001 C 
HETATM   20  C18 UNL     1      29.604   5.948  47.872  1.00  0.00     0.038 C 
HETATM   21  C19 UNL     1      26.077   5.078  49.184  1.00  0.00    -0.007 C 
HETATM   22  C20 UNL     1      26.701   3.932  49.499  1.00  0.00     0.014 C 
HETATM   23  C21 UNL     1      26.419   2.467  49.616  1.00  0.00     0.298 C 
HETATM   24  N5  UNL     1      25.798   2.178  50.920  1.00  0.00     0.099 N 
HETATM   25  C22 UNL     1      24.952   3.245  51.290  1.00  0.00     0.297 C 
HETATM   26  H6  UNL     1      21.379   5.119  52.656  1.00  0.00     0.158 HD
HETATM   27  H14 UNL     1      23.522   7.236  49.537  1.00  0.00     0.155 HD
HETATM   28  H27 UNL     1      26.599   2.007  51.570  1.00  0.00     0.317 HD
ENDROOT
BRANCH   1  29
HETATM   29  O1  UNL     1      24.931   2.476  53.506  1.00  0.00    -0.239 OA
BRANCH  29  30
HETATM   30  N1  UNL     1      26.203   2.903  53.784  1.00  0.00    -0.273 N 
HETATM   31  H4  UNL     1      26.364   3.936  53.964  1.00  0.00     0.193 HD
BRANCH  30  32
HETATM   32  C2  UNL     1      27.404   2.152  53.880  1.00  0.00     0.104 C 
HETATM   33  C1  UNL     1      28.673   2.419  53.594  1.00  0.00     0.032 C 
ENDBRANCH  30  32
ENDBRANCH  29  30
ENDBRANCH   1  29
TORSDOF 3
ENDMDL
MODEL 6
REMARK VINA RESULT:      -8.0      1.846      2.696
REMARK  3 active torsions:
REMARK  status: ('A' for Active; 'I' for Inactive)
REMARK    1  A    between atoms: C2_2  and  N1_3 
REMARK    2  A    between atoms: N1_3  and  O1_4 
REMARK    3  A    between atoms: O1_4  and  C3_5 
ROOT
HETATM    1  C3  UNL     1      23.356   5.982  51.065  1.00  0.00     0.125 C 
HETATM    2  C4  UNL     1      24.554   6.585  50.922  1.00  0.00     0.120 C 
HETATM    3  N2  UNL     1      25.910   7.049  50.730  1.00  0.00    -0.397 N 
HETATM    4  C5  UNL     1      26.544   7.233  49.430  1.00  0.00     0.120 C 
HETATM    5  C6  UNL     1      26.916   5.912  48.742  1.00  0.00     0.039 C 
HETATM    6  C7  UNL     1      25.708   4.997  48.830  1.00  0.00     0.022 A 
HETATM    7  C8  UNL     1      24.893   5.856  48.154  1.00  0.00    -0.010 A 
HETATM    8  C9  UNL     1      24.131   5.209  49.064  1.00  0.00     0.082 A 
HETATM    9 CL1  UNL     1      22.630   5.985  48.629  1.00  0.00    -0.112 Cl
HETATM   10  C10 UNL     1      24.527   4.263  49.952  1.00  0.00     0.063 A 
HETATM   11  C11 UNL     1      25.500   3.497  50.468  1.00  0.00    -0.041 A 
HETATM   12  C12 UNL     1      26.344   4.085  49.608  1.00  0.00    -0.005 A 
HETATM   13  C13 UNL     1      25.733   2.434  51.440  1.00  0.00     0.143 C 
HETATM   14  N3  UNL     1      26.399   2.782  52.634  1.00  0.00    -0.394 N 
HETATM   15  C14 UNL     1      26.098   2.102  53.824  1.00  0.00     0.241 C 
HETATM   16  N4  UNL     1      25.199   1.001  53.773  1.00  0.00    -0.369 N 
HETATM   17  C15 UNL     1      25.140   0.050  54.865  1.00  0.00     0.151 C 
HETATM   18  C16 UNL     1      24.309   0.749  52.677  1.00  0.00     0.035 C 
HETATM   19  C17 UNL     1      23.458  -0.242  52.491  1.00  0.00    -0.001 C 
HETATM   20  C18 UNL     1      22.897  -1.484  53.053  1.00  0.00     0.038 C 
HETATM   21  C19 UNL     1      24.399   1.793  51.666  1.00  0.00    -0.007 C 
HETATM   22  C20 UNL     1      23.154   1.917  51.179  1.00  0.00     0.014 C 
HETATM   23  C21 UNL     1      22.437   2.482  49.994  1.00  0.00     0.298 C 
HETATM   24  N5  UNL     1      22.221   3.928  50.181  1.00  0.00     0.099 N 
HETATM   25  C22 UNL     1      23.322   4.487  50.863  1.00  0.00     0.297 C 
HETATM   26  H6  UNL     1      26.473   7.254  51.610  1.00  0.00     0.158 HD
HETATM   27  H14 UNL     1      27.372   3.110  52.521  1.00  0.00     0.155 HD
HETATM   28  H27 UNL     1      21.308   4.002  50.685  1.00  0.00     0.317 HD
ENDROOT
BRANCH   1  29
HETATM   29  O1  UNL     1      22.054   6.395  51.368  1.00  0.00    -0.239 OA
BRANCH  29  30
HETATM   30  N1  UNL     1      21.654   7.698  51.229  1.00  0.00    -0.273 N 
HETATM   31  H4  UNL     1      22.070   8.428  51.877  1.00  0.00     0.193 HD
BRANCH  30  32
HETATM   32  C2  UNL     1      20.729   8.263  50.313  1.00  0.00     0.104 C 
HETATM   33  C1  UNL     1      20.849   9.112  49.299  1.00  0.00     0.032 C 
ENDBRANCH  30  32
ENDBRANCH  29  30
ENDBRANCH   1  29
TORSDOF 3
ENDMDL
MODEL 7
REMARK VINA RESULT:      -7.8      3.130      4.818
REMARK  3 active torsions:
REMARK  status: ('A' for Active; 'I' for Inactive)
REMARK    1  A    between atoms: C2_2  and  N1_3 
REMARK    2  A    between atoms: N1_3  and  O1_4 
REMARK    3  A    between atoms: O1_4  and  C3_5 
ROOT
HETATM    1  C3  UNL     1      27.829   9.856  48.200  1.00  0.00     0.125 C 
HETATM    2  C4  UNL     1      28.828   9.255  48.878  1.00  0.00     0.120 C 
HETATM    3  N2  UNL     1      29.800   8.441  49.571  1.00  0.00    -0.397 N 
HETATM    4  C5  UNL     1      30.814   7.625  48.913  1.00  0.00     0.120 C 
HETATM    5  C6  UNL     1      30.245   6.359  48.258  1.00  0.00     0.039 C 
HETATM    6  C7  UNL     1      29.022   6.770  47.458  1.00  0.00     0.022 A 
HETATM    7  C8  UNL     1      29.718   7.635  46.666  1.00  0.00    -0.010 A 
HETATM    8  C9  UNL     1      28.479   8.149  46.834  1.00  0.00     0.082 A 
HETATM    9 CL1  UNL     1      28.732   9.562  45.842  1.00  0.00    -0.112 Cl
HETATM   10  C10 UNL     1      27.453   7.620  47.548  1.00  0.00     0.063 A 
HETATM   11  C11 UNL     1      26.968   6.635  48.319  1.00  0.00    -0.041 A 
HETATM   12  C12 UNL     1      28.167   6.043  48.223  1.00  0.00    -0.005 A 
HETATM   13  C13 UNL     1      25.748   6.191  48.984  1.00  0.00     0.143 C 
HETATM   14  N3  UNL     1      25.699   6.303  50.389  1.00  0.00    -0.394 N 
HETATM   15  C14 UNL     1      24.473   6.550  51.026  1.00  0.00     0.241 C 
HETATM   16  N4  UNL     1      23.288   6.577  50.242  1.00  0.00    -0.369 N 
HETATM   17  C15 UNL     1      21.987   6.456  50.869  1.00  0.00     0.151 C 
HETATM   18  C16 UNL     1      23.281   6.721  48.815  1.00  0.00     0.035 C 
HETATM   19  C17 UNL     1      22.265   6.729  47.971  1.00  0.00    -0.001 C 
HETATM   20  C18 UNL     1      20.801   6.634  47.831  1.00  0.00     0.038 C 
HETATM   21  C19 UNL     1      24.627   6.901  48.290  1.00  0.00    -0.007 C 
HETATM   22  C20 UNL     1      24.488   7.733  47.245  1.00  0.00     0.014 C 
HETATM   23  C21 UNL     1      25.234   8.183  46.030  1.00  0.00     0.298 C 
HETATM   24  N5  UNL     1      26.204   9.230  46.395  1.00  0.00     0.099 N 
HETATM   25  C22 UNL     1      26.733   8.961  47.675  1.00  0.00     0.297 C 
HETATM   26  H6  UNL     1      29.751   8.439  50.635  1.00  0.00     0.158 HD
HETATM   27  H14 UNL     1      26.381   5.723  50.906  1.00  0.00     0.155 HD
HETATM   28  H27 UNL     1      25.673  10.128  46.319  1.00  0.00     0.317 HD
ENDROOT
BRANCH   1  29
HETATM   29  O1  UNL     1      27.515  11.168  47.827  1.00  0.00    -0.239 OA
BRANCH  29  30
HETATM   30  N1  UNL     1      27.929  12.249  48.558  1.00  0.00    -0.273 N 
HETATM   31  H4  UNL     1      28.306  12.087  49.537  1.00  0.00     0.193 HD
BRANCH  30  32
HETATM   32  C2  UNL     1      27.940  13.625  48.205  1.00  0.00     0.104 C 
HETATM   33  C1  UNL     1      28.632  14.336  47.323  1.00  0.00     0.032 C 
ENDBRANCH  30  32
ENDBRANCH  29  30
ENDBRANCH   1  29
TORSDOF 3
ENDMDL
MODEL 8
REMARK VINA RESULT:      -7.6      7.573     11.098
REMARK  3 active torsions:
REMARK  status: ('A' for Active; 'I' for Inactive)
REMARK    1  A    between atoms: C2_2  and  N1_3 
REMARK    2  A    between atoms: N1_3  and  O1_4 
REMARK    3  A    between atoms: O1_4  and  C3_5 
ROOT
HETATM    1  C3  UNL     1      31.767   5.819  47.120  1.00  0.00     0.125 C 
HETATM    2  C4  UNL     1      31.868   4.481  46.979  1.00  0.00     0.120 C 
HETATM    3  N2  UNL     1      32.125   3.086  46.703  1.00  0.00    -0.397 N 
HETATM    4  C5  UNL     1      33.221   2.317  47.280  1.00  0.00     0.120 C 
HETATM    5  C6  UNL     1      34.591   2.672  46.685  1.00  0.00     0.039 C 
HETATM    6  C7  UNL     1      34.704   4.186  46.669  1.00  0.00     0.022 A 
HETATM    7  C8  UNL     1      34.549   4.303  48.019  1.00  0.00    -0.010 A 
HETATM    8  C9  UNL     1      33.982   5.391  47.452  1.00  0.00     0.082 A 
HETATM    9 CL1  UNL     1      33.501   6.146  48.949  1.00  0.00    -0.112 Cl
HETATM   10  C10 UNL     1      33.905   5.691  46.131  1.00  0.00     0.063 A 
HETATM   11  C11 UNL     1      34.177   5.373  44.856  1.00  0.00    -0.041 A 
HETATM   12  C12 UNL     1      34.759   4.256  45.315  1.00  0.00    -0.005 A 
HETATM   13  C13 UNL     1      34.054   5.882  43.494  1.00  0.00     0.143 C 
HETATM   14  N3  UNL     1      33.094   5.272  42.659  1.00  0.00    -0.394 N 
HETATM   15  C14 UNL     1      32.447   6.030  41.672  1.00  0.00     0.241 C 
HETATM   16  N4  UNL     1      32.853   7.378  41.469  1.00  0.00    -0.369 N 
HETATM   17  C15 UNL     1      32.496   8.078  40.251  1.00  0.00     0.151 C 
HETATM   18  C16 UNL     1      33.622   8.129  42.417  1.00  0.00     0.035 C 
HETATM   19  C17 UNL     1      34.088   9.362  42.340  1.00  0.00    -0.001 C 
HETATM   20  C18 UNL     1      34.177  10.578  41.511  1.00  0.00     0.038 C 
HETATM   21  C19 UNL     1      33.872   7.362  43.630  1.00  0.00    -0.007 C 
HETATM   22  C20 UNL     1      33.859   8.264  44.624  1.00  0.00     0.014 C 
HETATM   23  C21 UNL     1      34.295   8.408  46.048  1.00  0.00     0.298 C 
HETATM   24  N5  UNL     1      33.295   7.800  46.943  1.00  0.00     0.099 N 
HETATM   25  C22 UNL     1      32.740   6.658  46.328  1.00  0.00     0.297 C 
HETATM   26  H6  UNL     1      31.466   2.605  46.018  1.00  0.00     0.158 HD
HETATM   27  H14 UNL     1      33.262   4.276  42.442  1.00  0.00     0.155 HD
HETATM   28  H27 UNL     1      32.612   8.566  47.145  1.00  0.00     0.317 HD
ENDROOT
BRANCH   1  29
HETATM   29  O1  UNL     1      30.954   6.694  47.848  1.00  0.00    -0.239 OA
BRANCH  29  30
HETATM   30  N1  UNL     1      29.921   6.246  48.629  1.00  0.00    -0.273 N 
HETATM   31  H4  UNL     1      30.093   6.105  49.666  1.00  0.00     0.193 HD
BRANCH  30  32
HETATM   32  C2  UNL     1      28.588   5.925  48.260  1.00  0.00     0.104 C 
HETATM   33  C1  UNL     1      27.753   4.952  48.607  1.00  0.00     0.032 C 
ENDBRANCH  30  32
ENDBRANCH  29  30
ENDBRANCH   1  29
TORSDOF 3
ENDMDL
MODEL 9
REMARK VINA RESULT:      -7.6      3.118      6.398
REMARK  3 active torsions:
REMARK  status: ('A' for Active; 'I' for Inactive)
REMARK    1  A    between atoms: C2_2  and  N1_3 
REMARK    2  A    between atoms: N1_3  and  O1_4 
REMARK    3  A    between atoms: O1_4  and  C3_5 
ROOT
HETATM    1  C3  UNL     1      21.792   4.098  51.845  1.00  0.00     0.125 C 
HETATM    2  C4  UNL     1      21.115   3.150  52.525  1.00  0.00     0.120 C 
HETATM    3  N2  UNL     1      20.394   2.029  53.084  1.00  0.00    -0.397 N 
HETATM    4  C5  UNL     1      21.010   0.777  53.505  1.00  0.00     0.120 C 
HETATM    5  C6  UNL     1      21.447  -0.110  52.331  1.00  0.00     0.039 C 
HETATM    6  C7  UNL     1      22.202   0.769  51.350  1.00  0.00     0.022 A 
HETATM    7  C8  UNL     1      23.152   1.127  52.262  1.00  0.00    -0.010 A 
HETATM    8  C9  UNL     1      22.962   2.184  51.440  1.00  0.00     0.082 A 
HETATM    9 CL1  UNL     1      24.149   3.216  52.194  1.00  0.00    -0.112 Cl
HETATM   10  C10 UNL     1      22.111   2.271  50.387  1.00  0.00     0.063 A 
HETATM   11  C11 UNL     1      21.182   1.705  49.602  1.00  0.00    -0.041 A 
HETATM   12  C12 UNL     1      21.287   0.606  50.361  1.00  0.00    -0.005 A 
HETATM   13  C13 UNL     1      20.375   1.956  48.412  1.00  0.00     0.143 C 
HETATM   14  N3  UNL     1      18.997   2.193  48.602  1.00  0.00    -0.394 N 
HETATM   15  C14 UNL     1      18.310   3.048  47.727  1.00  0.00     0.241 C 
HETATM   16  N4  UNL     1      19.001   3.576  46.603  1.00  0.00    -0.369 N 
HETATM   17  C15 UNL     1      18.268   4.144  45.489  1.00  0.00     0.151 C 
HETATM   18  C16 UNL     1      20.430   3.588  46.481  1.00  0.00     0.035 C 
HETATM   19  C17 UNL     1      21.190   4.013  45.488  1.00  0.00    -0.001 C 
HETATM   20  C18 UNL     1      21.207   4.620  44.144  1.00  0.00     0.038 C 
HETATM   21  C19 UNL     1      21.073   3.057  47.675  1.00  0.00    -0.007 C 
HETATM   22  C20 UNL     1      22.205   3.765  47.808  1.00  0.00     0.014 C 
HETATM   23  C21 UNL     1      23.522   3.701  48.515  1.00  0.00     0.298 C 
HETATM   24  N5  UNL     1      23.372   4.182  49.899  1.00  0.00     0.099 N 
HETATM   25  C22 UNL     1      22.111   3.798  50.401  1.00  0.00     0.297 C 
HETATM   26  H6  UNL     1      19.339   2.138  53.177  1.00  0.00     0.158 HD
HETATM   27  H14 UNL     1      18.460   1.402  48.994  1.00  0.00     0.155 HD
HETATM   28  H27 UNL     1      23.527   5.215  49.845  1.00  0.00     0.317 HD
ENDROOT
BRANCH   1  29
HETATM   29  O1  UNL     1      22.311   5.365  52.136  1.00  0.00    -0.239 OA
BRANCH  29  30
HETATM   30  N1  UNL     1      21.806   6.505  51.570  1.00  0.00    -0.273 N 
HETATM   31  H4  UNL     1      20.784   6.741  51.728  1.00  0.00     0.193 HD
BRANCH  30  32
HETATM   32  C2  UNL     1      22.459   7.477  50.766  1.00  0.00     0.104 C 
HETATM   33  C1  UNL     1      23.726   7.849  50.631  1.00  0.00     0.032 C 
ENDBRANCH  30  32
ENDBRANCH  29  30
ENDBRANCH   1  29
TORSDOF 3
ENDMDL
