MODEL 1
REMARK VINA RESULT:      -7.9      0.000      0.000
REMARK  3 active torsions:
REMARK  status: ('A' for Active; 'I' for Inactive)
REMARK    1  A    between atoms: O1_1  and  C1_2 
REMARK    2  A    between atoms: C8_9  and  O2_10 
REMARK    3  A    between atoms: O2_10  and  C9_11 
ROOT
HETATM    1  C1  UNL     1      19.306   0.429  51.552  1.00  0.00     0.156 C 
HETATM    2  C2  UNL     1      20.316   0.569  52.389  1.00  0.00     0.032 C 
HETATM    3  C3  UNL     1      20.427   0.234  53.874  1.00  0.00     0.062 C 
HETATM    4  C4  UNL     1      21.441  -0.784  53.888  1.00  0.00     0.033 C 
HETATM    5  C5  UNL     1      22.126  -1.396  54.983  1.00  0.00    -0.030 C 
HETATM    6  C6  UNL     1      23.499  -1.170  54.970  1.00  0.00    -0.020 C 
HETATM    7  C7  UNL     1      24.657  -0.512  54.255  1.00  0.00     0.185 C 
HETATM    8  C8  UNL     1      24.509   0.226  53.112  1.00  0.00     0.144 C 
HETATM    9  N1  UNL     1      24.108   0.954  51.926  1.00  0.00    -0.251 NA
HETATM   10  C15 UNL     1      22.926   1.238  51.612  1.00  0.00     0.204 C 
HETATM   11  N2  UNL     1      21.571   1.121  52.003  1.00  0.00    -0.353 N 
HETATM   12  H15 UNL     1      21.159   2.103  52.073  1.00  0.00     0.166 HD
ENDROOT
BRANCH   8  13
HETATM   13  O2  UNL     1      25.592   0.844  52.438  1.00  0.00    -0.323 OA
BRANCH  13  14
HETATM   14  C9  UNL     1      26.882   0.821  52.916  1.00  0.00     0.073 A 
HETATM   15  C10 UNL     1      27.294   2.106  53.273  1.00  0.00     0.037 A 
HETATM   16  C11 UNL     1      28.566   2.347  53.787  1.00  0.00     0.004 A 
HETATM   17  C12 UNL     1      29.432   1.300  53.942  1.00  0.00     0.024 A 
HETATM   18  C13 UNL     1      29.014   0.050  53.588  1.00  0.00     0.036 A 
HETATM   19 CL1  UNL     1      30.081  -1.321  53.767  1.00  0.00    -0.084 Cl
HETATM   20  C14 UNL     1      27.766  -0.225  53.078  1.00  0.00     0.060 A 
ENDBRANCH  13  14
ENDBRANCH   8  13
BRANCH   1  21
HETATM   21  O1  UNL     1      18.295  -0.117  52.334  1.00  0.00    -0.371 OA
HETATM   22  H1  UNL     1      17.439   0.399  52.557  1.00  0.00     0.216 HD
ENDBRANCH   1  21
TORSDOF 3
ENDMDL
MODEL 2
REMARK VINA RESULT:      -7.7      3.239      7.485
REMARK  3 active torsions:
REMARK  status: ('A' for Active; 'I' for Inactive)
REMARK    1  A    between atoms: O1_1  and  C1_2 
REMARK    2  A    between atoms: C8_9  and  O2_10 
REMARK    3  A    between atoms: O2_10  and  C9_11 
ROOT
HETATM    1  C1  UNL     1      29.256  -0.624  53.939  1.00  0.00     0.156 C 
HETATM    2  C2  UNL     1      28.208   0.174  53.866  1.00  0.00     0.032 C 
HETATM    3  C3  UNL     1      28.087   1.610  53.360  1.00  0.00     0.062 C 
HETATM    4  C4  UNL     1      27.204   1.468  52.235  1.00  0.00     0.033 C 
HETATM    5  C5  UNL     1      26.562   2.460  51.430  1.00  0.00    -0.030 C 
HETATM    6  C6  UNL     1      25.173   2.405  51.494  1.00  0.00    -0.020 C 
HETATM    7  C7  UNL     1      23.969   1.709  52.085  1.00  0.00     0.185 C 
HETATM    8  C8  UNL     1      24.065   0.658  52.956  1.00  0.00     0.144 C 
HETATM    9  N1  UNL     1      24.415  -0.425  53.853  1.00  0.00    -0.251 NA
HETATM   10  C15 UNL     1      25.565  -0.651  54.306  1.00  0.00     0.204 C 
HETATM   11  N2  UNL     1      26.909  -0.211  54.307  1.00  0.00    -0.353 N 
HETATM   12  H15 UNL     1      27.196  -0.019  55.316  1.00  0.00     0.166 HD
ENDROOT
BRANCH   8  13
HETATM   13  O2  UNL     1      22.939   0.001  53.514  1.00  0.00    -0.323 OA
BRANCH  13  14
HETATM   14  C9  UNL     1      21.696   0.019  52.925  1.00  0.00     0.073 A 
HETATM   15  C10 UNL     1      20.750  -0.577  53.761  1.00  0.00     0.037 A 
HETATM   16  C11 UNL     1      19.411  -0.682  53.389  1.00  0.00     0.004 A 
HETATM   17  C12 UNL     1      19.016  -0.191  52.176  1.00  0.00     0.024 A 
HETATM   18  C13 UNL     1      19.953   0.388  51.370  1.00  0.00     0.036 A 
HETATM   19 CL1  UNL     1      19.499   1.032  49.811  1.00  0.00    -0.084 Cl
HETATM   20  C14 UNL     1      21.282   0.510  51.704  1.00  0.00     0.060 A 
ENDBRANCH  13  14
ENDBRANCH   8  13
BRANCH   1  21
HETATM   21  O1  UNL     1      30.298   0.144  53.432  1.00  0.00    -0.371 OA
HETATM   22  H1  UNL     1      31.279  -0.121  53.554  1.00  0.00     0.216 HD
ENDBRANCH   1  21
TORSDOF 3
ENDMDL
MODEL 3
REMARK VINA RESULT:      -7.5      4.555      6.232
REMARK  3 active torsions:
REMARK  status: ('A' for Active; 'I' for Inactive)
REMARK    1  A    between atoms: O1_1  and  C1_2 
REMARK    2  A    between atoms: C8_9  and  O2_10 
REMARK    3  A    between atoms: O2_10  and  C9_11 
ROOT
HETATM    1  C1  UNL     1      26.570  -0.113  54.991  1.00  0.00     0.156 C 
HETATM    2  C2  UNL     1      26.025   0.093  53.807  1.00  0.00     0.032 C 
HETATM    3  C3  UNL     1      24.648  -0.288  53.270  1.00  0.00     0.062 C 
HETATM    4  C4  UNL     1      24.050   0.993  53.013  1.00  0.00     0.033 C 
HETATM    5  C5  UNL     1      22.832   1.331  52.346  1.00  0.00    -0.030 C 
HETATM    6  C6  UNL     1      23.025   2.099  51.201  1.00  0.00    -0.020 C 
HETATM    7  C7  UNL     1      24.030   2.773  50.296  1.00  0.00     0.185 C 
HETATM    8  C8  UNL     1      25.380   2.731  50.514  1.00  0.00     0.144 C 
HETATM    9  N1  UNL     1      26.751   2.549  50.946  1.00  0.00    -0.251 NA
HETATM   10  C15 UNL     1      27.134   1.739  51.827  1.00  0.00     0.204 C 
HETATM   11  N2  UNL     1      26.709   0.749  52.743  1.00  0.00    -0.353 N 
HETATM   12  H15 UNL     1      27.238  -0.152  52.530  1.00  0.00     0.166 HD
ENDROOT
BRANCH   8  13
HETATM   13  O2  UNL     1      26.327   3.362  49.668  1.00  0.00    -0.323 OA
BRANCH  13  14
HETATM   14  C9  UNL     1      26.367   4.724  49.475  1.00  0.00     0.073 A 
HETATM   15  C10 UNL     1      27.441   5.070  48.653  1.00  0.00     0.037 A 
HETATM   16  C11 UNL     1      27.697   6.395  48.307  1.00  0.00     0.004 A 
HETATM   17  C12 UNL     1      26.876   7.379  48.785  1.00  0.00     0.024 A 
HETATM   18  C13 UNL     1      25.831   7.024  49.587  1.00  0.00     0.036 A 
HETATM   19 CL1  UNL     1      24.754   8.243  50.224  1.00  0.00    -0.084 Cl
HETATM   20  C14 UNL     1      25.548   5.727  49.949  1.00  0.00     0.060 A 
ENDBRANCH  13  14
ENDBRANCH   8  13
BRANCH   1  21
HETATM   21  O1  UNL     1      25.584  -0.788  55.701  1.00  0.00    -0.371 OA
HETATM   22  H1  UNL     1      25.296  -0.501  56.641  1.00  0.00     0.216 HD
ENDBRANCH   1  21
TORSDOF 3
ENDMDL
MODEL 4
REMARK VINA RESULT:      -7.4      3.439      4.726
REMARK  3 active torsions:
REMARK  status: ('A' for Active; 'I' for Inactive)
REMARK    1  A    between atoms: O1_1  and  C1_2 
REMARK    2  A    between atoms: C8_9  and  O2_10 
REMARK    3  A    between atoms: O2_10  and  C9_11 
ROOT
HETATM    1  C1  UNL     1      21.953   6.185  51.507  1.00  0.00     0.156 C 
HETATM    2  C2  UNL     1      22.682   5.173  51.077  1.00  0.00     0.032 C 
HETATM    3  C3  UNL     1      23.331   4.926  49.717  1.00  0.00     0.062 C 
HETATM    4  C4  UNL     1      24.732   4.914  50.039  1.00  0.00     0.033 C 
HETATM    5  C5  UNL     1      25.864   4.566  49.240  1.00  0.00    -0.030 C 
HETATM    6  C6  UNL     1      26.572   3.474  49.735  1.00  0.00    -0.020 C 
HETATM    7  C7  UNL     1      26.668   2.427  50.820  1.00  0.00     0.185 C 
HETATM    8  C8  UNL     1      25.776   2.335  51.853  1.00  0.00     0.144 C 
HETATM    9  N1  UNL     1      24.718   2.435  52.839  1.00  0.00    -0.251 NA
HETATM   10  C15 UNL     1      23.684   3.139  52.726  1.00  0.00     0.204 C 
HETATM   11  N2  UNL     1      22.991   4.042  51.886  1.00  0.00    -0.353 N 
HETATM   12  H15 UNL     1      22.021   3.642  51.695  1.00  0.00     0.166 HD
ENDROOT
BRANCH   8  13
HETATM   13  O2  UNL     1      25.862   1.355  52.874  1.00  0.00    -0.323 OA
BRANCH  13  14
HETATM   14  C9  UNL     1      27.020   0.667  53.154  1.00  0.00     0.073 A 
HETATM   15  C10 UNL     1      27.973   1.519  53.713  1.00  0.00     0.037 A 
HETATM   16  C11 UNL     1      29.234   1.059  54.085  1.00  0.00     0.004 A 
HETATM   17  C12 UNL     1      29.544  -0.260  53.897  1.00  0.00     0.024 A 
HETATM   18  C13 UNL     1      28.601  -1.080  53.350  1.00  0.00     0.036 A 
HETATM   19 CL1  UNL     1      28.948  -2.773  53.090  1.00  0.00    -0.084 Cl
HETATM   20  C14 UNL     1      27.346  -0.661  52.971  1.00  0.00     0.060 A 
ENDBRANCH  13  14
ENDBRANCH   8  13
BRANCH   1  21
HETATM   21  O1  UNL     1      21.884   7.038  50.412  1.00  0.00    -0.371 OA
HETATM   22  H1  UNL     1      22.657   7.660  50.157  1.00  0.00     0.216 HD
ENDBRANCH   1  21
TORSDOF 3
ENDMDL
MODEL 5
REMARK VINA RESULT:      -7.2      4.408      6.148
REMARK  3 active torsions:
REMARK  status: ('A' for Active; 'I' for Inactive)
REMARK    1  A    between atoms: O1_1  and  C1_2 
REMARK    2  A    between atoms: C8_9  and  O2_10 
REMARK    3  A    between atoms: O2_10  and  C9_11 
ROOT
HETATM    1  C1  UNL     1      22.804   7.924  50.358  1.00  0.00     0.156 C 
HETATM    2  C2  UNL     1      23.408   6.850  49.885  1.00  0.00     0.032 C 
HETATM    3  C3  UNL     1      24.237   6.656  48.618  1.00  0.00     0.062 C 
HETATM    4  C4  UNL     1      25.532   6.320  49.143  1.00  0.00     0.033 C 
HETATM    5  C5  UNL     1      26.710   5.856  48.479  1.00  0.00    -0.030 C 
HETATM    6  C6  UNL     1      27.111   4.589  48.891  1.00  0.00    -0.020 C 
HETATM    7  C7  UNL     1      26.823   3.411  49.794  1.00  0.00     0.185 C 
HETATM    8  C8  UNL     1      25.756   3.368  50.650  1.00  0.00     0.144 C 
HETATM    9  N1  UNL     1      24.574   3.551  51.467  1.00  0.00    -0.251 NA
HETATM   10  C15 UNL     1      23.718   4.458  51.314  1.00  0.00     0.204 C 
HETATM   11  N2  UNL     1      23.360   5.584  50.536  1.00  0.00    -0.353 N 
HETATM   12  H15 UNL     1      22.385   5.418  50.138  1.00  0.00     0.166 HD
ENDROOT
BRANCH   8  13
HETATM   13  O2  UNL     1      25.482   2.266  51.499  1.00  0.00    -0.323 OA
BRANCH  13  14
HETATM   14  C9  UNL     1      26.457   1.612  52.215  1.00  0.00     0.073 A 
HETATM   15  C10 UNL     1      26.353   0.232  52.036  1.00  0.00     0.037 A 
HETATM   16  C11 UNL     1      27.230  -0.653  52.659  1.00  0.00     0.004 A 
HETATM   17  C12 UNL     1      28.217  -0.156  53.466  1.00  0.00     0.024 A 
HETATM   18  C13 UNL     1      28.305   1.196  53.630  1.00  0.00     0.036 A 
HETATM   19 CL1  UNL     1      29.547   1.881  54.649  1.00  0.00    -0.084 Cl
HETATM   20  C14 UNL     1      27.457   2.099  53.031  1.00  0.00     0.060 A 
ENDBRANCH  13  14
ENDBRANCH   8  13
BRANCH   1  21
HETATM   21  O1  UNL     1      23.087   8.908  49.419  1.00  0.00    -0.371 OA
HETATM   22  H1  UNL     1      23.991   9.389  49.389  1.00  0.00     0.216 HD
ENDBRANCH   1  21
TORSDOF 3
ENDMDL
MODEL 6
REMARK VINA RESULT:      -7.1      3.372      4.299
REMARK  3 active torsions:
REMARK  status: ('A' for Active; 'I' for Inactive)
REMARK    1  A    between atoms: O1_1  and  C1_2 
REMARK    2  A    between atoms: C8_9  and  O2_10 
REMARK    3  A    between atoms: O2_10  and  C9_11 
ROOT
HETATM    1  C1  UNL     1      18.802  -0.957  53.075  1.00  0.00     0.156 C 
HETATM    2  C2  UNL     1      19.872  -0.191  53.166  1.00  0.00     0.032 C 
HETATM    3  C3  UNL     1      20.995  -0.174  54.200  1.00  0.00     0.062 C 
HETATM    4  C4  UNL     1      22.146  -0.521  53.413  1.00  0.00     0.033 C 
HETATM    5  C5  UNL     1      23.535  -0.514  53.749  1.00  0.00    -0.030 C 
HETATM    6  C6  UNL     1      24.284   0.369  52.977  1.00  0.00    -0.020 C 
HETATM    7  C7  UNL     1      24.265   1.394  51.866  1.00  0.00     0.185 C 
HETATM    8  C8  UNL     1      23.124   1.756  51.203  1.00  0.00     0.144 C 
HETATM    9  N1  UNL     1      21.802   1.976  50.652  1.00  0.00    -0.251 NA
HETATM   10  C15 UNL     1      20.727   1.567  51.156  1.00  0.00     0.204 C 
HETATM   11  N2  UNL     1      20.162   0.849  52.236  1.00  0.00    -0.353 N 
HETATM   12  H15 UNL     1      19.459   1.483  52.727  1.00  0.00     0.166 HD
ENDROOT
BRANCH   8  13
HETATM   13  O2  UNL     1      23.101   2.716  50.160  1.00  0.00    -0.323 OA
BRANCH  13  14
HETATM   14  C9  UNL     1      24.060   3.693  50.020  1.00  0.00     0.073 A 
HETATM   15  C10 UNL     1      23.636   4.884  50.612  1.00  0.00     0.037 A 
HETATM   16  C11 UNL     1      24.433   6.026  50.604  1.00  0.00     0.004 A 
HETATM   17  C12 UNL     1      25.660   5.979  50.001  1.00  0.00     0.024 A 
HETATM   18  C13 UNL     1      26.059   4.807  49.427  1.00  0.00     0.036 A 
HETATM   19 CL1  UNL     1      27.617   4.694  48.643  1.00  0.00    -0.084 Cl
HETATM   20  C14 UNL     1      25.299   3.660  49.415  1.00  0.00     0.060 A 
ENDBRANCH  13  14
ENDBRANCH   8  13
BRANCH   1  21
HETATM   21  O1  UNL     1      18.900  -1.802  54.174  1.00  0.00    -0.371 OA
HETATM   22  H1  UNL     1      18.158  -2.464  54.421  1.00  0.00     0.216 HD
ENDBRANCH   1  21
TORSDOF 3
ENDMDL
MODEL 7
REMARK VINA RESULT:      -7.1      9.333     10.971
REMARK  3 active torsions:
REMARK  status: ('A' for Active; 'I' for Inactive)
REMARK    1  A    between atoms: O1_1  and  C1_2 
REMARK    2  A    between atoms: C8_9  and  O2_10 
REMARK    3  A    between atoms: O2_10  and  C9_11 
ROOT
HETATM    1  C1  UNL     1      26.371   8.166  50.130  1.00  0.00     0.156 C 
HETATM    2  C2  UNL     1      27.410   8.139  49.317  1.00  0.00     0.032 C 
HETATM    3  C3  UNL     1      28.293   9.271  48.799  1.00  0.00     0.062 C 
HETATM    4  C4  UNL     1      29.578   8.940  49.351  1.00  0.00     0.033 C 
HETATM    5  C5  UNL     1      30.866   9.507  49.106  1.00  0.00    -0.030 C 
HETATM    6  C6  UNL     1      31.772   8.602  48.562  1.00  0.00    -0.020 C 
HETATM    7  C7  UNL     1      31.999   7.186  48.083  1.00  0.00     0.185 C 
HETATM    8  C8  UNL     1      31.027   6.223  48.106  1.00  0.00     0.144 C 
HETATM    9  N1  UNL     1      29.853   5.384  48.227  1.00  0.00    -0.251 NA
HETATM   10  C15 UNL     1      28.690   5.792  48.473  1.00  0.00     0.204 C 
HETATM   11  N2  UNL     1      27.902   6.938  48.729  1.00  0.00    -0.353 N 
HETATM   12  H15 UNL     1      27.122   6.975  48.003  1.00  0.00     0.166 HD
ENDROOT
BRANCH   8  13
HETATM   13  O2  UNL     1      31.236   4.894  47.659  1.00  0.00    -0.323 OA
BRANCH  13  14
HETATM   14  C9  UNL     1      32.361   4.504  46.971  1.00  0.00     0.073 A 
HETATM   15  C10 UNL     1      33.148   3.661  47.757  1.00  0.00     0.037 A 
HETATM   16  C11 UNL     1      34.345   3.129  47.283  1.00  0.00     0.004 A 
HETATM   17  C12 UNL     1      34.759   3.443  46.018  1.00  0.00     0.024 A 
HETATM   18  C13 UNL     1      33.979   4.269  45.262  1.00  0.00     0.036 A 
HETATM   19 CL1  UNL     1      34.463   4.700  43.640  1.00  0.00    -0.084 Cl
HETATM   20  C14 UNL     1      32.791   4.812  45.697  1.00  0.00     0.060 A 
ENDBRANCH  13  14
ENDBRANCH   8  13
BRANCH   1  21
HETATM   21  O1  UNL     1      26.226   9.511  50.445  1.00  0.00    -0.371 OA
HETATM   22  H1  UNL     1      26.267   9.853  51.410  1.00  0.00     0.216 HD
ENDBRANCH   1  21
TORSDOF 3
ENDMDL
MODEL 8
REMARK VINA RESULT:      -7.1      3.380      7.079
REMARK  3 active torsions:
REMARK  status: ('A' for Active; 'I' for Inactive)
REMARK    1  A    between atoms: O1_1  and  C1_2 
REMARK    2  A    between atoms: C8_9  and  O2_10 
REMARK    3  A    between atoms: O2_10  and  C9_11 
ROOT
HETATM    1  C1  UNL     1      28.791   2.482  53.833  1.00  0.00     0.156 C 
HETATM    2  C2  UNL     1      27.870   1.610  53.470  1.00  0.00     0.032 C 
HETATM    3  C3  UNL     1      27.595   0.193  53.967  1.00  0.00     0.062 C 
HETATM    4  C4  UNL     1      26.284   0.315  54.541  1.00  0.00     0.033 C 
HETATM    5  C5  UNL     1      25.388  -0.687  55.028  1.00  0.00    -0.030 C 
HETATM    6  C6  UNL     1      24.188  -0.742  54.324  1.00  0.00    -0.020 C 
HETATM    7  C7  UNL     1      23.368  -0.166  53.192  1.00  0.00     0.185 C 
HETATM    8  C8  UNL     1      23.810   0.851  52.390  1.00  0.00     0.144 C 
HETATM    9  N1  UNL     1      24.486   1.918  51.681  1.00  0.00    -0.251 NA
HETATM   10  C15 UNL     1      25.702   2.212  51.796  1.00  0.00     0.204 C 
HETATM   11  N2  UNL     1      26.911   1.875  52.451  1.00  0.00    -0.353 N 
HETATM   12  H15 UNL     1      27.645   1.663  51.707  1.00  0.00     0.166 HD
ENDROOT
BRANCH   8  13
HETATM   13  O2  UNL     1      23.045   1.395  51.328  1.00  0.00    -0.323 OA
BRANCH  13  14
HETATM   14  C9  UNL     1      21.677   1.527  51.383  1.00  0.00     0.073 A 
HETATM   15  C10 UNL     1      21.326   2.807  51.816  1.00  0.00     0.037 A 
HETATM   16  C11 UNL     1      19.994   3.190  51.955  1.00  0.00     0.004 A 
HETATM   17  C12 UNL     1      19.007   2.290  51.661  1.00  0.00     0.024 A 
HETATM   18  C13 UNL     1      19.367   1.044  51.238  1.00  0.00     0.036 A 
HETATM   19 CL1  UNL     1      18.145  -0.142  50.849  1.00  0.00    -0.084 Cl
HETATM   20  C14 UNL     1      20.671   0.630  51.089  1.00  0.00     0.060 A 
ENDBRANCH  13  14
ENDBRANCH   8  13
BRANCH   1  21
HETATM   21  O1  UNL     1      29.511   1.819  54.819  1.00  0.00    -0.371 OA
HETATM   22  H1  UNL     1      29.208   1.806  55.798  1.00  0.00     0.216 HD
ENDBRANCH   1  21
TORSDOF 3
ENDMDL
MODEL 9
REMARK VINA RESULT:      -7.0      4.515      6.426
REMARK  3 active torsions:
REMARK  status: ('A' for Active; 'I' for Inactive)
REMARK    1  A    between atoms: O1_1  and  C1_2 
REMARK    2  A    between atoms: C8_9  and  O2_10 
REMARK    3  A    between atoms: O2_10  and  C9_11 
ROOT
HETATM    1  C1  UNL     1      26.448   7.725  47.911  1.00  0.00     0.156 C 
HETATM    2  C2  UNL     1      26.296   7.031  49.023  1.00  0.00     0.032 C 
HETATM    3  C3  UNL     1      25.520   7.355  50.296  1.00  0.00     0.062 C 
HETATM    4  C4  UNL     1      24.519   6.325  50.320  1.00  0.00     0.033 C 
HETATM    5  C5  UNL     1      23.582   5.966  51.338  1.00  0.00    -0.030 C 
HETATM    6  C6  UNL     1      23.762   4.673  51.822  1.00  0.00    -0.020 C 
HETATM    7  C7  UNL     1      24.575   3.401  51.735  1.00  0.00     0.185 C 
HETATM    8  C8  UNL     1      25.631   3.245  50.879  1.00  0.00     0.144 C 
HETATM    9  N1  UNL     1      26.698   3.315  49.903  1.00  0.00    -0.251 NA
HETATM   10  C15 UNL     1      27.098   4.362  49.336  1.00  0.00     0.204 C 
HETATM   11  N2  UNL     1      26.905   5.760  49.231  1.00  0.00    -0.353 N 
HETATM   12  H15 UNL     1      27.829   6.242  49.459  1.00  0.00     0.166 HD
ENDROOT
BRANCH   8  13
HETATM   13  O2  UNL     1      26.395   2.054  50.794  1.00  0.00    -0.323 OA
BRANCH  13  14
HETATM   14  C9  UNL     1      27.003   1.475  51.884  1.00  0.00     0.073 A 
HETATM   15  C10 UNL     1      26.563   0.161  52.049  1.00  0.00     0.037 A 
HETATM   16  C11 UNL     1      27.033  -0.641  53.087  1.00  0.00     0.004 A 
HETATM   17  C12 UNL     1      27.948  -0.126  53.964  1.00  0.00     0.024 A 
HETATM   18  C13 UNL     1      28.367   1.160  53.789  1.00  0.00     0.036 A 
HETATM   19 CL1  UNL     1      29.533   1.864  54.883  1.00  0.00    -0.084 Cl
HETATM   20  C14 UNL     1      27.925   1.981  52.776  1.00  0.00     0.060 A 
ENDBRANCH  13  14
ENDBRANCH   8  13
BRANCH   1  21
HETATM   21  O1  UNL     1      25.717   8.885  48.138  1.00  0.00    -0.371 OA
HETATM   22  H1  UNL     1      24.917   9.148  47.555  1.00  0.00     0.216 HD
ENDBRANCH   1  21
TORSDOF 3
ENDMDL
