MODEL 1
REMARK VINA RESULT:      -7.6      0.000      0.000
REMARK  2 active torsions:
REMARK  status: ('A' for Active; 'I' for Inactive)
REMARK    1  A    between atoms: C5_6  and  N1_7 
REMARK    2  A    between atoms: N1_7  and  C6_8 
ROOT
HETATM    1  C6  UNL     1      24.025   1.327  52.011  1.00  0.00     0.174 C 
HETATM    2  C7  UNL     1      23.852   2.531  52.924  1.00  0.00     0.092 C 
HETATM    3  S1  UNL     1      23.505   3.775  51.957  1.00  0.00    -0.078 SA
HETATM    4  C8  UNL     1      21.823   4.309  52.160  1.00  0.00     0.059 C 
HETATM    5  C9  UNL     1      20.680   3.595  52.292  1.00  0.00     0.008 C 
HETATM    6  C10 UNL     1      20.296   2.151  52.304  1.00  0.00     0.008 C 
HETATM    7  C11 UNL     1      21.042   1.142  51.769  1.00  0.00    -0.051 C 
HETATM    8  C12 UNL     1      21.893   0.949  50.535  1.00  0.00     0.037 C 
HETATM    9  C13 UNL     1      23.016   1.665  50.903  1.00  0.00     0.069 C 
HETATM   10  N2  UNL     1      23.552   2.944  50.413  1.00  0.00    -0.332 N 
HETATM   11  C14 UNL     1      20.774   0.182  52.919  1.00  0.00     0.091 C 
HETATM   12  P1  UNL     1      22.433  -0.087  53.747  1.00  0.00    -0.028 P 
HETATM   13  N3  UNL     1      23.810   0.155  52.716  1.00  0.00    -0.365 N 
HETATM   14  H10 UNL     1      23.940   3.806  49.956  1.00  0.00     0.174 HD
HETATM   15  H13 UNL     1      22.410  -1.486  54.162  1.00  0.00     0.080 HD
HETATM   16  H14 UNL     1      24.642  -0.319  53.048  1.00  0.00     0.161 HD
ENDROOT
BRANCH   1  17
HETATM   17  N1  UNL     1      25.381   1.321  51.513  1.00  0.00    -0.355 N 
HETATM   18  H4  UNL     1      25.593   1.745  50.584  1.00  0.00     0.163 HD
BRANCH  17  19
HETATM   19  C5  UNL     1      26.464   0.760  52.228  1.00  0.00     0.032 A 
HETATM   20  C4  UNL     1      26.733  -0.588  52.283  1.00  0.00     0.029 A 
HETATM   21  C3  UNL     1      27.780  -1.146  52.969  1.00  0.00     0.004 A 
HETATM   22  C2  UNL     1      28.646  -0.325  53.669  1.00  0.00     0.024 A 
HETATM   23  C1  UNL     1      28.427   1.030  53.651  1.00  0.00     0.036 A 
HETATM   24 CL1  UNL     1      29.500   2.115  54.524  1.00  0.00    -0.084 Cl
HETATM   25  C15 UNL     1      27.351   1.536  52.938  1.00  0.00     0.053 A 
ENDBRANCH  17  19
ENDBRANCH   1  17
TORSDOF 2
ENDMDL
MODEL 2
REMARK VINA RESULT:      -7.4      2.166      2.810
REMARK  2 active torsions:
REMARK  status: ('A' for Active; 'I' for Inactive)
REMARK    1  A    between atoms: C5_6  and  N1_7 
REMARK    2  A    between atoms: N1_7  and  C6_8 
ROOT
HETATM    1  C6  UNL     1      23.195   2.499  51.718  1.00  0.00     0.174 C 
HETATM    2  C7  UNL     1      21.956   3.320  52.040  1.00  0.00     0.092 C 
HETATM    3  S1  UNL     1      22.471   4.832  52.267  1.00  0.00    -0.078 SA
HETATM    4  C8  UNL     1      21.939   5.906  50.955  1.00  0.00     0.059 C 
HETATM    5  C9  UNL     1      21.899   5.711  49.616  1.00  0.00     0.008 C 
HETATM    6  C10 UNL     1      22.270   4.620  48.665  1.00  0.00     0.008 C 
HETATM    7  C11 UNL     1      23.155   3.618  48.936  1.00  0.00    -0.051 C 
HETATM    8  C12 UNL     1      24.476   3.494  49.659  1.00  0.00     0.037 C 
HETATM    9  C13 UNL     1      24.039   3.543  50.970  1.00  0.00     0.069 C 
HETATM   10  N2  UNL     1      24.187   4.580  52.002  1.00  0.00    -0.332 N 
HETATM   11  C14 UNL     1      22.316   2.541  48.264  1.00  0.00     0.091 C 
HETATM   12  P1  UNL     1      21.788   1.383  49.639  1.00  0.00    -0.028 P 
HETATM   13  N3  UNL     1      22.846   1.358  51.017  1.00  0.00    -0.365 N 
HETATM   14  H10 UNL     1      24.410   5.308  52.725  1.00  0.00     0.174 HD
HETATM   15  H13 UNL     1      21.802   0.059  49.025  1.00  0.00     0.080 HD
HETATM   16  H14 UNL     1      22.760   0.511  51.567  1.00  0.00     0.161 HD
ENDROOT
BRANCH   1  17
HETATM   17  N1  UNL     1      23.817   2.103  52.960  1.00  0.00    -0.355 N 
HETATM   18  H4  UNL     1      23.341   2.308  53.866  1.00  0.00     0.163 HD
BRANCH  17  19
HETATM   19  C5  UNL     1      25.063   1.438  53.022  1.00  0.00     0.032 A 
HETATM   20  C4  UNL     1      25.227   0.090  52.801  1.00  0.00     0.029 A 
HETATM   21  C3  UNL     1      26.428  -0.568  52.857  1.00  0.00     0.004 A 
HETATM   22  C2  UNL     1      27.577   0.143  53.154  1.00  0.00     0.024 A 
HETATM   23  C1  UNL     1      27.475   1.493  53.385  1.00  0.00     0.036 A 
HETATM   24 CL1  UNL     1      28.906   2.440  53.768  1.00  0.00    -0.084 Cl
HETATM   25  C15 UNL     1      26.232   2.102  53.315  1.00  0.00     0.053 A 
ENDBRANCH  17  19
ENDBRANCH   1  17
TORSDOF 2
ENDMDL
MODEL 3
REMARK VINA RESULT:      -7.3      3.562      4.835
REMARK  2 active torsions:
REMARK  status: ('A' for Active; 'I' for Inactive)
REMARK    1  A    between atoms: C5_6  and  N1_7 
REMARK    2  A    between atoms: N1_7  and  C6_8 
ROOT
HETATM    1  C6  UNL     1      24.485   4.413  51.286  1.00  0.00     0.174 C 
HETATM    2  C7  UNL     1      23.539   3.809  50.260  1.00  0.00     0.092 C 
HETATM    3  S1  UNL     1      22.205   4.717  50.295  1.00  0.00    -0.078 SA
HETATM    4  C8  UNL     1      22.027   5.671  48.807  1.00  0.00     0.059 C 
HETATM    5  C9  UNL     1      22.941   6.360  48.085  1.00  0.00     0.008 C 
HETATM    6  C10 UNL     1      24.402   6.658  48.183  1.00  0.00     0.008 C 
HETATM    7  C11 UNL     1      25.136   6.592  49.331  1.00  0.00    -0.051 C 
HETATM    8  C12 UNL     1      24.925   6.947  50.784  1.00  0.00     0.037 C 
HETATM    9  C13 UNL     1      24.112   5.899  51.173  1.00  0.00     0.069 C 
HETATM   10  N2  UNL     1      22.687   5.862  51.534  1.00  0.00    -0.332 N 
HETATM   11  C14 UNL     1      26.340   5.948  48.659  1.00  0.00     0.091 C 
HETATM   12  P1  UNL     1      26.476   4.233  49.401  1.00  0.00    -0.028 P 
HETATM   13  N3  UNL     1      25.793   4.073  50.991  1.00  0.00    -0.365 N 
HETATM   14  H10 UNL     1      21.696   5.912  51.878  1.00  0.00     0.174 HD
HETATM   15  H13 UNL     1      27.912   3.989  49.491  1.00  0.00     0.080 HD
HETATM   16  H14 UNL     1      26.172   3.286  51.507  1.00  0.00     0.161 HD
ENDROOT
BRANCH   1  17
HETATM   17  N1  UNL     1      24.153   3.878  52.585  1.00  0.00    -0.355 N 
HETATM   18  H4  UNL     1      23.716   4.496  53.304  1.00  0.00     0.163 HD
BRANCH  17  19
HETATM   19  C5  UNL     1      24.390   2.533  52.951  1.00  0.00     0.032 A 
HETATM   20  C4  UNL     1      23.492   1.511  52.749  1.00  0.00     0.029 A 
HETATM   21  C3  UNL     1      23.709   0.203  53.096  1.00  0.00     0.004 A 
HETATM   22  C2  UNL     1      24.904  -0.149  53.696  1.00  0.00     0.024 A 
HETATM   23  C1  UNL     1      25.841   0.829  53.923  1.00  0.00     0.036 A 
HETATM   24 CL1  UNL     1      27.376   0.431  54.682  1.00  0.00    -0.084 Cl
HETATM   25  C15 UNL     1      25.563   2.135  53.550  1.00  0.00     0.053 A 
ENDBRANCH  17  19
ENDBRANCH   1  17
TORSDOF 2
ENDMDL
MODEL 4
REMARK VINA RESULT:      -7.2      9.189     11.461
REMARK  2 active torsions:
REMARK  status: ('A' for Active; 'I' for Inactive)
REMARK    1  A    between atoms: C5_6  and  N1_7 
REMARK    2  A    between atoms: N1_7  and  C6_8 
ROOT
HETATM    1  C6  UNL     1      32.049   6.388  47.184  1.00  0.00     0.174 C 
HETATM    2  C7  UNL     1      33.486   6.735  47.539  1.00  0.00     0.092 C 
HETATM    3  S1  UNL     1      33.898   5.747  48.745  1.00  0.00    -0.078 SA
HETATM    4  C8  UNL     1      35.097   4.544  48.222  1.00  0.00     0.059 C 
HETATM    5  C9  UNL     1      35.177   3.815  47.084  1.00  0.00     0.008 C 
HETATM    6  C10 UNL     1      34.366   3.651  45.839  1.00  0.00     0.008 C 
HETATM    7  C11 UNL     1      33.045   3.967  45.723  1.00  0.00    -0.051 C 
HETATM    8  C12 UNL     1      31.813   3.847  46.589  1.00  0.00     0.037 C 
HETATM    9  C13 UNL     1      32.042   4.880  47.478  1.00  0.00     0.069 C 
HETATM   10  N2  UNL     1      32.388   4.868  48.907  1.00  0.00    -0.332 N 
HETATM   11  C14 UNL     1      33.196   4.578  44.337  1.00  0.00     0.091 C 
HETATM   12  P1  UNL     1      32.806   6.399  44.544  1.00  0.00    -0.028 P 
HETATM   13  N3  UNL     1      31.768   6.773  45.885  1.00  0.00    -0.365 N 
HETATM   14  H10 UNL     1      32.535   4.800  49.945  1.00  0.00     0.174 HD
HETATM   15  H13 UNL     1      32.116   6.765  43.312  1.00  0.00     0.080 HD
HETATM   16  H14 UNL     1      31.292   7.663  45.782  1.00  0.00     0.161 HD
ENDROOT
BRANCH   1  17
HETATM   17  N1  UNL     1      31.170   7.108  48.077  1.00  0.00    -0.355 N 
HETATM   18  H4  UNL     1      31.574   7.739  48.804  1.00  0.00     0.163 HD
BRANCH  17  19
HETATM   19  C5  UNL     1      29.762   7.005  48.025  1.00  0.00     0.032 A 
HETATM   20  C4  UNL     1      28.937   7.990  47.531  1.00  0.00     0.029 A 
HETATM   21  C3  UNL     1      27.570   7.904  47.472  1.00  0.00     0.004 A 
HETATM   22  C2  UNL     1      26.943   6.761  47.933  1.00  0.00     0.024 A 
HETATM   23  C1  UNL     1      27.715   5.743  48.438  1.00  0.00     0.036 A 
HETATM   24 CL1  UNL     1      26.964   4.271  49.037  1.00  0.00    -0.084 Cl
HETATM   25  C15 UNL     1      29.093   5.889  48.472  1.00  0.00     0.053 A 
ENDBRANCH  17  19
ENDBRANCH   1  17
TORSDOF 2
ENDMDL
MODEL 5
REMARK VINA RESULT:      -7.1      3.284      4.000
REMARK  2 active torsions:
REMARK  status: ('A' for Active; 'I' for Inactive)
REMARK    1  A    between atoms: C5_6  and  N1_7 
REMARK    2  A    between atoms: N1_7  and  C6_8 
ROOT
HETATM    1  C6  UNL     1      24.022   4.020  51.139  1.00  0.00     0.174 C 
HETATM    2  C7  UNL     1      24.162   5.529  51.010  1.00  0.00     0.092 C 
HETATM    3  S1  UNL     1      25.272   5.776  49.865  1.00  0.00    -0.078 SA
HETATM    4  C8  UNL     1      24.549   6.460  48.393  1.00  0.00     0.059 C 
HETATM    5  C9  UNL     1      23.397   6.153  47.751  1.00  0.00     0.008 C 
HETATM    6  C10 UNL     1      22.286   5.169  47.924  1.00  0.00     0.008 C 
HETATM    7  C11 UNL     1      22.377   4.007  48.632  1.00  0.00    -0.051 C 
HETATM    8  C12 UNL     1      23.417   2.929  48.834  1.00  0.00     0.037 C 
HETATM    9  C13 UNL     1      24.282   3.588  49.688  1.00  0.00     0.069 C 
HETATM   10  N2  UNL     1      25.642   4.106  49.477  1.00  0.00    -0.332 N 
HETATM   11  C14 UNL     1      20.997   4.148  49.259  1.00  0.00     0.091 C 
HETATM   12  P1  UNL     1      21.298   4.374  51.094  1.00  0.00    -0.028 P 
HETATM   13  N3  UNL     1      22.789   3.696  51.676  1.00  0.00    -0.365 N 
HETATM   14  H10 UNL     1      26.644   4.365  49.299  1.00  0.00     0.174 HD
HETATM   15  H13 UNL     1      20.193   3.668  51.733  1.00  0.00     0.080 HD
HETATM   16  H14 UNL     1      22.777   3.510  52.673  1.00  0.00     0.161 HD
ENDROOT
BRANCH   1  17
HETATM   17  N1  UNL     1      25.052   3.540  52.030  1.00  0.00    -0.355 N 
HETATM   18  H4  UNL     1      25.672   4.221  52.521  1.00  0.00     0.163 HD
BRANCH  17  19
HETATM   19  C5  UNL     1      25.277   2.167  52.283  1.00  0.00     0.032 A 
HETATM   20  C4  UNL     1      26.355   1.463  51.798  1.00  0.00     0.029 A 
HETATM   21  C3  UNL     1      26.587   0.133  52.037  1.00  0.00     0.004 A 
HETATM   22  C2  UNL     1      25.694  -0.582  52.814  1.00  0.00     0.024 A 
HETATM   23  C1  UNL     1      24.598   0.068  53.325  1.00  0.00     0.036 A 
HETATM   24 CL1  UNL     1      23.434  -0.797  54.319  1.00  0.00    -0.084 Cl
HETATM   25  C15 UNL     1      24.417   1.415  53.050  1.00  0.00     0.053 A 
ENDBRANCH  17  19
ENDBRANCH   1  17
TORSDOF 2
ENDMDL
MODEL 6
REMARK VINA RESULT:      -7.1      2.814      3.770
REMARK  2 active torsions:
REMARK  status: ('A' for Active; 'I' for Inactive)
REMARK    1  A    between atoms: C5_6  and  N1_7 
REMARK    2  A    between atoms: N1_7  and  C6_8 
ROOT
HETATM    1  C6  UNL     1      25.094   3.162  51.489  1.00  0.00     0.174 C 
HETATM    2  C7  UNL     1      24.491   2.175  50.502  1.00  0.00     0.092 C 
HETATM    3  S1  UNL     1      22.901   2.182  50.781  1.00  0.00    -0.078 SA
HETATM    4  C8  UNL     1      22.008   2.933  49.441  1.00  0.00     0.059 C 
HETATM    5  C9  UNL     1      22.275   4.043  48.714  1.00  0.00     0.008 C 
HETATM    6  C10 UNL     1      23.331   5.101  48.695  1.00  0.00     0.008 C 
HETATM    7  C11 UNL     1      24.144   5.410  49.746  1.00  0.00    -0.051 C 
HETATM    8  C12 UNL     1      23.994   5.529  51.244  1.00  0.00     0.037 C 
HETATM    9  C13 UNL     1      23.957   4.191  51.589  1.00  0.00     0.069 C 
HETATM   10  N2  UNL     1      22.858   3.350  52.089  1.00  0.00    -0.332 N 
HETATM   11  C14 UNL     1      25.386   5.575  48.882  1.00  0.00     0.091 C 
HETATM   12  P1  UNL     1      26.547   4.199  49.401  1.00  0.00    -0.028 P 
HETATM   13  N3  UNL     1      26.313   3.622  51.023  1.00  0.00    -0.365 N 
HETATM   14  H10 UNL     1      22.066   2.826  52.536  1.00  0.00     0.174 HD
HETATM   15  H13 UNL     1      27.877   4.794  49.313  1.00  0.00     0.080 HD
HETATM   16  H14 UNL     1      27.133   3.160  51.402  1.00  0.00     0.161 HD
ENDROOT
BRANCH   1  17
HETATM   17  N1  UNL     1      25.309   2.482  52.744  1.00  0.00    -0.355 N 
HETATM   18  H4  UNL     1      24.909   2.878  53.624  1.00  0.00     0.163 HD
BRANCH  17  19
HETATM   19  C5  UNL     1      26.046   1.281  52.856  1.00  0.00     0.032 A 
HETATM   20  C4  UNL     1      25.499   0.027  52.713  1.00  0.00     0.029 A 
HETATM   21  C3  UNL     1      26.202  -1.146  52.816  1.00  0.00     0.004 A 
HETATM   22  C2  UNL     1      27.558  -1.102  53.084  1.00  0.00     0.024 A 
HETATM   23  C1  UNL     1      28.160   0.124  53.238  1.00  0.00     0.036 A 
HETATM   24 CL1  UNL     1      29.881   0.232  53.579  1.00  0.00    -0.084 Cl
HETATM   25  C15 UNL     1      27.396   1.275  53.122  1.00  0.00     0.053 A 
ENDBRANCH  17  19
ENDBRANCH   1  17
TORSDOF 2
ENDMDL
MODEL 7
REMARK VINA RESULT:      -6.9      3.489      4.661
REMARK  2 active torsions:
REMARK  status: ('A' for Active; 'I' for Inactive)
REMARK    1  A    between atoms: C5_6  and  N1_7 
REMARK    2  A    between atoms: N1_7  and  C6_8 
ROOT
HETATM    1  C6  UNL     1      21.408   2.597  51.249  1.00  0.00     0.174 C 
HETATM    2  C7  UNL     1      20.623   3.843  50.871  1.00  0.00     0.092 C 
HETATM    3  S1  UNL     1      21.480   5.094  51.422  1.00  0.00    -0.078 SA
HETATM    4  C8  UNL     1      22.190   6.035  50.092  1.00  0.00     0.059 C 
HETATM    5  C9  UNL     1      22.791   5.631  48.948  1.00  0.00     0.008 C 
HETATM    6  C10 UNL     1      23.149   4.328  48.310  1.00  0.00     0.008 C 
HETATM    7  C11 UNL     1      23.284   3.146  48.975  1.00  0.00    -0.051 C 
HETATM    8  C12 UNL     1      23.849   2.697  50.302  1.00  0.00     0.037 C 
HETATM    9  C13 UNL     1      22.846   3.128  51.150  1.00  0.00     0.069 C 
HETATM   10  N2  UNL     1      22.816   4.213  52.142  1.00  0.00    -0.332 N 
HETATM   11  C14 UNL     1      22.586   2.329  47.896  1.00  0.00     0.091 C 
HETATM   12  P1  UNL     1      21.010   1.694  48.686  1.00  0.00    -0.028 P 
HETATM   13  N3  UNL     1      21.071   1.545  50.416  1.00  0.00    -0.365 N 
HETATM   14  H10 UNL     1      22.886   4.934  52.903  1.00  0.00     0.174 HD
HETATM   15  H13 UNL     1      20.830   0.362  48.117  1.00  0.00     0.080 HD
HETATM   16  H14 UNL     1      20.385   0.894  50.782  1.00  0.00     0.161 HD
ENDROOT
BRANCH   1  17
HETATM   17  N1  UNL     1      21.067   2.236  52.606  1.00  0.00    -0.355 N 
HETATM   18  H4  UNL     1      20.507   2.894  53.192  1.00  0.00     0.163 HD
BRANCH  17  19
HETATM   19  C5  UNL     1      21.456   1.015  53.202  1.00  0.00     0.032 A 
HETATM   20  C4  UNL     1      20.571   0.056  53.638  1.00  0.00     0.029 A 
HETATM   21  C3  UNL     1      20.934  -1.133  54.216  1.00  0.00     0.004 A 
HETATM   22  C2  UNL     1      22.276  -1.421  54.388  1.00  0.00     0.024 A 
HETATM   23  C1  UNL     1      23.206  -0.501  53.972  1.00  0.00     0.036 A 
HETATM   24 CL1  UNL     1      24.923  -0.821  54.169  1.00  0.00    -0.084 Cl
HETATM   25  C15 UNL     1      22.778   0.684  53.394  1.00  0.00     0.053 A 
ENDBRANCH  17  19
ENDBRANCH   1  17
TORSDOF 2
ENDMDL
MODEL 8
REMARK VINA RESULT:      -6.8      3.977      4.816
REMARK  2 active torsions:
REMARK  status: ('A' for Active; 'I' for Inactive)
REMARK    1  A    between atoms: C5_6  and  N1_7 
REMARK    2  A    between atoms: N1_7  and  C6_8 
ROOT
HETATM    1  C6  UNL     1      23.912   4.540  51.169  1.00  0.00     0.174 C 
HETATM    2  C7  UNL     1      22.845   4.924  52.181  1.00  0.00     0.092 C 
HETATM    3  S1  UNL     1      21.476   5.089  51.343  1.00  0.00    -0.078 SA
HETATM    4  C8  UNL     1      20.320   3.793  51.721  1.00  0.00     0.059 C 
HETATM    5  C9  UNL     1      20.509   2.463  51.889  1.00  0.00     0.008 C 
HETATM    6  C10 UNL     1      21.659   1.512  51.820  1.00  0.00     0.008 C 
HETATM    7  C11 UNL     1      22.825   1.746  51.152  1.00  0.00    -0.051 C 
HETATM    8  C12 UNL     1      23.224   2.387  49.843  1.00  0.00     0.037 C 
HETATM    9  C13 UNL     1      23.076   3.721  50.174  1.00  0.00     0.069 C 
HETATM   10  N2  UNL     1      22.089   4.721  49.741  1.00  0.00    -0.332 N 
HETATM   11  C14 UNL     1      23.703   1.149  52.243  1.00  0.00     0.091 C 
HETATM   12  P1  UNL     1      24.714   2.576  52.914  1.00  0.00    -0.028 P 
HETATM   13  N3  UNL     1      24.957   3.884  51.797  1.00  0.00    -0.365 N 
HETATM   14  H10 UNL     1      21.422   5.415  49.322  1.00  0.00     0.174 HD
HETATM   15  H13 UNL     1      26.014   1.987  53.221  1.00  0.00     0.080 HD
HETATM   16  H14 UNL     1      25.763   4.456  52.024  1.00  0.00     0.161 HD
ENDROOT
BRANCH   1  17
HETATM   17  N1  UNL     1      24.425   5.748  50.565  1.00  0.00    -0.355 N 
HETATM   18  H4  UNL     1      23.899   6.643  50.669  1.00  0.00     0.163 HD
BRANCH  17  19
HETATM   19  C5  UNL     1      25.627   5.791  49.822  1.00  0.00     0.032 A 
HETATM   20  C4  UNL     1      26.313   4.673  49.406  1.00  0.00     0.029 A 
HETATM   21  C3  UNL     1      27.478   4.699  48.684  1.00  0.00     0.004 A 
HETATM   22  C2  UNL     1      28.032   5.916  48.334  1.00  0.00     0.024 A 
HETATM   23  C1  UNL     1      27.391   7.068  48.722  1.00  0.00     0.036 A 
HETATM   24 CL1  UNL     1      28.055   8.640  48.302  1.00  0.00    -0.084 Cl
HETATM   25  C15 UNL     1      26.215   6.978  49.451  1.00  0.00     0.053 A 
ENDBRANCH  17  19
ENDBRANCH   1  17
TORSDOF 2
ENDMDL
MODEL 9
REMARK VINA RESULT:      -6.8      3.372      4.849
REMARK  2 active torsions:
REMARK  status: ('A' for Active; 'I' for Inactive)
REMARK    1  A    between atoms: C5_6  and  N1_7 
REMARK    2  A    between atoms: N1_7  and  C6_8 
ROOT
HETATM    1  C6  UNL     1      23.190   3.443  50.366  1.00  0.00     0.174 C 
HETATM    2  C7  UNL     1      22.296   4.034  49.288  1.00  0.00     0.092 C 
HETATM    3  S1  UNL     1      20.921   4.446  50.026  1.00  0.00    -0.078 SA
HETATM    4  C8  UNL     1      20.733   6.211  50.113  1.00  0.00     0.059 C 
HETATM    5  C9  UNL     1      21.631   7.182  50.402  1.00  0.00     0.008 C 
HETATM    6  C10 UNL     1      23.074   7.248  50.783  1.00  0.00     0.008 C 
HETATM    7  C11 UNL     1      23.784   6.220  51.328  1.00  0.00    -0.051 C 
HETATM    8  C12 UNL     1      23.525   5.131  52.343  1.00  0.00     0.037 C 
HETATM    9  C13 UNL     1      22.752   4.273  51.582  1.00  0.00     0.069 C 
HETATM   10  N2  UNL     1      21.323   3.935  51.656  1.00  0.00    -0.332 N 
HETATM   11  C14 UNL     1      25.031   6.491  50.499  1.00  0.00     0.091 C 
HETATM   12  P1  UNL     1      25.228   4.999  49.382  1.00  0.00    -0.028 P 
HETATM   13  N3  UNL     1      24.519   3.535  49.992  1.00  0.00    -0.365 N 
HETATM   14  H10 UNL     1      20.323   3.659  51.819  1.00  0.00     0.174 HD
HETATM   15  H13 UNL     1      26.671   4.805  49.287  1.00  0.00     0.080 HD
HETATM   16  H14 UNL     1      24.921   2.699  49.582  1.00  0.00     0.161 HD
ENDROOT
BRANCH   1  17
HETATM   17  N1  UNL     1      22.853   2.047  50.525  1.00  0.00    -0.355 N 
HETATM   18  H4  UNL     1      22.255   1.574  49.813  1.00  0.00     0.163 HD
BRANCH  17  19
HETATM   19  C5  UNL     1      23.297   1.264  51.616  1.00  0.00     0.032 A 
HETATM   20  C4  UNL     1      24.617   1.141  51.986  1.00  0.00     0.029 A 
HETATM   21  C3  UNL     1      25.062   0.388  53.041  1.00  0.00     0.004 A 
HETATM   22  C2  UNL     1      24.148  -0.311  53.809  1.00  0.00     0.024 A 
HETATM   23  C1  UNL     1      22.815  -0.226  53.486  1.00  0.00     0.036 A 
HETATM   24 CL1  UNL     1      21.615  -1.095  54.431  1.00  0.00    -0.084 Cl
HETATM   25  C15 UNL     1      22.426   0.552  52.407  1.00  0.00     0.053 A 
ENDBRANCH  17  19
ENDBRANCH   1  17
TORSDOF 2
ENDMDL
