MODEL 1
REMARK VINA RESULT:      -7.7      0.000      0.000
REMARK  2 active torsions:
REMARK  status: ('A' for Active; 'I' for Inactive)
REMARK    1  A    between atoms: O1_2  and  C2_3 
REMARK    2  A    between atoms: C9_12  and  O2_13 
ROOT
HETATM    1  C2  UNL     1      25.306   2.573  51.465  1.00  0.00     0.104 A 
HETATM    2  C3  UNL     1      26.498   2.298  52.101  1.00  0.00     0.072 A 
HETATM    3  C4  UNL     1      26.535   1.303  53.056  1.00  0.00     0.075 A 
HETATM    4  N1  UNL     1      27.766   1.148  53.616  1.00  0.00    -0.241 NA
HETATM    5  C5  UNL     1      27.947   0.226  54.576  1.00  0.00     0.236 A 
HETATM    6  N2  UNL     1      26.916  -0.517  54.958  1.00  0.00    -0.224 NA
HETATM    7  C6  UNL     1      25.668  -0.399  54.429  1.00  0.00     0.142 A 
HETATM    8  C7  UNL     1      25.415   0.543  53.421  1.00  0.00     0.052 A 
HETATM    9  C8  UNL     1      24.251   0.859  52.748  1.00  0.00     0.022 A 
HETATM   10  C9  UNL     1      24.178   1.850  51.794  1.00  0.00     0.113 A 
HETATM   11  C11 UNL     1      22.871   0.312  52.671  1.00  0.00    -0.048 C 
HETATM   12  C12 UNL     1      22.231   0.507  51.362  1.00  0.00     0.049 C 
HETATM   13  C13 UNL     1      22.186  -0.379  53.605  1.00  0.00     0.009 C 
HETATM   14  C14 UNL     1      22.369  -0.892  54.962  1.00  0.00     0.018 C 
HETATM   15  C15 UNL     1      23.521  -1.268  55.520  1.00  0.00     0.090 C 
HETATM   16  N3  UNL     1      24.913  -1.366  55.201  1.00  0.00    -0.350 N 
HETATM   17  H15 UNL     1      25.425  -2.184  55.561  1.00  0.00     0.166 HD
ENDROOT
BRANCH   1  18
HETATM   18  O1  UNL     1      25.282   3.583  50.503  1.00  0.00    -0.353 OA
HETATM   19  C1  UNL     1      26.389   3.895  49.709  1.00  0.00     0.210 C 
ENDBRANCH   1  18
BRANCH  10  20
HETATM   20  O2  UNL     1      23.036   2.229  51.091  1.00  0.00    -0.352 OA
HETATM   21  C10 UNL     1      22.567   3.572  51.409  1.00  0.00     0.210 C 
ENDBRANCH  10  20
TORSDOF 2
ENDMDL
MODEL 2
REMARK VINA RESULT:      -7.7      1.989      3.373
REMARK  2 active torsions:
REMARK  status: ('A' for Active; 'I' for Inactive)
REMARK    1  A    between atoms: O1_2  and  C2_3 
REMARK    2  A    between atoms: C9_12  and  O2_13 
ROOT
HETATM    1  C2  UNL     1      24.339   1.282  51.881  1.00  0.00     0.104 A 
HETATM    2  C3  UNL     1      24.658   0.600  53.036  1.00  0.00     0.072 A 
HETATM    3  C4  UNL     1      23.693  -0.171  53.648  1.00  0.00     0.075 A 
HETATM    4  N1  UNL     1      24.135  -0.773  54.787  1.00  0.00    -0.241 NA
HETATM    5  C5  UNL     1      23.295  -1.543  55.499  1.00  0.00     0.236 A 
HETATM    6  N2  UNL     1      22.048  -1.699  55.076  1.00  0.00    -0.224 NA
HETATM    7  C6  UNL     1      21.559  -1.118  53.946  1.00  0.00     0.142 A 
HETATM    8  C7  UNL     1      22.387  -0.306  53.157  1.00  0.00     0.052 A 
HETATM    9  C8  UNL     1      22.126   0.395  51.995  1.00  0.00     0.022 A 
HETATM   10  C9  UNL     1      23.065   1.178  51.361  1.00  0.00     0.113 A 
HETATM   11  C11 UNL     1      20.996   0.504  51.035  1.00  0.00    -0.048 C 
HETATM   12  C12 UNL     1      21.418   0.781  49.655  1.00  0.00     0.049 C 
HETATM   13  C13 UNL     1      19.680   0.317  51.261  1.00  0.00     0.009 C 
HETATM   14  C14 UNL     1      18.780  -0.036  52.359  1.00  0.00     0.018 C 
HETATM   15  C15 UNL     1      19.076  -0.800  53.412  1.00  0.00     0.090 C 
HETATM   16  N3  UNL     1      20.173  -1.542  53.956  1.00  0.00    -0.350 N 
HETATM   17  H15 UNL     1      19.961  -2.444  54.403  1.00  0.00     0.166 HD
ENDROOT
BRANCH   1  18
HETATM   18  O1  UNL     1      25.325   2.059  51.272  1.00  0.00    -0.353 OA
HETATM   19  C1  UNL     1      26.634   2.133  51.756  1.00  0.00     0.210 C 
ENDBRANCH   1  18
BRANCH  10  20
HETATM   20  O2  UNL     1      22.864   1.921  50.199  1.00  0.00    -0.352 OA
HETATM   21  C10 UNL     1      22.885   3.363  50.412  1.00  0.00     0.210 C 
ENDBRANCH  10  20
TORSDOF 2
ENDMDL
MODEL 3
REMARK VINA RESULT:      -7.2      1.647      4.040
REMARK  2 active torsions:
REMARK  status: ('A' for Active; 'I' for Inactive)
REMARK    1  A    between atoms: O1_2  and  C2_3 
REMARK    2  A    between atoms: C9_12  and  O2_13 
ROOT
HETATM    1  C2  UNL     1      21.630   1.820  51.897  1.00  0.00     0.104 A 
HETATM    2  C3  UNL     1      21.210   0.980  52.907  1.00  0.00     0.072 A 
HETATM    3  C4  UNL     1      22.149   0.248  53.603  1.00  0.00     0.075 A 
HETATM    4  N1  UNL     1      21.599  -0.552  54.557  1.00  0.00    -0.241 NA
HETATM    5  C5  UNL     1      22.393  -1.338  55.304  1.00  0.00     0.236 A 
HETATM    6  N2  UNL     1      23.702  -1.317  55.092  1.00  0.00    -0.224 NA
HETATM    7  C6  UNL     1      24.299  -0.535  54.151  1.00  0.00     0.142 A 
HETATM    8  C7  UNL     1      23.525   0.309  53.342  1.00  0.00     0.052 A 
HETATM    9  C8  UNL     1      23.887   1.171  52.324  1.00  0.00     0.022 A 
HETATM   10  C9  UNL     1      22.976   1.912  51.605  1.00  0.00     0.113 A 
HETATM   11  C11 UNL     1      25.159   1.677  51.746  1.00  0.00    -0.048 C 
HETATM   12  C12 UNL     1      25.061   3.041  51.207  1.00  0.00     0.049 C 
HETATM   13  C13 UNL     1      26.368   1.080  51.720  1.00  0.00     0.009 C 
HETATM   14  C14 UNL     1      27.003  -0.161  52.161  1.00  0.00     0.018 C 
HETATM   15  C15 UNL     1      26.655  -0.898  53.217  1.00  0.00     0.090 C 
HETATM   16  N3  UNL     1      25.693  -0.910  54.278  1.00  0.00    -0.350 N 
HETATM   17  H15 UNL     1      26.014  -1.222  55.205  1.00  0.00     0.166 HD
ENDROOT
BRANCH   1  18
HETATM   18  O1  UNL     1      20.671   2.554  51.200  1.00  0.00    -0.353 OA
HETATM   19  C1  UNL     1      19.997   3.642  51.762  1.00  0.00     0.210 C 
ENDBRANCH   1  18
BRANCH  10  20
HETATM   20  O2  UNL     1      23.272   2.785  50.560  1.00  0.00    -0.352 OA
HETATM   21  C10 UNL     1      22.751   2.354  49.269  1.00  0.00     0.210 C 
ENDBRANCH  10  20
TORSDOF 2
ENDMDL
MODEL 4
REMARK VINA RESULT:      -7.2      2.396      4.754
REMARK  2 active torsions:
REMARK  status: ('A' for Active; 'I' for Inactive)
REMARK    1  A    between atoms: O1_2  and  C2_3 
REMARK    2  A    between atoms: C9_12  and  O2_13 
ROOT
HETATM    1  C2  UNL     1      26.692   0.087  53.617  1.00  0.00     0.104 A 
HETATM    2  C3  UNL     1      25.649  -0.631  54.162  1.00  0.00     0.072 A 
HETATM    3  C4  UNL     1      24.354  -0.237  53.900  1.00  0.00     0.075 A 
HETATM    4  N1  UNL     1      23.425  -1.020  54.513  1.00  0.00    -0.241 NA
HETATM    5  C5  UNL     1      22.119  -0.742  54.361  1.00  0.00     0.236 A 
HETATM    6  N2  UNL     1      21.763   0.295  53.614  1.00  0.00    -0.224 NA
HETATM    7  C6  UNL     1      22.654   1.107  52.982  1.00  0.00     0.142 A 
HETATM    8  C7  UNL     1      24.031   0.867  53.098  1.00  0.00     0.052 A 
HETATM    9  C8  UNL     1      25.116   1.546  52.576  1.00  0.00     0.022 A 
HETATM   10  C9  UNL     1      26.421   1.182  52.822  1.00  0.00     0.113 A 
HETATM   11  C11 UNL     1      25.326   2.661  51.616  1.00  0.00    -0.048 C 
HETATM   12  C12 UNL     1      26.580   2.559  50.857  1.00  0.00     0.049 C 
HETATM   13  C13 UNL     1      24.498   3.683  51.320  1.00  0.00     0.009 C 
HETATM   14  C14 UNL     1      23.175   4.185  51.693  1.00  0.00     0.018 C 
HETATM   15  C15 UNL     1      22.137   3.455  52.105  1.00  0.00     0.090 C 
HETATM   16  N3  UNL     1      21.789   2.091  52.363  1.00  0.00    -0.350 N 
HETATM   17  H15 UNL     1      20.842   1.785  52.100  1.00  0.00     0.166 HD
ENDROOT
BRANCH   1  18
HETATM   18  O1  UNL     1      27.998  -0.322  53.891  1.00  0.00    -0.353 OA
HETATM   19  C1  UNL     1      28.620  -1.370  53.208  1.00  0.00     0.210 C 
ENDBRANCH   1  18
BRANCH  10  20
HETATM   20  O2  UNL     1      27.558   1.830  52.340  1.00  0.00    -0.352 OA
HETATM   21  C10 UNL     1      28.388   2.415  53.385  1.00  0.00     0.210 C 
ENDBRANCH  10  20
TORSDOF 2
ENDMDL
MODEL 5
REMARK VINA RESULT:      -7.2      2.865      4.311
REMARK  2 active torsions:
REMARK  status: ('A' for Active; 'I' for Inactive)
REMARK    1  A    between atoms: O1_2  and  C2_3 
REMARK    2  A    between atoms: C9_12  and  O2_13 
ROOT
HETATM    1  C2  UNL     1      25.796   1.056  52.560  1.00  0.00     0.104 A 
HETATM    2  C3  UNL     1      25.106   2.059  51.911  1.00  0.00     0.072 A 
HETATM    3  C4  UNL     1      23.736   2.129  52.052  1.00  0.00     0.075 A 
HETATM    4  N1  UNL     1      23.180   3.152  51.346  1.00  0.00    -0.241 NA
HETATM    5  C5  UNL     1      21.849   3.332  51.375  1.00  0.00     0.236 A 
HETATM    6  N2  UNL     1      21.103   2.504  52.095  1.00  0.00    -0.224 NA
HETATM    7  C6  UNL     1      21.611   1.468  52.817  1.00  0.00     0.142 A 
HETATM    8  C7  UNL     1      22.992   1.230  52.830  1.00  0.00     0.052 A 
HETATM    9  C8  UNL     1      23.737   0.251  53.460  1.00  0.00     0.022 A 
HETATM   10  C9  UNL     1      25.105   0.148  53.336  1.00  0.00     0.113 A 
HETATM   11  C11 UNL     1      23.477  -0.830  54.446  1.00  0.00    -0.048 C 
HETATM   12  C12 UNL     1      24.622  -1.121  55.320  1.00  0.00     0.049 C 
HETATM   13  C13 UNL     1      22.331  -1.505  54.672  1.00  0.00     0.009 C 
HETATM   14  C14 UNL     1      20.954  -1.552  54.179  1.00  0.00     0.018 C 
HETATM   15  C15 UNL     1      20.261  -0.536  53.663  1.00  0.00     0.090 C 
HETATM   16  N3  UNL     1      20.415   0.855  53.360  1.00  0.00    -0.350 N 
HETATM   17  H15 UNL     1      19.607   1.470  53.529  1.00  0.00     0.166 HD
ENDROOT
BRANCH   1  18
HETATM   18  O1  UNL     1      27.181   0.995  52.408  1.00  0.00    -0.353 OA
HETATM   19  C1  UNL     1      28.053   1.860  53.075  1.00  0.00     0.210 C 
ENDBRANCH   1  18
BRANCH  10  20
HETATM   20  O2  UNL     1      25.912  -0.821  53.930  1.00  0.00    -0.352 OA
HETATM   21  C10 UNL     1      26.641  -1.645  52.975  1.00  0.00     0.210 C 
ENDBRANCH  10  20
TORSDOF 2
ENDMDL
MODEL 6
REMARK VINA RESULT:      -7.0      2.944      4.509
REMARK  2 active torsions:
REMARK  status: ('A' for Active; 'I' for Inactive)
REMARK    1  A    between atoms: O1_2  and  C2_3 
REMARK    2  A    between atoms: C9_12  and  O2_13 
ROOT
HETATM    1  C2  UNL     1      26.861   1.169  52.335  1.00  0.00     0.104 A 
HETATM    2  C3  UNL     1      26.822   2.329  51.590  1.00  0.00     0.072 A 
HETATM    3  C4  UNL     1      25.602   2.815  51.170  1.00  0.00     0.075 A 
HETATM    4  N1  UNL     1      25.709   3.953  50.430  1.00  0.00    -0.241 NA
HETATM    5  C5  UNL     1      24.600   4.531  49.937  1.00  0.00     0.236 A 
HETATM    6  N2  UNL     1      23.421   3.976  50.184  1.00  0.00    -0.224 NA
HETATM    7  C6  UNL     1      23.263   2.840  50.917  1.00  0.00     0.142 A 
HETATM    8  C7  UNL     1      24.380   2.192  51.462  1.00  0.00     0.052 A 
HETATM    9  C8  UNL     1      24.481   1.037  52.215  1.00  0.00     0.022 A 
HETATM   10  C9  UNL     1      25.683   0.521  52.645  1.00  0.00     0.113 A 
HETATM   11  C11 UNL     1      23.536   0.095  52.869  1.00  0.00    -0.048 C 
HETATM   12  C12 UNL     1      24.070  -0.524  54.090  1.00  0.00     0.049 C 
HETATM   13  C13 UNL     1      22.265  -0.196  52.525  1.00  0.00     0.009 C 
HETATM   14  C14 UNL     1      21.275   0.175  51.514  1.00  0.00     0.018 C 
HETATM   15  C15 UNL     1      21.181   1.350  50.890  1.00  0.00     0.090 C 
HETATM   16  N3  UNL     1      21.831   2.625  50.848  1.00  0.00    -0.350 N 
HETATM   17  H15 UNL     1      21.235   3.458  50.748  1.00  0.00     0.166 HD
ENDROOT
BRANCH   1  18
HETATM   18  O1  UNL     1      28.102   0.687  52.752  1.00  0.00    -0.353 OA
HETATM   19  C1  UNL     1      28.801   1.236  53.830  1.00  0.00     0.210 C 
ENDBRANCH   1  18
BRANCH  10  20
HETATM   20  O2  UNL     1      25.855  -0.643  53.393  1.00  0.00    -0.352 OA
HETATM   21  C10 UNL     1      26.608  -1.681  52.699  1.00  0.00     0.210 C 
ENDBRANCH  10  20
TORSDOF 2
ENDMDL
MODEL 7
REMARK VINA RESULT:      -6.9      3.071      5.914
REMARK  2 active torsions:
REMARK  status: ('A' for Active; 'I' for Inactive)
REMARK    1  A    between atoms: O1_2  and  C2_3 
REMARK    2  A    between atoms: C9_12  and  O2_13 
ROOT
HETATM    1  C2  UNL     1      23.659  -0.154  53.668  1.00  0.00     0.104 A 
HETATM    2  C3  UNL     1      22.412   0.247  53.237  1.00  0.00     0.072 A 
HETATM    3  C4  UNL     1      22.319   1.121  52.175  1.00  0.00     0.075 A 
HETATM    4  N1  UNL     1      21.034   1.448  51.865  1.00  0.00    -0.241 NA
HETATM    5  C5  UNL     1      20.791   2.307  50.861  1.00  0.00     0.236 A 
HETATM    6  N2  UNL     1      21.815   2.820  50.190  1.00  0.00    -0.224 NA
HETATM    7  C6  UNL     1      23.115   2.524  50.462  1.00  0.00     0.142 A 
HETATM    8  C7  UNL     1      23.434   1.632  51.496  1.00  0.00     0.052 A 
HETATM    9  C8  UNL     1      24.656   1.191  51.968  1.00  0.00     0.022 A 
HETATM   10  C9  UNL     1      24.784   0.324  53.030  1.00  0.00     0.113 A 
HETATM   11  C11 UNL     1      26.078   1.325  51.558  1.00  0.00    -0.048 C 
HETATM   12  C12 UNL     1      26.905   0.161  51.908  1.00  0.00     0.049 C 
HETATM   13  C13 UNL     1      26.665   2.322  50.866  1.00  0.00     0.009 C 
HETATM   14  C14 UNL     1      26.311   3.596  50.238  1.00  0.00     0.018 C 
HETATM   15  C15 UNL     1      25.127   3.921  49.717  1.00  0.00     0.090 C 
HETATM   16  N3  UNL     1      23.826   3.359  49.514  1.00  0.00    -0.350 N 
HETATM   17  H15 UNL     1      23.348   3.576  48.628  1.00  0.00     0.166 HD
ENDROOT
BRANCH   1  18
HETATM   18  O1  UNL     1      23.739  -1.038  54.745  1.00  0.00    -0.353 OA
HETATM   19  C1  UNL     1      22.609  -1.587  55.357  1.00  0.00     0.210 C 
ENDBRANCH   1  18
BRANCH  10  20
HETATM   20  O2  UNL     1      25.983  -0.146  53.564  1.00  0.00    -0.352 OA
HETATM   21  C10 UNL     1      26.281   0.378  54.891  1.00  0.00     0.210 C 
ENDBRANCH  10  20
TORSDOF 2
ENDMDL
MODEL 8
REMARK VINA RESULT:      -6.5      3.095      4.696
REMARK  2 active torsions:
REMARK  status: ('A' for Active; 'I' for Inactive)
REMARK    1  A    between atoms: O1_2  and  C2_3 
REMARK    2  A    between atoms: C9_12  and  O2_13 
ROOT
HETATM    1  C2  UNL     1      24.097   4.281  51.043  1.00  0.00     0.104 A 
HETATM    2  C3  UNL     1      22.781   4.664  50.889  1.00  0.00     0.072 A 
HETATM    3  C4  UNL     1      21.786   3.885  51.441  1.00  0.00     0.075 A 
HETATM    4  N1  UNL     1      20.536   4.366  51.198  1.00  0.00    -0.241 NA
HETATM    5  C5  UNL     1      19.467   3.699  51.661  1.00  0.00     0.236 A 
HETATM    6  N2  UNL     1      19.654   2.579  52.348  1.00  0.00    -0.224 NA
HETATM    7  C6  UNL     1      20.882   2.057  52.615  1.00  0.00     0.142 A 
HETATM    8  C7  UNL     1      22.038   2.709  52.162  1.00  0.00     0.052 A 
HETATM    9  C8  UNL     1      23.374   2.378  52.289  1.00  0.00     0.022 A 
HETATM   10  C9  UNL     1      24.391   3.130  51.746  1.00  0.00     0.113 A 
HETATM   11  C11 UNL     1      24.162   1.350  53.017  1.00  0.00    -0.048 C 
HETATM   12  C12 UNL     1      25.501   1.805  53.417  1.00  0.00     0.049 C 
HETATM   13  C13 UNL     1      23.781   0.114  53.401  1.00  0.00     0.009 C 
HETATM   14  C14 UNL     1      22.606  -0.755  53.341  1.00  0.00     0.018 C 
HETATM   15  C15 UNL     1      21.331  -0.364  53.314  1.00  0.00     0.090 C 
HETATM   16  N3  UNL     1      20.552   0.837  53.323  1.00  0.00    -0.350 N 
HETATM   17  H15 UNL     1      19.677   0.830  53.866  1.00  0.00     0.166 HD
ENDROOT
BRANCH   1  18
HETATM   18  O1  UNL     1      25.093   5.078  50.479  1.00  0.00    -0.353 OA
HETATM   19  C1  UNL     1      25.023   6.473  50.459  1.00  0.00     0.210 C 
ENDBRANCH   1  18
BRANCH  10  20
HETATM   20  O2  UNL     1      25.754   2.845  51.823  1.00  0.00    -0.352 OA
HETATM   21  C10 UNL     1      26.381   2.617  50.528  1.00  0.00     0.210 C 
ENDBRANCH  10  20
TORSDOF 2
ENDMDL
MODEL 9
REMARK VINA RESULT:      -6.4      3.182      5.953
REMARK  2 active torsions:
REMARK  status: ('A' for Active; 'I' for Inactive)
REMARK    1  A    between atoms: O1_2  and  C2_3 
REMARK    2  A    between atoms: C9_12  and  O2_13 
ROOT
HETATM    1  C2  UNL     1      24.779   0.974  52.316  1.00  0.00     0.104 A 
HETATM    2  C3  UNL     1      23.446   0.931  52.666  1.00  0.00     0.072 A 
HETATM    3  C4  UNL     1      22.624   1.977  52.302  1.00  0.00     0.075 A 
HETATM    4  N1  UNL     1      21.340   1.817  52.725  1.00  0.00    -0.241 NA
HETATM    5  C5  UNL     1      20.430   2.768  52.458  1.00  0.00     0.236 A 
HETATM    6  N2  UNL     1      20.805   3.848  51.785  1.00  0.00    -0.224 NA
HETATM    7  C6  UNL     1      22.075   4.054  51.342  1.00  0.00     0.142 A 
HETATM    8  C7  UNL     1      23.070   3.097  51.586  1.00  0.00     0.052 A 
HETATM    9  C8  UNL     1      24.413   3.082  51.259  1.00  0.00     0.022 A 
HETATM   10  C9  UNL     1      25.263   2.057  51.611  1.00  0.00     0.113 A 
HETATM   11  C11 UNL     1      25.331   3.922  50.446  1.00  0.00    -0.048 C 
HETATM   12  C12 UNL     1      26.429   3.168  49.825  1.00  0.00     0.049 C 
HETATM   13  C13 UNL     1      25.240   5.238  50.165  1.00  0.00     0.009 C 
HETATM   14  C14 UNL     1      24.358   6.373  50.438  1.00  0.00     0.018 C 
HETATM   15  C15 UNL     1      23.043   6.322  50.655  1.00  0.00     0.090 C 
HETATM   16  N3  UNL     1      21.981   5.366  50.733  1.00  0.00    -0.350 N 
HETATM   17  H15 UNL     1      21.070   5.635  50.336  1.00  0.00     0.166 HD
ENDROOT
BRANCH   1  18
HETATM   18  O1  UNL     1      25.600  -0.090  52.691  1.00  0.00    -0.353 OA
HETATM   19  C1  UNL     1      25.558  -0.664  53.964  1.00  0.00     0.210 C 
ENDBRANCH   1  18
BRANCH  10  20
HETATM   20  O2  UNL     1      26.626   1.987  51.327  1.00  0.00    -0.352 OA
HETATM   21  C10 UNL     1      27.478   2.114  52.502  1.00  0.00     0.210 C 
ENDBRANCH  10  20
TORSDOF 2
ENDMDL
