MODEL 1
REMARK VINA RESULT:      -8.8      0.000      0.000
REMARK  5 active torsions:
REMARK  status: ('A' for Active; 'I' for Inactive)
REMARK    1  A    between atoms: O1_2  and  C2_3 
REMARK    2  A    between atoms: C5_6  and  C6_7 
REMARK    3  A    between atoms: N2_9  and  C7_10 
REMARK    4  A    between atoms: C8_12  and  P1_13 
REMARK    5  A    between atoms: C10_16  and  C11_17 
ROOT
HETATM    1  C6  UNL     1      22.938   0.633  52.459  1.00  0.00     0.067 C 
HETATM    2  N1  UNL     1      23.378   1.293  51.467  1.00  0.00    -0.173 NA
HETATM    3  N2  UNL     1      24.757   1.622  51.529  1.00  0.00    -0.236 N 
HETATM    4  C10 UNL     1      25.180   0.440  52.273  1.00  0.00     0.151 C 
HETATM    5  C17 UNL     1      24.130   0.432  53.385  1.00  0.00     0.094 C 
ENDROOT
BRANCH   1   6
HETATM    6  C5  UNL     1      21.636   0.090  52.822  1.00  0.00    -0.010 A 
HETATM    7  C4  UNL     1      20.589   0.516  51.994  1.00  0.00     0.016 A 
HETATM    8  C3  UNL     1      19.292   0.053  52.213  1.00  0.00     0.037 A 
HETATM    9  C2  UNL     1      19.060  -0.835  53.259  1.00  0.00     0.068 A 
HETATM   10  C19 UNL     1      20.136  -1.211  54.032  1.00  0.00     0.037 A 
HETATM   11  C18 UNL     1      21.424  -0.772  53.844  1.00  0.00     0.016 A 
BRANCH   9  12
HETATM   12  O1  UNL     1      17.807  -1.357  53.560  1.00  0.00    -0.356 OA
HETATM   13  C1  UNL     1      17.683  -2.780  53.511  1.00  0.00     0.210 C 
ENDBRANCH   9  12
ENDBRANCH   1   6
BRANCH   3  14
HETATM   14  C7  UNL     1      25.105   2.879  50.896  1.00  0.00     0.190 A 
HETATM   15  N3  UNL     1      24.441   3.903  51.119  1.00  0.00    -0.223 NA
HETATM   16  C8  UNL     1      24.757   5.055  50.528  1.00  0.00     0.064 A 
HETATM   17  C9  UNL     1      25.921   5.074  49.603  1.00  0.00     0.085 A 
HETATM   18  S1  UNL     1      26.419   3.262  49.748  1.00  0.00    -0.060 SA
BRANCH  16  19
HETATM   19  P1  UNL     1      23.834   6.640  50.810  1.00  0.00    -0.085 P 
HETATM   20  H6  UNL     1      22.415   6.442  50.630  1.00  0.00     0.061 HD
HETATM   21  H7  UNL     1      24.156   7.202  52.110  1.00  0.00     0.061 HD
ENDBRANCH  16  19
ENDBRANCH   3  14
BRANCH   4  22
HETATM   22  C11 UNL     1      26.543   0.354  52.689  1.00  0.00    -0.033 A 
HETATM   23  C12 UNL     1      27.305   1.457  53.001  1.00  0.00     0.012 A 
HETATM   24  C13 UNL     1      28.644   1.280  53.381  1.00  0.00     0.043 A 
HETATM   25  C14 UNL     1      29.229   0.023  53.453  1.00  0.00     0.116 A 
HETATM   26  F1  UNL     1      30.504  -0.162  53.806  1.00  0.00    -0.206 F 
HETATM   27  C15 UNL     1      28.421  -1.060  53.130  1.00  0.00     0.043 A 
HETATM   28  C16 UNL     1      27.111  -0.908  52.755  1.00  0.00     0.012 A 
ENDBRANCH   4  22
TORSDOF 5
ENDMDL
MODEL 2
REMARK VINA RESULT:      -8.5      3.831      7.306
REMARK  5 active torsions:
REMARK  status: ('A' for Active; 'I' for Inactive)
REMARK    1  A    between atoms: O1_2  and  C2_3 
REMARK    2  A    between atoms: C5_6  and  C6_7 
REMARK    3  A    between atoms: N2_9  and  C7_10 
REMARK    4  A    between atoms: C8_12  and  P1_13 
REMARK    5  A    between atoms: C10_16  and  C11_17 
ROOT
HETATM    1  C6  UNL     1      25.401   3.981  50.190  1.00  0.00     0.067 C 
HETATM    2  N1  UNL     1      24.456   3.564  50.930  1.00  0.00    -0.173 NA
HETATM    3  N2  UNL     1      24.700   2.322  51.572  1.00  0.00    -0.236 N 
HETATM    4  C10 UNL     1      26.144   2.481  51.706  1.00  0.00     0.151 C 
HETATM    5  C17 UNL     1      26.497   2.930  50.287  1.00  0.00     0.094 C 
ENDROOT
BRANCH   1   6
HETATM    6  C5  UNL     1      25.597   5.163  49.362  1.00  0.00    -0.010 A 
HETATM    7  C4  UNL     1      26.928   5.380  48.983  1.00  0.00     0.016 A 
HETATM    8  C3  UNL     1      27.256   6.463  48.168  1.00  0.00     0.037 A 
HETATM    9  C2  UNL     1      26.243   7.315  47.739  1.00  0.00     0.068 A 
HETATM   10  C19 UNL     1      24.957   7.041  48.150  1.00  0.00     0.037 A 
HETATM   11  C18 UNL     1      24.602   5.984  48.952  1.00  0.00     0.016 A 
BRANCH   9  12
HETATM   12  O1  UNL     1      26.462   8.421  46.924  1.00  0.00    -0.356 OA
HETATM   13  C1  UNL     1      27.825   8.745  46.645  1.00  0.00     0.210 C 
ENDBRANCH   9  12
ENDBRANCH   1   6
BRANCH   3  14
HETATM   14  C7  UNL     1      23.517   1.510  51.782  1.00  0.00     0.190 A 
HETATM   15  N3  UNL     1      23.375   0.861  52.829  1.00  0.00    -0.223 NA
HETATM   16  C8  UNL     1      22.292   0.108  53.016  1.00  0.00     0.064 A 
HETATM   17  C9  UNL     1      21.267   0.071  51.938  1.00  0.00     0.085 A 
HETATM   18  S1  UNL     1      22.108   1.237  50.718  1.00  0.00    -0.060 SA
BRANCH  16  19
HETATM   19  P1  UNL     1      21.983  -0.884  54.553  1.00  0.00    -0.085 P 
HETATM   20  H6  UNL     1      22.513  -0.205  55.713  1.00  0.00     0.061 HD
HETATM   21  H7  UNL     1      20.573  -1.200  54.692  1.00  0.00     0.061 HD
ENDBRANCH  16  19
ENDBRANCH   3  14
BRANCH   4  22
HETATM   22  C11 UNL     1      26.900   1.389  52.232  1.00  0.00    -0.033 A 
HETATM   23  C12 UNL     1      26.590   0.072  51.981  1.00  0.00     0.012 A 
HETATM   24  C13 UNL     1      27.376  -0.938  52.557  1.00  0.00     0.043 A 
HETATM   25  C14 UNL     1      28.461  -0.651  53.374  1.00  0.00     0.116 A 
HETATM   26  F1  UNL     1      29.214  -1.600  53.936  1.00  0.00    -0.206 F 
HETATM   27  C15 UNL     1      28.734   0.693  53.597  1.00  0.00     0.043 A 
HETATM   28  C16 UNL     1      27.978   1.694  53.046  1.00  0.00     0.012 A 
ENDBRANCH   4  22
TORSDOF 5
ENDMDL
MODEL 3
REMARK VINA RESULT:      -8.3      3.585      6.789
REMARK  5 active torsions:
REMARK  status: ('A' for Active; 'I' for Inactive)
REMARK    1  A    between atoms: O1_2  and  C2_3 
REMARK    2  A    between atoms: C5_6  and  C6_7 
REMARK    3  A    between atoms: N2_9  and  C7_10 
REMARK    4  A    between atoms: C8_12  and  P1_13 
REMARK    5  A    between atoms: C10_16  and  C11_17 
ROOT
HETATM    1  C6  UNL     1      25.547   3.214  50.716  1.00  0.00     0.067 C 
HETATM    2  N1  UNL     1      24.696   2.835  51.579  1.00  0.00    -0.173 NA
HETATM    3  N2  UNL     1      24.977   1.585  52.190  1.00  0.00    -0.236 N 
HETATM    4  C10 UNL     1      26.430   1.688  52.127  1.00  0.00     0.151 C 
HETATM    5  C17 UNL     1      26.606   2.121  50.671  1.00  0.00     0.094 C 
ENDROOT
BRANCH   1   6
HETATM    6  C5  UNL     1      25.675   4.386  49.862  1.00  0.00    -0.010 A 
HETATM    7  C4  UNL     1      24.499   5.137  49.743  1.00  0.00     0.016 A 
HETATM    8  C3  UNL     1      24.486   6.300  48.974  1.00  0.00     0.037 A 
HETATM    9  C2  UNL     1      25.655   6.700  48.335  1.00  0.00     0.068 A 
HETATM   10  C19 UNL     1      26.775   5.913  48.496  1.00  0.00     0.037 A 
HETATM   11  C18 UNL     1      26.820   4.762  49.245  1.00  0.00     0.016 A 
BRANCH   9  12
HETATM   12  O1  UNL     1      25.750   7.842  47.548  1.00  0.00    -0.356 OA
HETATM   13  C1  UNL     1      27.041   8.141  47.014  1.00  0.00     0.210 C 
ENDBRANCH   9  12
ENDBRANCH   1   6
BRANCH   3  14
HETATM   14  C7  UNL     1      23.802   0.819  52.563  1.00  0.00     0.190 A 
HETATM   15  N3  UNL     1      22.716   1.015  51.997  1.00  0.00    -0.223 NA
HETATM   16  C8  UNL     1      21.636   0.318  52.347  1.00  0.00     0.064 A 
HETATM   17  C9  UNL     1      21.774  -0.696  53.427  1.00  0.00     0.085 A 
HETATM   18  S1  UNL     1      23.607  -0.457  53.797  1.00  0.00    -0.060 SA
BRANCH  16  19
HETATM   19  P1  UNL     1      19.974   0.528  51.550  1.00  0.00    -0.085 P 
HETATM   20  H6  UNL     1      19.525  -0.718  50.973  1.00  0.00     0.061 HD
HETATM   21  H7  UNL     1      19.015   1.082  52.488  1.00  0.00     0.061 HD
ENDBRANCH  16  19
ENDBRANCH   3  14
BRANCH   4  22
HETATM   22  C11 UNL     1      27.208   0.568  52.553  1.00  0.00    -0.033 A 
HETATM   23  C12 UNL     1      28.354   0.692  53.304  1.00  0.00     0.012 A 
HETATM   24  C13 UNL     1      29.068  -0.463  53.660  1.00  0.00     0.043 A 
HETATM   25  C14 UNL     1      28.654  -1.732  53.278  1.00  0.00     0.116 A 
HETATM   26  F1  UNL     1      29.326  -2.839  53.602  1.00  0.00    -0.206 F 
HETATM   27  C15 UNL     1      27.492  -1.806  52.521  1.00  0.00     0.043 A 
HETATM   28  C16 UNL     1      26.781  -0.691  52.162  1.00  0.00     0.012 A 
ENDBRANCH   4  22
TORSDOF 5
ENDMDL
MODEL 4
REMARK VINA RESULT:      -8.3      3.035      4.763
REMARK  5 active torsions:
REMARK  status: ('A' for Active; 'I' for Inactive)
REMARK    1  A    between atoms: O1_2  and  C2_3 
REMARK    2  A    between atoms: C5_6  and  C6_7 
REMARK    3  A    between atoms: N2_9  and  C7_10 
REMARK    4  A    between atoms: C8_12  and  P1_13 
REMARK    5  A    between atoms: C10_16  and  C11_17 
ROOT
HETATM    1  C6  UNL     1      23.269   1.339  52.185  1.00  0.00     0.067 C 
HETATM    2  N1  UNL     1      24.307   1.370  52.916  1.00  0.00    -0.173 NA
HETATM    3  N2  UNL     1      25.442   1.980  52.322  1.00  0.00    -0.236 N 
HETATM    4  C10 UNL     1      24.708   2.939  51.503  1.00  0.00     0.151 C 
HETATM    5  C17 UNL     1      23.662   2.015  50.879  1.00  0.00     0.094 C 
ENDROOT
BRANCH   1   6
HETATM    6  C5  UNL     1      21.915   0.832  52.362  1.00  0.00    -0.010 A 
HETATM    7  C4  UNL     1      21.142   0.845  51.195  1.00  0.00     0.016 A 
HETATM    8  C3  UNL     1      19.834   0.363  51.216  1.00  0.00     0.037 A 
HETATM    9  C2  UNL     1      19.315  -0.129  52.409  1.00  0.00     0.068 A 
HETATM   10  C19 UNL     1      20.132  -0.111  53.519  1.00  0.00     0.037 A 
HETATM   11  C18 UNL     1      21.424   0.357  53.531  1.00  0.00     0.016 A 
BRANCH   9  12
HETATM   12  O1  UNL     1      18.026  -0.633  52.538  1.00  0.00    -0.356 OA
HETATM   13  C1  UNL     1      17.873  -1.780  53.376  1.00  0.00     0.210 C 
ENDBRANCH   9  12
ENDBRANCH   1   6
BRANCH   3  14
HETATM   14  C7  UNL     1      26.714   1.425  52.742  1.00  0.00     0.190 A 
HETATM   15  N3  UNL     1      26.917   0.203  52.688  1.00  0.00    -0.223 NA
HETATM   16  C8  UNL     1      28.083  -0.306  53.084  1.00  0.00     0.064 A 
HETATM   17  C9  UNL     1      29.124   0.630  53.586  1.00  0.00     0.085 A 
HETATM   18  S1  UNL     1      28.165   2.241  53.388  1.00  0.00    -0.060 SA
BRANCH  16  19
HETATM   19  P1  UNL     1      28.486  -2.116  53.026  1.00  0.00    -0.085 P 
HETATM   20  H6  UNL     1      29.821  -2.325  52.516  1.00  0.00     0.061 HD
HETATM   21  H7  UNL     1      28.286  -2.734  54.325  1.00  0.00     0.061 HD
ENDBRANCH  16  19
ENDBRANCH   3  14
BRANCH   4  22
HETATM   22  C11 UNL     1      25.447   3.761  50.598  1.00  0.00    -0.033 A 
HETATM   23  C12 UNL     1      26.521   3.301  49.871  1.00  0.00     0.012 A 
HETATM   24  C13 UNL     1      27.202   4.186  49.020  1.00  0.00     0.043 A 
HETATM   25  C14 UNL     1      26.826   5.516  48.887  1.00  0.00     0.116 A 
HETATM   26  F1  UNL     1      27.468   6.372  48.088  1.00  0.00    -0.206 F 
HETATM   27  C15 UNL     1      25.736   5.933  49.640  1.00  0.00     0.043 A 
HETATM   28  C16 UNL     1      25.058   5.086  50.478  1.00  0.00     0.012 A 
ENDBRANCH   4  22
TORSDOF 5
ENDMDL
MODEL 5
REMARK VINA RESULT:      -8.2      4.642      8.168
REMARK  5 active torsions:
REMARK  status: ('A' for Active; 'I' for Inactive)
REMARK    1  A    between atoms: O1_2  and  C2_3 
REMARK    2  A    between atoms: C5_6  and  C6_7 
REMARK    3  A    between atoms: N2_9  and  C7_10 
REMARK    4  A    between atoms: C8_12  and  P1_13 
REMARK    5  A    between atoms: C10_16  and  C11_17 
ROOT
HETATM    1  C6  UNL     1      26.026   4.679  49.164  1.00  0.00     0.067 C 
HETATM    2  N1  UNL     1      24.764   4.657  49.307  1.00  0.00    -0.173 NA
HETATM    3  N2  UNL     1      24.252   3.493  49.938  1.00  0.00    -0.236 N 
HETATM    4  C10 UNL     1      25.408   3.240  50.791  1.00  0.00     0.151 C 
HETATM    5  C17 UNL     1      26.534   3.376  49.765  1.00  0.00     0.094 C 
ENDROOT
BRANCH   1   6
HETATM    6  C5  UNL     1      26.968   5.633  48.594  1.00  0.00    -0.010 A 
HETATM    7  C4  UNL     1      28.282   5.156  48.506  1.00  0.00     0.016 A 
HETATM    8  C3  UNL     1      29.282   5.957  47.956  1.00  0.00     0.037 A 
HETATM    9  C2  UNL     1      28.952   7.229  47.498  1.00  0.00     0.068 A 
HETATM   10  C19 UNL     1      27.640   7.632  47.616  1.00  0.00     0.037 A 
HETATM   11  C18 UNL     1      26.632   6.868  48.153  1.00  0.00     0.016 A 
BRANCH   9  12
HETATM   12  O1  UNL     1      29.871   8.105  46.932  1.00  0.00    -0.356 OA
HETATM   13  C1  UNL     1      31.240   7.697  46.963  1.00  0.00     0.210 C 
ENDBRANCH   9  12
ENDBRANCH   1   6
BRANCH   3  14
HETATM   14  C7  UNL     1      22.931   3.096  49.488  1.00  0.00     0.190 A 
HETATM   15  N3  UNL     1      21.931   3.339  50.180  1.00  0.00    -0.223 NA
HETATM   16  C8  UNL     1      20.719   2.964  49.771  1.00  0.00     0.064 A 
HETATM   17  C9  UNL     1      20.606   2.254  48.468  1.00  0.00     0.085 A 
HETATM   18  S1  UNL     1      22.433   2.241  48.002  1.00  0.00    -0.060 SA
BRANCH  16  19
HETATM   19  P1  UNL     1      19.164   3.295  50.726  1.00  0.00    -0.085 P 
HETATM   20  H6  UNL     1      18.004   3.145  49.879  1.00  0.00     0.061 HD
HETATM   21  H7  UNL     1      19.097   2.460  51.912  1.00  0.00     0.061 HD
ENDBRANCH  16  19
ENDBRANCH   3  14
BRANCH   4  22
HETATM   22  C11 UNL     1      25.416   2.054  51.586  1.00  0.00    -0.033 A 
HETATM   23  C12 UNL     1      24.362   1.682  52.390  1.00  0.00     0.012 A 
HETATM   24  C13 UNL     1      24.465   0.509  53.155  1.00  0.00     0.043 A 
HETATM   25  C14 UNL     1      25.600  -0.291  53.127  1.00  0.00     0.116 A 
HETATM   26  F1  UNL     1      25.716  -1.405  53.854  1.00  0.00    -0.206 F 
HETATM   27  C15 UNL     1      26.636   0.126  52.300  1.00  0.00     0.043 A 
HETATM   28  C16 UNL     1      26.556   1.268  51.547  1.00  0.00     0.012 A 
ENDBRANCH   4  22
TORSDOF 5
ENDMDL
MODEL 6
REMARK VINA RESULT:      -8.2      1.524      2.041
REMARK  5 active torsions:
REMARK  status: ('A' for Active; 'I' for Inactive)
REMARK    1  A    between atoms: O1_2  and  C2_3 
REMARK    2  A    between atoms: C5_6  and  C6_7 
REMARK    3  A    between atoms: N2_9  and  C7_10 
REMARK    4  A    between atoms: C8_12  and  P1_13 
REMARK    5  A    between atoms: C10_16  and  C11_17 
ROOT
HETATM    1  C6  UNL     1      22.074   0.800  52.083  1.00  0.00     0.067 C 
HETATM    2  N1  UNL     1      22.617   1.559  51.222  1.00  0.00    -0.173 NA
HETATM    3  N2  UNL     1      23.976   1.879  51.477  1.00  0.00    -0.236 N 
HETATM    4  C10 UNL     1      24.324   0.626  52.138  1.00  0.00     0.151 C 
HETATM    5  C17 UNL     1      23.153   0.503  53.114  1.00  0.00     0.094 C 
ENDROOT
BRANCH   1   6
HETATM    6  C5  UNL     1      20.745   0.224  52.235  1.00  0.00    -0.010 A 
HETATM    7  C4  UNL     1      20.585  -0.547  53.393  1.00  0.00     0.016 A 
HETATM    8  C3  UNL     1      19.354  -1.138  53.676  1.00  0.00     0.037 A 
HETATM    9  C2  UNL     1      18.295  -0.948  52.794  1.00  0.00     0.068 A 
HETATM   10  C19 UNL     1      18.524  -0.178  51.674  1.00  0.00     0.037 A 
HETATM   11  C18 UNL     1      19.724   0.416  51.367  1.00  0.00     0.016 A 
BRANCH   9  12
HETATM   12  O1  UNL     1      17.029  -1.490  52.983  1.00  0.00    -0.356 OA
HETATM   13  C1  UNL     1      15.969  -0.911  52.220  1.00  0.00     0.210 C 
ENDBRANCH   9  12
ENDBRANCH   1   6
BRANCH   3  14
HETATM   14  C7  UNL     1      24.381   3.195  51.022  1.00  0.00     0.190 A 
HETATM   15  N3  UNL     1      25.405   3.338  50.337  1.00  0.00    -0.223 NA
HETATM   16  C8  UNL     1      25.782   4.549  49.929  1.00  0.00     0.064 A 
HETATM   17  C9  UNL     1      24.940   5.714  50.315  1.00  0.00     0.085 A 
HETATM   18  S1  UNL     1      23.623   4.788  51.295  1.00  0.00    -0.060 SA
BRANCH  16  19
HETATM   19  P1  UNL     1      27.286   4.861  48.889  1.00  0.00    -0.085 P 
HETATM   20  H6  UNL     1      27.678   3.661  48.186  1.00  0.00     0.061 HD
HETATM   21  H7  UNL     1      27.073   5.984  47.992  1.00  0.00     0.061 HD
ENDBRANCH  16  19
ENDBRANCH   3  14
BRANCH   4  22
HETATM   22  C11 UNL     1      25.632   0.495  52.697  1.00  0.00    -0.033 A 
HETATM   23  C12 UNL     1      26.505  -0.508  52.340  1.00  0.00     0.012 A 
HETATM   24  C13 UNL     1      27.764  -0.572  52.958  1.00  0.00     0.043 A 
HETATM   25  C14 UNL     1      28.159   0.346  53.921  1.00  0.00     0.116 A 
HETATM   26  F1  UNL     1      29.350   0.294  54.523  1.00  0.00    -0.206 F 
HETATM   27  C15 UNL     1      27.244   1.339  54.247  1.00  0.00     0.043 A 
HETATM   28  C16 UNL     1      26.009   1.419  53.658  1.00  0.00     0.012 A 
ENDBRANCH   4  22
TORSDOF 5
ENDMDL
MODEL 7
REMARK VINA RESULT:      -7.9      4.393      7.886
REMARK  5 active torsions:
REMARK  status: ('A' for Active; 'I' for Inactive)
REMARK    1  A    between atoms: O1_2  and  C2_3 
REMARK    2  A    between atoms: C5_6  and  C6_7 
REMARK    3  A    between atoms: N2_9  and  C7_10 
REMARK    4  A    between atoms: C8_12  and  P1_13 
REMARK    5  A    between atoms: C10_16  and  C11_17 
ROOT
HETATM    1  C6  UNL     1      25.917   3.736  50.450  1.00  0.00     0.067 C 
HETATM    2  N1  UNL     1      26.719   2.786  50.711  1.00  0.00    -0.173 NA
HETATM    3  N2  UNL     1      26.268   1.874  51.700  1.00  0.00    -0.236 N 
HETATM    4  C10 UNL     1      24.844   1.992  51.403  1.00  0.00     0.151 C 
HETATM    5  C17 UNL     1      24.707   3.514  51.347  1.00  0.00     0.094 C 
ENDROOT
BRANCH   1   6
HETATM    6  C5  UNL     1      25.948   4.871  49.538  1.00  0.00    -0.010 A 
HETATM    7  C4  UNL     1      24.692   5.439  49.290  1.00  0.00     0.016 A 
HETATM    8  C3  UNL     1      24.580   6.549  48.453  1.00  0.00     0.037 A 
HETATM    9  C2  UNL     1      25.729   7.079  47.877  1.00  0.00     0.068 A 
HETATM   10  C19 UNL     1      26.931   6.470  48.166  1.00  0.00     0.037 A 
HETATM   11  C18 UNL     1      27.075   5.376  48.984  1.00  0.00     0.016 A 
BRANCH   9  12
HETATM   12  O1  UNL     1      25.727   8.183  47.031  1.00  0.00    -0.356 OA
HETATM   13  C1  UNL     1      26.880   9.025  47.083  1.00  0.00     0.210 C 
ENDBRANCH   9  12
ENDBRANCH   1   6
BRANCH   3  14
HETATM   14  C7  UNL     1      27.322   1.290  52.506  1.00  0.00     0.190 A 
HETATM   15  N3  UNL     1      27.535   0.068  52.477  1.00  0.00    -0.223 NA
HETATM   16  C8  UNL     1      28.497  -0.469  53.226  1.00  0.00     0.064 A 
HETATM   17  C9  UNL     1      29.302   0.436  54.089  1.00  0.00     0.085 A 
HETATM   18  S1  UNL     1      28.464   2.064  53.640  1.00  0.00    -0.060 SA
BRANCH  16  19
HETATM   19  P1  UNL     1      28.900  -2.280  53.237  1.00  0.00    -0.085 P 
HETATM   20  H6  UNL     1      30.300  -2.488  53.526  1.00  0.00     0.061 HD
HETATM   21  H7  UNL     1      28.032  -2.998  54.154  1.00  0.00     0.061 HD
ENDBRANCH  16  19
ENDBRANCH   3  14
BRANCH   4  22
HETATM   22  C11 UNL     1      23.917   1.303  52.243  1.00  0.00    -0.033 A 
HETATM   23  C12 UNL     1      24.267   0.220  53.017  1.00  0.00     0.012 A 
HETATM   24  C13 UNL     1      23.284  -0.410  53.797  1.00  0.00     0.043 A 
HETATM   25  C14 UNL     1      21.966   0.027  53.815  1.00  0.00     0.116 A 
HETATM   26  F1  UNL     1      21.019  -0.566  54.546  1.00  0.00    -0.206 F 
HETATM   27  C15 UNL     1      21.663   1.124  53.019  1.00  0.00     0.043 A 
HETATM   28  C16 UNL     1      22.606   1.752  52.248  1.00  0.00     0.012 A 
ENDBRANCH   4  22
TORSDOF 5
ENDMDL
MODEL 8
REMARK VINA RESULT:      -7.9      4.158      7.278
REMARK  5 active torsions:
REMARK  status: ('A' for Active; 'I' for Inactive)
REMARK    1  A    between atoms: O1_2  and  C2_3 
REMARK    2  A    between atoms: C5_6  and  C6_7 
REMARK    3  A    between atoms: N2_9  and  C7_10 
REMARK    4  A    between atoms: C8_12  and  P1_13 
REMARK    5  A    between atoms: C10_16  and  C11_17 
ROOT
HETATM    1  C6  UNL     1      23.774   1.048  52.675  1.00  0.00     0.067 C 
HETATM    2  N1  UNL     1      23.197   2.168  52.518  1.00  0.00    -0.173 NA
HETATM    3  N2  UNL     1      21.852   2.094  52.070  1.00  0.00    -0.236 N 
HETATM    4  C10 UNL     1      21.527   0.830  52.722  1.00  0.00     0.151 C 
HETATM    5  C17 UNL     1      22.738  -0.006  52.307  1.00  0.00     0.094 C 
ENDROOT
BRANCH   1   6
HETATM    6  C5  UNL     1      25.105   0.641  53.104  1.00  0.00    -0.010 A 
HETATM    7  C4  UNL     1      25.858   1.672  53.681  1.00  0.00     0.016 A 
HETATM    8  C3  UNL     1      27.143   1.416  54.159  1.00  0.00     0.037 A 
HETATM    9  C2  UNL     1      27.657   0.127  54.056  1.00  0.00     0.068 A 
HETATM   10  C19 UNL     1      26.860  -0.837  53.478  1.00  0.00     0.037 A 
HETATM   11  C18 UNL     1      25.592  -0.617  52.996  1.00  0.00     0.016 A 
BRANCH   9  12
HETATM   12  O1  UNL     1      28.923  -0.234  54.503  1.00  0.00    -0.356 OA
HETATM   13  C1  UNL     1      29.759  -0.914  53.564  1.00  0.00     0.210 C 
ENDBRANCH   9  12
ENDBRANCH   1   6
BRANCH   3  14
HETATM   14  C7  UNL     1      21.435   3.199  51.229  1.00  0.00     0.190 A 
HETATM   15  N3  UNL     1      22.195   3.650  50.358  1.00  0.00    -0.223 NA
HETATM   16  C8  UNL     1      21.813   4.672  49.593  1.00  0.00     0.064 A 
HETATM   17  C9  UNL     1      20.459   5.247  49.812  1.00  0.00     0.085 A 
HETATM   18  S1  UNL     1      19.904   4.117  51.215  1.00  0.00    -0.060 SA
BRANCH  16  19
HETATM   19  P1  UNL     1      22.872   5.405  48.257  1.00  0.00    -0.085 P 
HETATM   20  H6  UNL     1      24.272   5.238  48.567  1.00  0.00     0.061 HD
HETATM   21  H7  UNL     1      22.522   4.856  46.959  1.00  0.00     0.061 HD
ENDBRANCH  16  19
ENDBRANCH   3  14
BRANCH   4  22
HETATM   22  C11 UNL     1      20.244   0.251  52.476  1.00  0.00    -0.033 A 
HETATM   23  C12 UNL     1      19.536   0.460  51.314  1.00  0.00     0.012 A 
HETATM   24  C13 UNL     1      18.272  -0.132  51.166  1.00  0.00     0.043 A 
HETATM   25  C14 UNL     1      17.711  -0.925  52.157  1.00  0.00     0.116 A 
HETATM   26  F1  UNL     1      16.506  -1.489  52.034  1.00  0.00    -0.206 F 
HETATM   27  C15 UNL     1      18.463  -1.108  53.310  1.00  0.00     0.043 A 
HETATM   28  C16 UNL     1      19.698  -0.537  53.476  1.00  0.00     0.012 A 
ENDBRANCH   4  22
TORSDOF 5
ENDMDL
MODEL 9
REMARK VINA RESULT:      -7.9      4.712      8.505
REMARK  5 active torsions:
REMARK  status: ('A' for Active; 'I' for Inactive)
REMARK    1  A    between atoms: O1_2  and  C2_3 
REMARK    2  A    between atoms: C5_6  and  C6_7 
REMARK    3  A    between atoms: N2_9  and  C7_10 
REMARK    4  A    between atoms: C8_12  and  P1_13 
REMARK    5  A    between atoms: C10_16  and  C11_17 
ROOT
HETATM    1  C6  UNL     1      25.599   3.791  50.139  1.00  0.00     0.067 C 
HETATM    2  N1  UNL     1      25.949   2.660  50.596  1.00  0.00    -0.173 NA
HETATM    3  N2  UNL     1      24.943   1.966  51.317  1.00  0.00    -0.236 N 
HETATM    4  C10 UNL     1      23.807   2.486  50.564  1.00  0.00     0.151 C 
HETATM    5  C17 UNL     1      24.148   3.977  50.558  1.00  0.00     0.094 C 
ENDROOT
BRANCH   1   6
HETATM    6  C5  UNL     1      26.270   4.825  49.362  1.00  0.00    -0.010 A 
HETATM    7  C4  UNL     1      25.493   5.970  49.144  1.00  0.00     0.016 A 
HETATM    8  C3  UNL     1      26.021   7.049  48.435  1.00  0.00     0.037 A 
HETATM    9  C2  UNL     1      27.324   6.969  47.955  1.00  0.00     0.068 A 
HETATM   10  C19 UNL     1      28.030   5.813  48.208  1.00  0.00     0.037 A 
HETATM   11  C18 UNL     1      27.539   4.733  48.900  1.00  0.00     0.016 A 
BRANCH   9  12
HETATM   12  O1  UNL     1      27.945   7.987  47.241  1.00  0.00    -0.356 OA
HETATM   13  C1  UNL     1      28.653   8.962  48.009  1.00  0.00     0.210 C 
ENDBRANCH   9  12
ENDBRANCH   1   6
BRANCH   3  14
HETATM   14  C7  UNL     1      25.439   1.132  52.395  1.00  0.00     0.190 A 
HETATM   15  N3  UNL     1      26.643   1.138  52.694  1.00  0.00    -0.223 NA
HETATM   16  C8  UNL     1      27.099   0.364  53.677  1.00  0.00     0.064 A 
HETATM   17  C9  UNL     1      26.127  -0.499  54.400  1.00  0.00     0.085 A 
HETATM   18  S1  UNL     1      24.569  -0.009  53.458  1.00  0.00    -0.060 SA
BRANCH  16  19
HETATM   19  P1  UNL     1      28.877   0.317  54.207  1.00  0.00    -0.085 P 
HETATM   20  H6  UNL     1      29.045  -0.553  55.349  1.00  0.00     0.061 HD
HETATM   21  H7  UNL     1      29.738  -0.052  53.098  1.00  0.00     0.061 HD
ENDBRANCH  16  19
ENDBRANCH   3  14
BRANCH   4  22
HETATM   22  C11 UNL     1      22.491   2.140  50.998  1.00  0.00    -0.033 A 
HETATM   23  C12 UNL     1      21.794   2.866  51.937  1.00  0.00     0.012 A 
HETATM   24  C13 UNL     1      20.513   2.439  52.320  1.00  0.00     0.043 A 
HETATM   25  C14 UNL     1      19.922   1.305  51.779  1.00  0.00     0.116 A 
HETATM   26  F1  UNL     1      18.707   0.883  52.138  1.00  0.00    -0.206 F 
HETATM   27  C15 UNL     1      20.664   0.607  50.835  1.00  0.00     0.043 A 
HETATM   28  C16 UNL     1      21.917   1.004  50.449  1.00  0.00     0.012 A 
ENDBRANCH   4  22
TORSDOF 5
ENDMDL
