MODEL 1
REMARK VINA RESULT:      -9.0      0.000      0.000
REMARK  3 active torsions:
REMARK  status: ('A' for Active; 'I' for Inactive)
REMARK    1  A    between atoms: C6_7  and  O1_8 
REMARK    2  A    between atoms: C12_16  and  C13_17 
REMARK    3  A    between atoms: C16_20  and  N3_21 
ROOT
HETATM    1  C1  UNL     1      20.825   2.207  48.989  1.00  0.00     0.048 C 
HETATM    2  C2  UNL     1      21.414   1.539  50.181  1.00  0.00    -0.060 C 
HETATM    3  C3  UNL     1      20.543   0.762  50.775  1.00  0.00     0.013 C 
HETATM    4  C4  UNL     1      20.461  -0.144  51.944  1.00  0.00     0.047 C 
HETATM    5  S1  UNL     1      21.571  -0.227  53.141  1.00  0.00    -0.099 SA
HETATM    6  C5  UNL     1      21.442  -1.336  54.541  1.00  0.00     0.104 A 
HETATM    7  C6  UNL     1      22.711  -1.233  54.954  1.00  0.00     0.170 A 
HETATM    8  N1  UNL     1      23.696  -0.453  54.353  1.00  0.00    -0.200 NA
HETATM    9  C7  UNL     1      23.332   0.214  53.321  1.00  0.00     0.170 A 
HETATM   10  N2  UNL     1      24.087   1.102  52.473  1.00  0.00    -0.321 N 
HETATM   11  C8  UNL     1      23.824   1.757  51.238  1.00  0.00     0.015 C 
HETATM   12  C9  UNL     1      22.796   1.885  50.421  1.00  0.00     0.032 C 
HETATM   13  C10 UNL     1      25.127   2.402  50.936  1.00  0.00     0.059 C 
HETATM   14  C11 UNL     1      25.880   2.501  52.219  1.00  0.00     0.036 C 
HETATM   15  C12 UNL     1      25.385   1.344  53.058  1.00  0.00     0.125 C 
ENDROOT
BRANCH  15  16
HETATM   16  C13 UNL     1      26.267   0.180  53.068  1.00  0.00    -0.035 A 
HETATM   17  C14 UNL     1      25.944  -0.922  52.308  1.00  0.00     0.011 A 
HETATM   18  C15 UNL     1      26.797  -2.020  52.331  1.00  0.00     0.029 A 
HETATM   19  C16 UNL     1      27.938  -1.988  53.106  1.00  0.00     0.025 A 
HETATM   20  C17 UNL     1      28.273  -0.889  53.872  1.00  0.00     0.029 A 
HETATM   21  C18 UNL     1      27.411   0.201  53.838  1.00  0.00     0.011 A 
BRANCH  19  22
HETATM   22  N3  UNL     1      28.764  -3.143  53.082  1.00  0.00    -0.399 N 
HETATM   23  H16 UNL     1      29.361  -2.815  53.877  1.00  0.00     0.156 HD
HETATM   24  H17 UNL     1      28.762  -4.005  52.480  1.00  0.00     0.156 HD
ENDBRANCH  19  22
ENDBRANCH  15  16
BRANCH   7  25
HETATM   25  O1  UNL     1      23.054  -1.980  56.082  1.00  0.00    -0.344 OA
HETATM   26  H7  UNL     1      22.460  -2.071  56.888  1.00  0.00     0.219 HD
ENDBRANCH   7  25
TORSDOF 3
ENDMDL
MODEL 2
REMARK VINA RESULT:      -8.1      3.205      6.604
REMARK  3 active torsions:
REMARK  status: ('A' for Active; 'I' for Inactive)
REMARK    1  A    between atoms: C6_7  and  O1_8 
REMARK    2  A    between atoms: C12_16  and  C13_17 
REMARK    3  A    between atoms: C16_20  and  N3_21 
ROOT
HETATM    1  C1  UNL     1      22.120  -1.477  54.905  1.00  0.00     0.048 C 
HETATM    2  C2  UNL     1      22.782  -0.496  54.004  1.00  0.00    -0.060 C 
HETATM    3  C3  UNL     1      24.073  -0.712  53.926  1.00  0.00     0.013 C 
HETATM    4  C4  UNL     1      25.266  -0.148  53.252  1.00  0.00     0.047 C 
HETATM    5  S1  UNL     1      25.312   1.296  52.489  1.00  0.00    -0.099 SA
HETATM    6  C5  UNL     1      26.773   1.949  51.683  1.00  0.00     0.104 A 
HETATM    7  C6  UNL     1      26.160   2.906  50.976  1.00  0.00     0.170 A 
HETATM    8  N1  UNL     1      24.792   3.170  50.987  1.00  0.00    -0.200 NA
HETATM    9  C7  UNL     1      24.082   2.421  51.746  1.00  0.00     0.170 A 
HETATM   10  N2  UNL     1      22.661   2.420  51.986  1.00  0.00    -0.321 N 
HETATM   11  C8  UNL     1      21.771   1.550  52.676  1.00  0.00     0.015 C 
HETATM   12  C9  UNL     1      21.877   0.466  53.420  1.00  0.00     0.032 C 
HETATM   13  C10 UNL     1      20.446   2.151  52.381  1.00  0.00     0.059 C 
HETATM   14  C11 UNL     1      20.681   3.568  51.980  1.00  0.00     0.036 C 
HETATM   15  C12 UNL     1      22.064   3.581  51.369  1.00  0.00     0.125 C 
ENDROOT
BRANCH  15  16
HETATM   16  C13 UNL     1      22.082   3.562  49.909  1.00  0.00    -0.035 A 
HETATM   17  C14 UNL     1      22.300   4.733  49.217  1.00  0.00     0.011 A 
HETATM   18  C15 UNL     1      22.313   4.693  47.828  1.00  0.00     0.029 A 
HETATM   19  C16 UNL     1      22.110   3.496  47.172  1.00  0.00     0.025 A 
HETATM   20  C17 UNL     1      21.891   2.316  47.853  1.00  0.00     0.029 A 
HETATM   21  C18 UNL     1      21.881   2.371  49.242  1.00  0.00     0.011 A 
BRANCH  19  22
HETATM   22  N3  UNL     1      22.137   3.529  45.753  1.00  0.00    -0.399 N 
HETATM   23  H16 UNL     1      21.371   2.821  45.654  1.00  0.00     0.156 HD
HETATM   24  H17 UNL     1      22.720   4.071  45.066  1.00  0.00     0.156 HD
ENDBRANCH  19  22
ENDBRANCH  15  16
BRANCH   7  25
HETATM   25  O1  UNL     1      26.980   3.693  50.166  1.00  0.00    -0.344 OA
HETATM   26  H7  UNL     1      27.984   3.664  50.198  1.00  0.00     0.219 HD
ENDBRANCH   7  25
TORSDOF 3
ENDMDL
MODEL 3
REMARK VINA RESULT:      -8.1      3.058      6.844
REMARK  3 active torsions:
REMARK  status: ('A' for Active; 'I' for Inactive)
REMARK    1  A    between atoms: C6_7  and  O1_8 
REMARK    2  A    between atoms: C12_16  and  C13_17 
REMARK    3  A    between atoms: C16_20  and  N3_21 
ROOT
HETATM    1  C1  UNL     1      27.165  -1.354  52.905  1.00  0.00     0.048 C 
HETATM    2  C2  UNL     1      26.206  -0.260  52.591  1.00  0.00    -0.060 C 
HETATM    3  C3  UNL     1      26.793   0.725  51.958  1.00  0.00     0.013 C 
HETATM    4  C4  UNL     1      26.455   2.047  51.380  1.00  0.00     0.047 C 
HETATM    5  S1  UNL     1      25.062   2.857  51.654  1.00  0.00    -0.099 SA
HETATM    6  C5  UNL     1      24.685   4.456  50.939  1.00  0.00     0.104 A 
HETATM    7  C6  UNL     1      23.371   4.448  51.197  1.00  0.00     0.170 A 
HETATM    8  N1  UNL     1      22.678   3.423  51.836  1.00  0.00    -0.200 NA
HETATM    9  C7  UNL     1      23.378   2.413  52.199  1.00  0.00     0.170 A 
HETATM   10  N2  UNL     1      22.984   1.199  52.869  1.00  0.00    -0.321 N 
HETATM   11  C8  UNL     1      23.641  -0.026  53.172  1.00  0.00     0.015 C 
HETATM   12  C9  UNL     1      24.859  -0.517  53.043  1.00  0.00     0.032 C 
HETATM   13  C10 UNL     1      22.548  -0.834  53.771  1.00  0.00     0.059 C 
HETATM   14  C11 UNL     1      21.494   0.117  54.228  1.00  0.00     0.036 C 
HETATM   15  C12 UNL     1      21.613   1.311  53.307  1.00  0.00     0.125 C 
ENDROOT
BRANCH  15  16
HETATM   16  C13 UNL     1      20.636   1.339  52.222  1.00  0.00    -0.035 A 
HETATM   17  C14 UNL     1      20.839   0.561  51.104  1.00  0.00     0.011 A 
HETATM   18  C15 UNL     1      19.897   0.603  50.083  1.00  0.00     0.029 A 
HETATM   19  C16 UNL     1      18.787   1.413  50.204  1.00  0.00     0.025 A 
HETATM   20  C17 UNL     1      18.570   2.197  51.319  1.00  0.00     0.029 A 
HETATM   21  C18 UNL     1      19.521   2.145  52.332  1.00  0.00     0.011 A 
BRANCH  19  22
HETATM   22  N3  UNL     1      17.866   1.407  49.123  1.00  0.00    -0.399 N 
HETATM   23  H16 UNL     1      17.333   0.585  49.493  1.00  0.00     0.156 HD
HETATM   24  H17 UNL     1      17.768   2.015  48.270  1.00  0.00     0.156 HD
ENDBRANCH  19  22
ENDBRANCH  15  16
BRANCH   7  25
HETATM   25  O1  UNL     1      22.655   5.572  50.781  1.00  0.00    -0.344 OA
HETATM   26  H7  UNL     1      22.951   6.171  50.030  1.00  0.00     0.219 HD
ENDBRANCH   7  25
TORSDOF 3
ENDMDL
MODEL 4
REMARK VINA RESULT:      -7.8      4.638      7.467
REMARK  3 active torsions:
REMARK  status: ('A' for Active; 'I' for Inactive)
REMARK    1  A    between atoms: C6_7  and  O1_8 
REMARK    2  A    between atoms: C12_16  and  C13_17 
REMARK    3  A    between atoms: C16_20  and  N3_21 
ROOT
HETATM    1  C1  UNL     1      29.100   5.456  47.970  1.00  0.00     0.048 C 
HETATM    2  C2  UNL     1      27.748   5.579  48.578  1.00  0.00    -0.060 C 
HETATM    3  C3  UNL     1      27.255   6.782  48.412  1.00  0.00     0.013 C 
HETATM    4  C4  UNL     1      26.032   7.548  48.744  1.00  0.00     0.047 C 
HETATM    5  S1  UNL     1      24.885   7.065  49.803  1.00  0.00    -0.099 SA
HETATM    6  C5  UNL     1      23.416   8.016  50.182  1.00  0.00     0.104 A 
HETATM    7  C6  UNL     1      22.729   7.034  50.777  1.00  0.00     0.170 A 
HETATM    8  N1  UNL     1      23.178   5.728  50.960  1.00  0.00    -0.200 NA
HETATM    9  C7  UNL     1      24.351   5.470  50.511  1.00  0.00     0.170 A 
HETATM   10  N2  UNL     1      25.104   4.241  50.530  1.00  0.00    -0.321 N 
HETATM   11  C8  UNL     1      26.324   3.817  49.934  1.00  0.00     0.015 C 
HETATM   12  C9  UNL     1      27.279   4.368  49.209  1.00  0.00     0.032 C 
HETATM   13  C10 UNL     1      26.384   2.383  50.318  1.00  0.00     0.059 C 
HETATM   14  C11 UNL     1      25.487   2.202  51.495  1.00  0.00     0.036 C 
HETATM   15  C12 UNL     1      24.423   3.267  51.348  1.00  0.00     0.125 C 
ENDROOT
BRANCH  15  16
HETATM   16  C13 UNL     1      23.160   2.790  50.791  1.00  0.00    -0.035 A 
HETATM   17  C14 UNL     1      22.076   2.611  51.621  1.00  0.00     0.011 A 
HETATM   18  C15 UNL     1      20.883   2.156  51.070  1.00  0.00     0.029 A 
HETATM   19  C16 UNL     1      20.806   1.894  49.718  1.00  0.00     0.025 A 
HETATM   20  C17 UNL     1      21.885   2.069  48.875  1.00  0.00     0.029 A 
HETATM   21  C18 UNL     1      23.071   2.525  49.440  1.00  0.00     0.011 A 
BRANCH  19  22
HETATM   22  N3  UNL     1      19.558   1.433  49.223  1.00  0.00    -0.399 N 
HETATM   23  H16 UNL     1      19.292   0.974  50.126  1.00  0.00     0.156 HD
HETATM   24  H17 UNL     1      19.086   1.527  48.288  1.00  0.00     0.156 HD
ENDBRANCH  19  22
ENDBRANCH  15  16
BRANCH   7  25
HETATM   25  O1  UNL     1      21.458   7.369  51.248  1.00  0.00    -0.344 OA
HETATM   26  H7  UNL     1      20.973   6.845  51.955  1.00  0.00     0.219 HD
ENDBRANCH   7  25
TORSDOF 3
ENDMDL
MODEL 5
REMARK VINA RESULT:      -7.8      1.627      2.343
REMARK  3 active torsions:
REMARK  status: ('A' for Active; 'I' for Inactive)
REMARK    1  A    between atoms: C6_7  and  O1_8 
REMARK    2  A    between atoms: C12_16  and  C13_17 
REMARK    3  A    between atoms: C16_20  and  N3_21 
ROOT
HETATM    1  C1  UNL     1      21.634   2.910  46.751  1.00  0.00     0.048 C 
HETATM    2  C2  UNL     1      21.841   2.458  48.153  1.00  0.00    -0.060 C 
HETATM    3  C3  UNL     1      20.839   1.726  48.574  1.00  0.00     0.013 C 
HETATM    4  C4  UNL     1      20.416   0.996  49.791  1.00  0.00     0.047 C 
HETATM    5  S1  UNL     1      21.110   1.154  51.263  1.00  0.00    -0.099 SA
HETATM    6  C5  UNL     1      20.574   0.255  52.717  1.00  0.00     0.104 A 
HETATM    7  C6  UNL     1      21.657   0.491  53.468  1.00  0.00     0.170 A 
HETATM    8  N1  UNL     1      22.768   1.233  53.075  1.00  0.00    -0.200 NA
HETATM    9  C7  UNL     1      22.727   1.720  51.890  1.00  0.00     0.170 A 
HETATM   10  N2  UNL     1      23.694   2.519  51.179  1.00  0.00    -0.321 N 
HETATM   11  C8  UNL     1      23.812   2.970  49.835  1.00  0.00     0.015 C 
HETATM   12  C9  UNL     1      23.079   2.917  48.739  1.00  0.00     0.032 C 
HETATM   13  C10 UNL     1      25.137   3.641  49.839  1.00  0.00     0.059 C 
HETATM   14  C11 UNL     1      25.462   3.969  51.256  1.00  0.00     0.036 C 
HETATM   15  C12 UNL     1      24.749   2.920  52.079  1.00  0.00     0.125 C 
ENDROOT
BRANCH  15  16
HETATM   16  C13 UNL     1      25.600   1.824  52.534  1.00  0.00    -0.035 A 
HETATM   17  C14 UNL     1      26.025   1.794  53.844  1.00  0.00     0.011 A 
HETATM   18  C15 UNL     1      26.835   0.742  54.257  1.00  0.00     0.029 A 
HETATM   19  C16 UNL     1      27.195  -0.242  53.360  1.00  0.00     0.025 A 
HETATM   20  C17 UNL     1      26.776  -0.224  52.045  1.00  0.00     0.029 A 
HETATM   21  C18 UNL     1      25.966   0.834  51.646  1.00  0.00     0.011 A 
BRANCH  19  22
HETATM   22  N3  UNL     1      28.023  -1.287  53.850  1.00  0.00    -0.399 N 
HETATM   23  H16 UNL     1      28.618  -0.640  54.419  1.00  0.00     0.156 HD
HETATM   24  H17 UNL     1      28.025  -2.326  53.689  1.00  0.00     0.156 HD
ENDBRANCH  19  22
ENDBRANCH  15  16
BRANCH   7  25
HETATM   25  O1  UNL     1      21.649  -0.061  54.750  1.00  0.00    -0.344 OA
HETATM   26  H7  UNL     1      22.243  -0.822  55.029  1.00  0.00     0.219 HD
ENDBRANCH   7  25
TORSDOF 3
ENDMDL
MODEL 6
REMARK VINA RESULT:      -7.8      3.064      5.856
REMARK  3 active torsions:
REMARK  status: ('A' for Active; 'I' for Inactive)
REMARK    1  A    between atoms: C6_7  and  O1_8 
REMARK    2  A    between atoms: C12_16  and  C13_17 
REMARK    3  A    between atoms: C16_20  and  N3_21 
ROOT
HETATM    1  C1  UNL     1      22.620  -1.702  55.269  1.00  0.00     0.048 C 
HETATM    2  C2  UNL     1      22.450  -0.791  54.105  1.00  0.00    -0.060 C 
HETATM    3  C3  UNL     1      21.238  -0.865  53.611  1.00  0.00     0.013 C 
HETATM    4  C4  UNL     1      20.434  -0.271  52.518  1.00  0.00     0.047 C 
HETATM    5  S1  UNL     1      21.043   0.606  51.281  1.00  0.00    -0.099 SA
HETATM    6  C5  UNL     1      20.041   1.311  49.974  1.00  0.00     0.104 A 
HETATM    7  C6  UNL     1      20.961   2.159  49.497  1.00  0.00     0.170 A 
HETATM    8  N1  UNL     1      22.254   2.311  49.992  1.00  0.00    -0.200 NA
HETATM    9  C7  UNL     1      22.566   1.566  50.987  1.00  0.00     0.170 A 
HETATM   10  N2  UNL     1      23.798   1.475  51.730  1.00  0.00    -0.321 N 
HETATM   11  C8  UNL     1      24.189   0.807  52.924  1.00  0.00     0.015 C 
HETATM   12  C9  UNL     1      23.636  -0.036  53.775  1.00  0.00     0.032 C 
HETATM   13  C10 UNL     1      25.581   1.287  53.117  1.00  0.00     0.059 C 
HETATM   14  C11 UNL     1      26.064   1.784  51.796  1.00  0.00     0.036 C 
HETATM   15  C12 UNL     1      24.822   2.249  51.070  1.00  0.00     0.125 C 
ENDROOT
BRANCH  15  16
HETATM   16  C13 UNL     1      24.602   3.692  51.106  1.00  0.00    -0.035 A 
HETATM   17  C14 UNL     1      23.867   4.241  52.133  1.00  0.00     0.011 A 
HETATM   18  C15 UNL     1      23.669   5.617  52.149  1.00  0.00     0.029 A 
HETATM   19  C16 UNL     1      24.207   6.401  51.149  1.00  0.00     0.025 A 
HETATM   20  C17 UNL     1      24.946   5.863  50.114  1.00  0.00     0.029 A 
HETATM   21  C18 UNL     1      25.135   4.485  50.111  1.00  0.00     0.011 A 
BRANCH  19  22
HETATM   22  N3  UNL     1      23.966   7.798  51.227  1.00  0.00    -0.399 N 
HETATM   23  H16 UNL     1      24.887   8.000  51.681  1.00  0.00     0.156 HD
HETATM   24  H17 UNL     1      23.152   8.396  50.932  1.00  0.00     0.156 HD
ENDBRANCH  19  22
ENDBRANCH  15  16
BRANCH   7  25
HETATM   25  O1  UNL     1      20.570   2.946  48.413  1.00  0.00    -0.344 OA
HETATM   26  H7  UNL     1      21.097   3.016  47.560  1.00  0.00     0.219 HD
ENDBRANCH   7  25
TORSDOF 3
ENDMDL
MODEL 7
REMARK VINA RESULT:      -7.5      2.821      6.210
REMARK  3 active torsions:
REMARK  status: ('A' for Active; 'I' for Inactive)
REMARK    1  A    between atoms: C6_7  and  O1_8 
REMARK    2  A    between atoms: C12_16  and  C13_17 
REMARK    3  A    between atoms: C16_20  and  N3_21 
ROOT
HETATM    1  C1  UNL     1      28.038  -0.104  54.275  1.00  0.00     0.048 C 
HETATM    2  C2  UNL     1      26.724   0.250  53.676  1.00  0.00    -0.060 C 
HETATM    3  C3  UNL     1      25.747  -0.426  54.229  1.00  0.00     0.013 C 
HETATM    4  C4  UNL     1      24.275  -0.561  54.124  1.00  0.00     0.047 C 
HETATM    5  S1  UNL     1      23.369   0.032  52.900  1.00  0.00    -0.099 SA
HETATM    6  C5  UNL     1      21.589  -0.148  52.803  1.00  0.00     0.104 A 
HETATM    7  C6  UNL     1      21.378   0.779  51.861  1.00  0.00     0.170 A 
HETATM    8  N1  UNL     1      22.363   1.554  51.253  1.00  0.00    -0.200 NA
HETATM    9  C7  UNL     1      23.565   1.342  51.645  1.00  0.00     0.170 A 
HETATM   10  N2  UNL     1      24.800   1.961  51.234  1.00  0.00    -0.321 N 
HETATM   11  C8  UNL     1      26.141   1.910  51.707  1.00  0.00     0.015 C 
HETATM   12  C9  UNL     1      26.806   1.244  52.632  1.00  0.00     0.032 C 
HETATM   13  C10 UNL     1      26.821   2.910  50.845  1.00  0.00     0.059 C 
HETATM   14  C11 UNL     1      25.974   3.098  49.632  1.00  0.00     0.036 C 
HETATM   15  C12 UNL     1      24.562   2.805  50.087  1.00  0.00     0.125 C 
ENDROOT
BRANCH  15  16
HETATM   16  C13 UNL     1      23.757   3.990  50.369  1.00  0.00    -0.035 A 
HETATM   17  C14 UNL     1      23.997   4.717  51.514  1.00  0.00     0.011 A 
HETATM   18  C15 UNL     1      23.219   5.842  51.764  1.00  0.00     0.029 A 
HETATM   19  C16 UNL     1      22.233   6.208  50.872  1.00  0.00     0.025 A 
HETATM   20  C17 UNL     1      21.982   5.489  49.721  1.00  0.00     0.029 A 
HETATM   21  C18 UNL     1      22.768   4.366  49.484  1.00  0.00     0.011 A 
BRANCH  19  22
HETATM   22  N3  UNL     1      21.477   7.368  51.190  1.00  0.00    -0.399 N 
HETATM   23  H16 UNL     1      22.310   8.001  51.163  1.00  0.00     0.156 HD
HETATM   24  H17 UNL     1      20.453   7.518  51.379  1.00  0.00     0.156 HD
ENDBRANCH  19  22
ENDBRANCH  15  16
BRANCH   7  25
HETATM   25  O1  UNL     1      20.051   0.969  51.470  1.00  0.00    -0.344 OA
HETATM   26  H7  UNL     1      19.759   1.687  50.831  1.00  0.00     0.219 HD
ENDBRANCH   7  25
TORSDOF 3
ENDMDL
MODEL 8
REMARK VINA RESULT:      -7.5      3.944      6.416
REMARK  3 active torsions:
REMARK  status: ('A' for Active; 'I' for Inactive)
REMARK    1  A    between atoms: C6_7  and  O1_8 
REMARK    2  A    between atoms: C12_16  and  C13_17 
REMARK    3  A    between atoms: C16_20  and  N3_21 
ROOT
HETATM    1  C1  UNL     1      20.653  -0.558  53.319  1.00  0.00     0.048 C 
HETATM    2  C2  UNL     1      21.084   0.345  52.219  1.00  0.00    -0.060 C 
HETATM    3  C3  UNL     1      20.148   0.477  51.311  1.00  0.00     0.013 C 
HETATM    4  C4  UNL     1      19.920   1.183  50.029  1.00  0.00     0.047 C 
HETATM    5  S1  UNL     1      21.084   1.914  49.146  1.00  0.00    -0.099 SA
HETATM    6  C5  UNL     1      20.774   2.761  47.598  1.00  0.00     0.104 A 
HETATM    7  C6  UNL     1      21.936   3.423  47.533  1.00  0.00     0.170 A 
HETATM    8  N1  UNL     1      22.960   3.354  48.475  1.00  0.00    -0.200 NA
HETATM    9  C7  UNL     1      22.749   2.585  49.479  1.00  0.00     0.170 A 
HETATM   10  N2  UNL     1      23.582   2.291  50.618  1.00  0.00    -0.321 N 
HETATM   11  C8  UNL     1      23.383   1.588  51.838  1.00  0.00     0.015 C 
HETATM   12  C9  UNL     1      22.418   0.873  52.385  1.00  0.00     0.032 C 
HETATM   13  C10 UNL     1      24.665   1.819  52.551  1.00  0.00     0.059 C 
HETATM   14  C11 UNL     1      25.680   2.196  51.527  1.00  0.00     0.036 C 
HETATM   15  C12 UNL     1      24.894   2.860  50.418  1.00  0.00     0.125 C 
ENDROOT
BRANCH  15  16
HETATM   16  C13 UNL     1      24.927   4.319  50.440  1.00  0.00    -0.035 A 
HETATM   17  C14 UNL     1      25.806   4.991  49.619  1.00  0.00     0.011 A 
HETATM   18  C15 UNL     1      25.821   6.381  49.655  1.00  0.00     0.029 A 
HETATM   19  C16 UNL     1      24.967   7.056  50.502  1.00  0.00     0.025 A 
HETATM   20  C17 UNL     1      24.082   6.396  51.330  1.00  0.00     0.029 A 
HETATM   21  C18 UNL     1      24.077   5.005  51.283  1.00  0.00     0.011 A 
BRANCH  19  22
HETATM   22  N3  UNL     1      25.037   8.474  50.488  1.00  0.00    -0.399 N 
HETATM   23  H16 UNL     1      24.006   8.591  50.348  1.00  0.00     0.156 HD
HETATM   24  H17 UNL     1      25.840   9.147  50.584  1.00  0.00     0.156 HD
ENDBRANCH  19  22
ENDBRANCH  15  16
BRANCH   7  25
HETATM   25  O1  UNL     1      22.114   4.246  46.420  1.00  0.00    -0.344 OA
HETATM   26  H7  UNL     1      21.787   5.195  46.374  1.00  0.00     0.219 HD
ENDBRANCH   7  25
TORSDOF 3
ENDMDL
MODEL 9
REMARK VINA RESULT:      -7.4      3.566      6.477
REMARK  3 active torsions:
REMARK  status: ('A' for Active; 'I' for Inactive)
REMARK    1  A    between atoms: C6_7  and  O1_8 
REMARK    2  A    between atoms: C12_16  and  C13_17 
REMARK    3  A    between atoms: C16_20  and  N3_21 
ROOT
HETATM    1  C1  UNL     1      25.397  -0.519  54.427  1.00  0.00     0.048 C 
HETATM    2  C2  UNL     1      24.588   0.183  53.394  1.00  0.00    -0.060 C 
HETATM    3  C3  UNL     1      23.339  -0.211  53.414  1.00  0.00     0.013 C 
HETATM    4  C4  UNL     1      22.067   0.056  52.703  1.00  0.00     0.047 C 
HETATM    5  S1  UNL     1      21.938   0.885  51.300  1.00  0.00    -0.099 SA
HETATM    6  C5  UNL     1      20.383   1.191  50.465  1.00  0.00     0.104 A 
HETATM    7  C6  UNL     1      20.821   2.152  49.643  1.00  0.00     0.170 A 
HETATM    8  N1  UNL     1      22.124   2.640  49.590  1.00  0.00    -0.200 NA
HETATM    9  C7  UNL     1      22.956   2.108  50.407  1.00  0.00     0.170 A 
HETATM   10  N2  UNL     1      24.357   2.377  50.615  1.00  0.00    -0.321 N 
HETATM   11  C8  UNL     1      25.314   1.961  51.582  1.00  0.00     0.015 C 
HETATM   12  C9  UNL     1      25.342   1.130  52.607  1.00  0.00     0.032 C 
HETATM   13  C10 UNL     1      26.513   2.751  51.203  1.00  0.00     0.059 C 
HETATM   14  C11 UNL     1      26.334   3.174  49.785  1.00  0.00     0.036 C 
HETATM   15  C12 UNL     1      24.838   3.266  49.586  1.00  0.00     0.125 C 
ENDROOT
BRANCH  15  16
HETATM   16  C13 UNL     1      24.299   4.621  49.661  1.00  0.00    -0.035 A 
HETATM   17  C14 UNL     1      23.872   5.247  48.510  1.00  0.00     0.011 A 
HETATM   18  C15 UNL     1      23.362   6.537  48.604  1.00  0.00     0.029 A 
HETATM   19  C16 UNL     1      23.292   7.162  49.832  1.00  0.00     0.025 A 
HETATM   20  C17 UNL     1      23.717   6.546  50.992  1.00  0.00     0.029 A 
HETATM   21  C18 UNL     1      24.225   5.256  50.883  1.00  0.00     0.011 A 
BRANCH  19  22
HETATM   22  N3  UNL     1      22.761   8.478  49.854  1.00  0.00    -0.399 N 
HETATM   23  H16 UNL     1      21.796   8.158  50.105  1.00  0.00     0.156 HD
HETATM   24  H17 UNL     1      23.193   9.421  49.679  1.00  0.00     0.156 HD
ENDBRANCH  19  22
ENDBRANCH  15  16
BRANCH   7  25
HETATM   25  O1  UNL     1      19.874   2.696  48.773  1.00  0.00    -0.344 OA
HETATM   26  H7  UNL     1      18.913   2.848  49.024  1.00  0.00     0.219 HD
ENDBRANCH   7  25
TORSDOF 3
ENDMDL
