MODEL 1
REMARK VINA RESULT:      -9.5      0.000      0.000
REMARK  1 active torsions:
REMARK  status: ('A' for Active; 'I' for Inactive)
REMARK    1  A    between atoms: C11_14  and  O2_15 
ROOT
HETATM    1  C1  UNL     1      20.339  -0.474  53.326  1.00  0.00     0.039 C 
HETATM    2  C2  UNL     1      21.019   0.277  52.488  1.00  0.00    -0.071 C 
HETATM    3  C3  UNL     1      20.808   1.181  51.301  1.00  0.00     0.036 C 
HETATM    4  C4  UNL     1      21.348   0.549  50.064  1.00  0.00     0.024 C 
HETATM    5  C5  UNL     1      21.664   1.441  48.892  1.00  0.00     0.125 C 
HETATM    6  N1  UNL     1      22.750   2.324  49.238  1.00  0.00    -0.341 N 
HETATM    7  C6  UNL     1      23.812   3.204  49.592  1.00  0.00     0.341 C 
HETATM    8  O1  UNL     1      22.998   3.788  50.393  1.00  0.00    -0.245 OA
HETATM    9  N2  UNL     1      25.156   3.573  49.411  1.00  0.00    -0.207 NA
HETATM   10  C7  UNL     1      26.164   3.214  50.074  1.00  0.00     0.126 C 
HETATM   11  C8  UNL     1      26.351   2.338  51.212  1.00  0.00    -0.048 A 
HETATM   12  C9  UNL     1      27.101   1.724  52.149  1.00  0.00     0.050 A 
HETATM   13  C10 UNL     1      27.410   0.871  53.285  1.00  0.00     0.021 A 
HETATM   14  C11 UNL     1      26.644   0.102  54.066  1.00  0.00     0.110 A 
HETATM   15  C12 UNL     1      25.446  -0.614  54.681  1.00  0.00     0.235 A 
HETATM   16  O3  UNL     1      24.311  -0.337  54.073  1.00  0.00    -0.380 OA
HETATM   17  C13 UNL     1      23.067  -0.781  54.319  1.00  0.00     0.206 A 
HETATM   18  C14 UNL     1      22.118  -0.159  53.305  1.00  0.00    -0.036 A 
HETATM   19  C15 UNL     1      23.105   0.498  52.729  1.00  0.00     0.003 A 
HETATM   20  C16 UNL     1      24.119   1.252  52.039  1.00  0.00    -0.006 A 
HETATM   21  C17 UNL     1      25.431   1.569  51.947  1.00  0.00     0.056 A 
HETATM   22  H9  UNL     1      23.508   1.942  48.587  1.00  0.00     0.164 HD
ENDROOT
BRANCH  14  23
HETATM   23  O2  UNL     1      27.650  -0.409  54.938  1.00  0.00    -0.158 OA
HETATM   24  F1  UNL     1      28.867   0.159  54.963  1.00  0.00    -0.042 F 
ENDBRANCH  14  23
TORSDOF 1
ENDMDL
MODEL 2
REMARK VINA RESULT:      -9.3      3.534      6.343
REMARK  1 active torsions:
REMARK  status: ('A' for Active; 'I' for Inactive)
REMARK    1  A    between atoms: C11_14  and  O2_15 
ROOT
HETATM    1  C1  UNL     1      24.924   3.268  49.967  1.00  0.00     0.039 C 
HETATM    2  C2  UNL     1      25.224   2.516  51.003  1.00  0.00    -0.071 C 
HETATM    3  C3  UNL     1      26.395   2.159  51.881  1.00  0.00     0.036 C 
HETATM    4  C4  UNL     1      26.820   0.751  51.634  1.00  0.00     0.024 C 
HETATM    5  C5  UNL     1      27.630   0.058  52.698  1.00  0.00     0.125 C 
HETATM    6  N1  UNL     1      26.824  -0.110  53.883  1.00  0.00    -0.341 N 
HETATM    7  C6  UNL     1      26.029  -0.257  55.054  1.00  0.00     0.341 C 
HETATM    8  O1  UNL     1      26.093   1.014  55.201  1.00  0.00    -0.245 OA
HETATM    9  N2  UNL     1      25.342  -1.127  55.918  1.00  0.00    -0.207 NA
HETATM   10  C7  UNL     1      24.126  -1.455  55.896  1.00  0.00     0.126 C 
HETATM   11  C8  UNL     1      23.013  -1.106  55.039  1.00  0.00    -0.048 A 
HETATM   12  C9  UNL     1      21.721  -1.169  54.656  1.00  0.00     0.050 A 
HETATM   13  C10 UNL     1      20.532  -0.892  53.866  1.00  0.00     0.021 A 
HETATM   14  C11 UNL     1      20.327  -0.129  52.788  1.00  0.00     0.110 A 
HETATM   15  C12 UNL     1      20.539   0.820  51.614  1.00  0.00     0.235 A 
HETATM   16  O3  UNL     1      21.783   1.240  51.506  1.00  0.00    -0.380 OA
HETATM   17  C13 UNL     1      22.342   2.063  50.604  1.00  0.00     0.206 A 
HETATM   18  C14 UNL     1      23.822   2.206  50.928  1.00  0.00    -0.036 A 
HETATM   19  C15 UNL     1      23.712   1.399  51.965  1.00  0.00     0.003 A 
HETATM   20  C16 UNL     1      23.684   0.532  53.113  1.00  0.00    -0.006 A 
HETATM   21  C17 UNL     1      22.943  -0.274  53.908  1.00  0.00     0.056 A 
HETATM   22  H9  UNL     1      26.726  -1.174  53.885  1.00  0.00     0.164 HD
ENDROOT
BRANCH  14  23
HETATM   23  O2  UNL     1      18.934  -0.368  52.603  1.00  0.00    -0.158 OA
HETATM   24  F1  UNL     1      18.449  -0.591  51.371  1.00  0.00    -0.042 F 
ENDBRANCH  14  23
TORSDOF 1
ENDMDL
MODEL 3
REMARK VINA RESULT:      -9.2      2.562      4.490
REMARK  1 active torsions:
REMARK  status: ('A' for Active; 'I' for Inactive)
REMARK    1  A    between atoms: C11_14  and  O2_15 
ROOT
HETATM    1  C1  UNL     1      21.935   2.389  49.562  1.00  0.00     0.039 C 
HETATM    2  C2  UNL     1      21.924   1.649  50.649  1.00  0.00    -0.071 C 
HETATM    3  C3  UNL     1      20.993   0.786  51.459  1.00  0.00     0.036 C 
HETATM    4  C4  UNL     1      20.673   1.443  52.759  1.00  0.00     0.024 C 
HETATM    5  C5  UNL     1      20.165   0.580  53.883  1.00  0.00     0.125 C 
HETATM    6  N1  UNL     1      21.202  -0.335  54.294  1.00  0.00    -0.341 N 
HETATM    7  C6  UNL     1      22.224  -1.246  54.684  1.00  0.00     0.341 C 
HETATM    8  O1  UNL     1      22.062  -1.836  53.558  1.00  0.00    -0.245 OA
HETATM    9  N2  UNL     1      23.154  -1.636  55.663  1.00  0.00    -0.207 NA
HETATM   10  C7  UNL     1      24.368  -1.317  55.762  1.00  0.00     0.126 C 
HETATM   11  C8  UNL     1      25.249  -0.478  54.976  1.00  0.00    -0.048 A 
HETATM   12  C9  UNL     1      26.438   0.092  54.698  1.00  0.00     0.050 A 
HETATM   13  C10 UNL     1      27.413   0.905  53.988  1.00  0.00     0.021 A 
HETATM   14  C11 UNL     1      27.321   1.666  52.892  1.00  0.00     0.110 A 
HETATM   15  C12 UNL     1      26.786   2.387  51.661  1.00  0.00     0.235 A 
HETATM   16  O3  UNL     1      25.509   2.151  51.438  1.00  0.00    -0.380 OA
HETATM   17  C13 UNL     1      24.701   2.612  50.469  1.00  0.00     0.206 A 
HETATM   18  C14 UNL     1      23.308   2.039  50.684  1.00  0.00    -0.036 A 
HETATM   19  C15 UNL     1      23.703   1.380  51.755  1.00  0.00     0.003 A 
HETATM   20  C16 UNL     1      24.046   0.627  52.932  1.00  0.00    -0.006 A 
HETATM   21  C17 UNL     1      25.007   0.286  53.821  1.00  0.00     0.056 A 
HETATM   22  H9  UNL     1      21.407   0.051  55.271  1.00  0.00     0.164 HD
ENDROOT
BRANCH  14  23
HETATM   23  O2  UNL     1      28.667   2.131  52.827  1.00  0.00    -0.158 OA
HETATM   24  F1  UNL     1      29.151   2.924  53.796  1.00  0.00    -0.042 F 
ENDBRANCH  14  23
TORSDOF 1
ENDMDL
MODEL 4
REMARK VINA RESULT:      -8.9      1.606      4.259
REMARK  1 active torsions:
REMARK  status: ('A' for Active; 'I' for Inactive)
REMARK    1  A    between atoms: C11_14  and  O2_15 
ROOT
HETATM    1  C1  UNL     1      26.374   4.097  49.355  1.00  0.00     0.039 C 
HETATM    2  C2  UNL     1      25.222   3.534  49.648  1.00  0.00    -0.071 C 
HETATM    3  C3  UNL     1      23.798   3.475  49.161  1.00  0.00     0.036 C 
HETATM    4  C4  UNL     1      22.892   4.175  50.115  1.00  0.00     0.024 C 
HETATM    5  C5  UNL     1      21.424   3.840  50.075  1.00  0.00     0.125 C 
HETATM    6  N1  UNL     1      21.232   2.469  50.479  1.00  0.00    -0.341 N 
HETATM    7  C6  UNL     1      21.051   1.110  50.864  1.00  0.00     0.341 C 
HETATM    8  O1  UNL     1      21.618   0.773  49.765  1.00  0.00    -0.245 OA
HETATM    9  N2  UNL     1      20.573   0.204  51.826  1.00  0.00    -0.207 NA
HETATM   10  C7  UNL     1      21.203  -0.339  52.772  1.00  0.00     0.126 C 
HETATM   11  C8  UNL     1      22.574  -0.267  53.232  1.00  0.00    -0.048 A 
HETATM   12  C9  UNL     1      23.587  -0.601  54.056  1.00  0.00     0.050 A 
HETATM   13  C10 UNL     1      24.933  -0.609  54.606  1.00  0.00     0.021 A 
HETATM   14  C11 UNL     1      26.051   0.036  54.257  1.00  0.00     0.110 A 
HETATM   15  C12 UNL     1      27.047   0.940  53.539  1.00  0.00     0.235 A 
HETATM   16  O3  UNL     1      26.518   1.589  52.523  1.00  0.00    -0.380 OA
HETATM   17  C13 UNL     1      27.074   2.470  51.675  1.00  0.00     0.206 A 
HETATM   18  C14 UNL     1      26.012   2.935  50.690  1.00  0.00    -0.036 A 
HETATM   19  C15 UNL     1      25.099   2.170  51.255  1.00  0.00     0.003 A 
HETATM   20  C16 UNL     1      24.040   1.367  51.808  1.00  0.00    -0.006 A 
HETATM   21  C17 UNL     1      23.668   0.479  52.759  1.00  0.00     0.056 A 
HETATM   22  H9  UNL     1      20.720   2.624  51.405  1.00  0.00     0.164 HD
ENDROOT
BRANCH  14  23
HETATM   23  O2  UNL     1      26.931  -0.482  55.252  1.00  0.00    -0.158 OA
HETATM   24  F1  UNL     1      28.246  -0.213  55.189  1.00  0.00    -0.042 F 
ENDBRANCH  14  23
TORSDOF 1
ENDMDL
MODEL 5
REMARK VINA RESULT:      -8.8      2.123      4.335
REMARK  1 active torsions:
REMARK  status: ('A' for Active; 'I' for Inactive)
REMARK    1  A    between atoms: C11_14  and  O2_15 
ROOT
HETATM    1  C1  UNL     1      24.678   4.057  49.401  1.00  0.00     0.039 C 
HETATM    2  C2  UNL     1      23.749   3.429  50.087  1.00  0.00    -0.071 C 
HETATM    3  C3  UNL     1      22.250   3.316  50.184  1.00  0.00     0.036 C 
HETATM    4  C4  UNL     1      21.761   3.941  51.446  1.00  0.00     0.024 C 
HETATM    5  C5  UNL     1      20.404   3.536  51.958  1.00  0.00     0.125 C 
HETATM    6  N1  UNL     1      20.428   2.145  52.339  1.00  0.00    -0.341 N 
HETATM    7  C6  UNL     1      20.454   0.768  52.698  1.00  0.00     0.341 C 
HETATM    8  O1  UNL     1      20.563   0.493  51.451  1.00  0.00    -0.245 OA
HETATM    9  N2  UNL     1      20.416  -0.190  53.726  1.00  0.00    -0.207 NA
HETATM   10  C7  UNL     1      21.380  -0.732  54.329  1.00  0.00     0.126 C 
HETATM   11  C8  UNL     1      22.819  -0.607  54.228  1.00  0.00    -0.048 A 
HETATM   12  C9  UNL     1      24.083  -0.918  54.581  1.00  0.00     0.050 A 
HETATM   13  C10 UNL     1      25.536  -0.877  54.569  1.00  0.00     0.021 A 
HETATM   14  C11 UNL     1      26.410  -0.168  53.848  1.00  0.00     0.110 A 
HETATM   15  C12 UNL     1      27.021   0.805  52.846  1.00  0.00     0.235 A 
HETATM   16  O3  UNL     1      26.119   1.459  52.144  1.00  0.00    -0.380 OA
HETATM   17  C13 UNL     1      26.274   2.393  51.191  1.00  0.00     0.206 A 
HETATM   18  C14 UNL     1      24.899   2.836  50.714  1.00  0.00    -0.036 A 
HETATM   19  C15 UNL     1      24.302   2.011  51.551  1.00  0.00     0.003 A 
HETATM   20  C16 UNL     1      23.566   1.140  52.430  1.00  0.00    -0.006 A 
HETATM   21  C17 UNL     1      23.620   0.205  53.406  1.00  0.00     0.056 A 
HETATM   22  H9  UNL     1      20.310   2.246  53.397  1.00  0.00     0.164 HD
ENDROOT
BRANCH  14  23
HETATM   23  O2  UNL     1      27.623  -0.673  54.401  1.00  0.00    -0.158 OA
HETATM   24  F1  UNL     1      28.326   0.072  55.270  1.00  0.00    -0.042 F 
ENDBRANCH  14  23
TORSDOF 1
ENDMDL
MODEL 6
REMARK VINA RESULT:      -8.4      2.743      4.062
REMARK  1 active torsions:
REMARK  status: ('A' for Active; 'I' for Inactive)
REMARK    1  A    between atoms: C11_14  and  O2_15 
ROOT
HETATM    1  C1  UNL     1      22.686  -1.077  54.737  1.00  0.00     0.039 C 
HETATM    2  C2  UNL     1      21.970  -0.238  54.021  1.00  0.00    -0.071 C 
HETATM    3  C3  UNL     1      20.544   0.209  53.834  1.00  0.00     0.036 C 
HETATM    4  C4  UNL     1      20.024  -0.252  52.515  1.00  0.00     0.024 C 
HETATM    5  C5  UNL     1      18.830   0.460  51.935  1.00  0.00     0.125 C 
HETATM    6  N1  UNL     1      19.187   1.822  51.621  1.00  0.00    -0.341 N 
HETATM    7  C6  UNL     1      19.541   3.169  51.329  1.00  0.00     0.341 C 
HETATM    8  O1  UNL     1      19.616   3.374  52.592  1.00  0.00    -0.245 OA
HETATM    9  N2  UNL     1      19.790   4.143  50.346  1.00  0.00    -0.207 NA
HETATM   10  C7  UNL     1      20.891   4.475  49.833  1.00  0.00     0.126 C 
HETATM   11  C8  UNL     1      22.256   4.031  50.021  1.00  0.00    -0.048 A 
HETATM   12  C9  UNL     1      23.579   4.063  49.766  1.00  0.00     0.050 A 
HETATM   13  C10 UNL     1      24.983   3.700  49.869  1.00  0.00     0.021 A 
HETATM   14  C11 UNL     1      25.625   2.792  50.612  1.00  0.00     0.110 A 
HETATM   15  C12 UNL     1      25.932   1.677  51.605  1.00  0.00     0.235 A 
HETATM   16  O3  UNL     1      24.859   1.219  52.216  1.00  0.00    -0.380 OA
HETATM   17  C13 UNL     1      24.736   0.245  53.133  1.00  0.00     0.206 A 
HETATM   18  C14 UNL     1      23.265   0.104  53.498  1.00  0.00    -0.036 A 
HETATM   19  C15 UNL     1      22.927   1.067  52.664  1.00  0.00     0.003 A 
HETATM   20  C16 UNL     1      22.467   2.107  51.781  1.00  0.00    -0.006 A 
HETATM   21  C17 UNL     1      22.796   3.035  50.854  1.00  0.00     0.056 A 
HETATM   22  H9  UNL     1      19.127   1.782  50.554  1.00  0.00     0.164 HD
ENDROOT
BRANCH  14  23
HETATM   23  O2  UNL     1      26.957   3.032  50.163  1.00  0.00    -0.158 OA
HETATM   24  F1  UNL     1      27.167   3.686  49.009  1.00  0.00    -0.042 F 
ENDBRANCH  14  23
TORSDOF 1
ENDMDL
MODEL 7
REMARK VINA RESULT:      -8.3      3.010      5.163
REMARK  1 active torsions:
REMARK  status: ('A' for Active; 'I' for Inactive)
REMARK    1  A    between atoms: C11_14  and  O2_15 
ROOT
HETATM    1  C1  UNL     1      22.275   5.813  50.833  1.00  0.00     0.039 C 
HETATM    2  C2  UNL     1      23.259   4.954  50.983  1.00  0.00    -0.071 C 
HETATM    3  C3  UNL     1      24.744   4.835  50.759  1.00  0.00     0.036 C 
HETATM    4  C4  UNL     1      25.028   3.885  49.647  1.00  0.00     0.024 C 
HETATM    5  C5  UNL     1      26.402   3.273  49.571  1.00  0.00     0.125 C 
HETATM    6  N1  UNL     1      26.613   2.418  50.714  1.00  0.00    -0.341 N 
HETATM    7  C6  UNL     1      26.820   1.589  51.852  1.00  0.00     0.341 C 
HETATM    8  O1  UNL     1      26.843   2.654  52.565  1.00  0.00    -0.245 OA
HETATM    9  N2  UNL     1      26.970   0.287  52.359  1.00  0.00    -0.207 NA
HETATM   10  C7  UNL     1      26.088  -0.478  52.830  1.00  0.00     0.126 C 
HETATM   11  C8  UNL     1      24.660  -0.350  53.034  1.00  0.00    -0.048 A 
HETATM   12  C9  UNL     1      23.456  -0.801  53.440  1.00  0.00     0.050 A 
HETATM   13  C10 UNL     1      22.024  -0.788  53.692  1.00  0.00     0.021 A 
HETATM   14  C11 UNL     1      21.081   0.133  53.468  1.00  0.00     0.110 A 
HETATM   15  C12 UNL     1      20.364   1.412  53.051  1.00  0.00     0.235 A 
HETATM   16  O3  UNL     1      21.172   2.309  52.524  1.00  0.00    -0.380 OA
HETATM   17  C13 UNL     1      20.906   3.532  52.036  1.00  0.00     0.206 A 
HETATM   18  C14 UNL     1      22.202   4.147  51.529  1.00  0.00    -0.036 A 
HETATM   19  C15 UNL     1      22.889   3.075  51.873  1.00  0.00     0.003 A 
HETATM   20  C16 UNL     1      23.716   1.948  52.216  1.00  0.00    -0.006 A 
HETATM   21  C17 UNL     1      23.775   0.701  52.736  1.00  0.00     0.056 A 
HETATM   22  H9  UNL     1      26.643   1.467  50.225  1.00  0.00     0.164 HD
ENDROOT
BRANCH  14  23
HETATM   23  O2  UNL     1      19.950  -0.574  53.973  1.00  0.00    -0.158 OA
HETATM   24  F1  UNL     1      20.023  -1.900  54.174  1.00  0.00    -0.042 F 
ENDBRANCH  14  23
TORSDOF 1
ENDMDL
MODEL 8
REMARK VINA RESULT:      -8.2      2.189      3.363
REMARK  1 active torsions:
REMARK  status: ('A' for Active; 'I' for Inactive)
REMARK    1  A    between atoms: C11_14  and  O2_15 
ROOT
HETATM    1  C1  UNL     1      18.087   1.308  49.961  1.00  0.00     0.039 C 
HETATM    2  C2  UNL     1      19.343   1.685  49.871  1.00  0.00    -0.071 C 
HETATM    3  C3  UNL     1      20.233   2.580  49.048  1.00  0.00     0.036 C 
HETATM    4  C4  UNL     1      21.157   1.765  48.209  1.00  0.00     0.024 C 
HETATM    5  C5  UNL     1      22.407   2.423  47.688  1.00  0.00     0.125 C 
HETATM    6  N1  UNL     1      23.273   2.755  48.793  1.00  0.00    -0.341 N 
HETATM    7  C6  UNL     1      24.114   3.094  49.890  1.00  0.00     0.341 C 
HETATM    8  O1  UNL     1      23.248   3.979  50.221  1.00  0.00    -0.245 OA
HETATM    9  N2  UNL     1      25.308   2.846  50.590  1.00  0.00    -0.207 NA
HETATM   10  C7  UNL     1      25.493   2.093  51.582  1.00  0.00     0.126 C 
HETATM   11  C8  UNL     1      24.626   1.233  52.359  1.00  0.00    -0.048 A 
HETATM   12  C9  UNL     1      24.372   0.364  53.358  1.00  0.00     0.050 A 
HETATM   13  C10 UNL     1      23.600  -0.528  54.208  1.00  0.00     0.021 A 
HETATM   14  C11 UNL     1      22.311  -0.885  54.201  1.00  0.00     0.110 A 
HETATM   15  C12 UNL     1      20.836  -1.008  53.836  1.00  0.00     0.235 A 
HETATM   16  O3  UNL     1      20.498  -0.275  52.795  1.00  0.00    -0.380 OA
HETATM   17  C13 UNL     1      19.310  -0.137  52.184  1.00  0.00     0.206 A 
HETATM   18  C14 UNL     1      19.472   0.824  51.016  1.00  0.00    -0.036 A 
HETATM   19  C15 UNL     1      20.754   0.987  51.278  1.00  0.00     0.003 A 
HETATM   20  C16 UNL     1      22.158   1.223  51.491  1.00  0.00    -0.006 A 
HETATM   21  C17 UNL     1      23.256   0.943  52.229  1.00  0.00     0.056 A 
HETATM   22  H9  UNL     1      24.078   2.078  48.602  1.00  0.00     0.164 HD
ENDROOT
BRANCH  14  23
HETATM   23  O2  UNL     1      22.315  -1.772  55.317  1.00  0.00    -0.158 OA
HETATM   24  F1  UNL     1      23.417  -1.888  56.077  1.00  0.00    -0.042 F 
ENDBRANCH  14  23
TORSDOF 1
ENDMDL
MODEL 9
REMARK VINA RESULT:      -8.1      3.030      4.931
REMARK  1 active torsions:
REMARK  status: ('A' for Active; 'I' for Inactive)
REMARK    1  A    between atoms: C11_14  and  O2_15 
ROOT
HETATM    1  C1  UNL     1      24.847  -0.448  53.117  1.00  0.00     0.039 C 
HETATM    2  C2  UNL     1      23.820   0.306  52.791  1.00  0.00    -0.071 C 
HETATM    3  C3  UNL     1      22.336   0.413  53.023  1.00  0.00     0.036 C 
HETATM    4  C4  UNL     1      21.589   0.090  51.774  1.00  0.00     0.024 C 
HETATM    5  C5  UNL     1      20.170   0.579  51.649  1.00  0.00     0.125 C 
HETATM    6  N1  UNL     1      20.161   2.021  51.601  1.00  0.00    -0.341 N 
HETATM    7  C6  UNL     1      20.157   3.444  51.571  1.00  0.00     0.341 C 
HETATM    8  O1  UNL     1      20.517   3.424  52.801  1.00  0.00    -0.245 OA
HETATM    9  N2  UNL     1      19.946   4.613  50.821  1.00  0.00    -0.207 NA
HETATM   10  C7  UNL     1      20.788   5.296  50.180  1.00  0.00     0.126 C 
HETATM   11  C8  UNL     1      22.215   5.176  49.962  1.00  0.00    -0.048 A 
HETATM   12  C9  UNL     1      23.393   5.581  49.446  1.00  0.00     0.050 A 
HETATM   13  C10 UNL     1      24.818   5.563  49.159  1.00  0.00     0.021 A 
HETATM   14  C11 UNL     1      25.795   4.720  49.509  1.00  0.00     0.110 A 
HETATM   15  C12 UNL     1      26.562   3.552  50.118  1.00  0.00     0.235 A 
HETATM   16  O3  UNL     1      25.796   2.738  50.815  1.00  0.00    -0.380 OA
HETATM   17  C13 UNL     1      26.109   1.612  51.478  1.00  0.00     0.206 A 
HETATM   18  C14 UNL     1      24.841   1.047  52.102  1.00  0.00    -0.036 A 
HETATM   19  C15 UNL     1      24.116   2.034  51.615  1.00  0.00     0.003 A 
HETATM   20  C16 UNL     1      23.248   3.073  51.124  1.00  0.00    -0.006 A 
HETATM   21  C17 UNL     1      23.137   4.208  50.398  1.00  0.00     0.056 A 
HETATM   22  H9  UNL     1      19.833   2.166  50.594  1.00  0.00     0.164 HD
ENDROOT
BRANCH  14  23
HETATM   23  O2  UNL     1      26.890   5.361  48.858  1.00  0.00    -0.158 OA
HETATM   24  F1  UNL     1      27.888   4.624  48.344  1.00  0.00    -0.042 F 
ENDBRANCH  14  23
TORSDOF 1
ENDMDL
