MODEL 1
REMARK VINA RESULT:      -9.4      0.000      0.000
REMARK  5 active torsions:
REMARK  status: ('A' for Active; 'I' for Inactive)
REMARK    1  A    between atoms: C6_7  and  O1_8 
REMARK    2  A    between atoms: O1_8  and  C7_9 
REMARK    3  A    between atoms: C7_9  and  C8_10 
REMARK    4  A    between atoms: C9_11  and  C10_12 
REMARK    5  A    between atoms: C19_22  and  C20_23 
ROOT
HETATM    1  C10 UNL     1      26.279   2.890  50.990  1.00  0.00     0.033 C 
HETATM    2  C11 UNL     1      24.982   2.549  51.129  1.00  0.00     0.012 C 
HETATM    3  C12 UNL     1      23.976   2.119  52.119  1.00  0.00     0.042 C 
HETATM    4  C13 UNL     1      23.708   3.368  52.982  1.00  0.00     0.019 C 
HETATM    5  C14 UNL     1      24.322   1.063  53.048  1.00  0.00    -0.007 A 
HETATM    6  C15 UNL     1      25.483   0.647  53.711  1.00  0.00     0.044 A 
HETATM    7  C16 UNL     1      25.536  -0.442  54.585  1.00  0.00     0.032 A 
HETATM    8  C17 UNL     1      24.377  -1.156  54.813  1.00  0.00     0.027 A 
HETATM    9  C18 UNL     1      23.246  -0.741  54.158  1.00  0.00     0.049 A 
HETATM   10 CL1  UNL     1      21.790  -1.699  54.492  1.00  0.00    -0.083 Cl
HETATM   11  C19 UNL     1      23.129   0.345  53.269  1.00  0.00     0.078 A 
HETATM   12  N2  UNL     1      26.859   1.051  53.797  1.00  0.00    -0.308 N 
HETATM   13  C21 UNL     1      27.588   2.094  53.136  1.00  0.00     0.325 C 
HETATM   14  O2  UNL     1      28.719   2.343  53.573  1.00  0.00    -0.247 OA
HETATM   15  N3  UNL     1      27.261   2.950  52.021  1.00  0.00    -0.309 N 
HETATM   16  H20 UNL     1      27.464   0.518  54.441  1.00  0.00     0.170 HD
HETATM   17  H21 UNL     1      27.858   3.827  51.911  1.00  0.00     0.170 HD
ENDROOT
BRANCH   1  18
HETATM   18  C9  UNL     1      26.770   3.258  49.669  1.00  0.00     0.027 C 
HETATM   19  C8  UNL     1      26.832   4.328  48.944  1.00  0.00     0.002 C 
BRANCH  19  20
HETATM   20  C7  UNL     1      26.514   5.761  48.891  1.00  0.00     0.205 C 
BRANCH  20  21
HETATM   21  O1  UNL     1      25.623   6.162  49.946  1.00  0.00    -0.332 OA
BRANCH  21  22
HETATM   22  C6  UNL     1      24.261   6.022  49.722  1.00  0.00     0.139 C 
HETATM   23  C5  UNL     1      23.688   5.744  48.547  1.00  0.00     0.074 C 
HETATM   24  C4  UNL     1      22.270   5.577  48.205  1.00  0.00     0.114 C 
HETATM   25  N1  UNL     1      21.308   5.308  49.023  1.00  0.00    -0.299 NA
HETATM   26  C3  UNL     1      21.409   5.111  50.455  1.00  0.00     0.173 C 
HETATM   27  C2  UNL     1      22.088   6.302  51.132  1.00  0.00     0.099 C 
HETATM   28  C1  UNL     1      21.606   7.556  50.425  1.00  0.00     0.034 C 
HETATM   29  N4  UNL     1      23.529   6.218  50.951  1.00  0.00    -0.365 N 
HETATM   30  H22 UNL     1      24.098   6.314  51.836  1.00  0.00     0.162 HD
ENDBRANCH  21  22
ENDBRANCH  20  21
ENDBRANCH  19  20
ENDBRANCH   1  18
BRANCH  11  31
HETATM   31  C20 UNL     1      21.852   0.670  52.647  1.00  0.00     0.419 C 
HETATM   32  F1  UNL     1      20.943   1.362  53.408  1.00  0.00    -0.166 F 
HETATM   33  F2  UNL     1      21.164  -0.565  52.515  1.00  0.00    -0.166 F 
HETATM   34  F3  UNL     1      21.904   1.042  51.316  1.00  0.00    -0.166 F 
ENDBRANCH  11  31
TORSDOF 5
ENDMDL
MODEL 2
REMARK VINA RESULT:      -9.3      2.640      4.519
REMARK  5 active torsions:
REMARK  status: ('A' for Active; 'I' for Inactive)
REMARK    1  A    between atoms: C6_7  and  O1_8 
REMARK    2  A    between atoms: O1_8  and  C7_9 
REMARK    3  A    between atoms: C7_9  and  C8_10 
REMARK    4  A    between atoms: C9_11  and  C10_12 
REMARK    5  A    between atoms: C19_22  and  C20_23 
ROOT
HETATM    1  C10 UNL     1      26.212   2.872  50.920  1.00  0.00     0.033 C 
HETATM    2  C11 UNL     1      24.921   2.513  51.077  1.00  0.00     0.012 C 
HETATM    3  C12 UNL     1      23.931   2.087  52.084  1.00  0.00     0.042 C 
HETATM    4  C13 UNL     1      23.650   3.349  52.924  1.00  0.00     0.019 C 
HETATM    5  C14 UNL     1      24.302   1.057  53.032  1.00  0.00    -0.007 A 
HETATM    6  C15 UNL     1      25.475   0.673  53.694  1.00  0.00     0.044 A 
HETATM    7  C16 UNL     1      25.553  -0.396  54.590  1.00  0.00     0.032 A 
HETATM    8  C17 UNL     1      24.409  -1.124  54.843  1.00  0.00     0.027 A 
HETATM    9  C18 UNL     1      23.265  -0.741  54.189  1.00  0.00     0.049 A 
HETATM   10 CL1  UNL     1      21.828  -1.716  54.556  1.00  0.00    -0.083 Cl
HETATM   11  C19 UNL     1      23.123   0.324  53.279  1.00  0.00     0.078 A 
HETATM   12  N2  UNL     1      26.845   1.102  53.759  1.00  0.00    -0.308 N 
HETATM   13  C21 UNL     1      27.551   2.143  53.071  1.00  0.00     0.325 C 
HETATM   14  O2  UNL     1      28.681   2.419  53.492  1.00  0.00    -0.247 OA
HETATM   15  N3  UNL     1      27.201   2.969  51.940  1.00  0.00    -0.309 N 
HETATM   16  H20 UNL     1      27.465   0.592  54.409  1.00  0.00     0.170 HD
HETATM   17  H21 UNL     1      27.782   3.853  51.807  1.00  0.00     0.170 HD
ENDROOT
BRANCH   1  18
HETATM   18  C9  UNL     1      26.685   3.220  49.587  1.00  0.00     0.027 C 
HETATM   19  C8  UNL     1      26.908   4.301  48.911  1.00  0.00     0.002 C 
BRANCH  19  20
HETATM   20  C7  UNL     1      26.868   5.769  48.950  1.00  0.00     0.205 C 
BRANCH  20  21
HETATM   21  O1  UNL     1      27.680   6.365  47.923  1.00  0.00    -0.332 OA
BRANCH  21  22
HETATM   22  C6  UNL     1      28.962   6.764  48.272  1.00  0.00     0.139 C 
HETATM   23  C5  UNL     1      29.309   7.977  48.714  1.00  0.00     0.074 C 
HETATM   24  C4  UNL     1      30.624   8.497  49.107  1.00  0.00     0.114 C 
HETATM   25  N1  UNL     1      31.656   7.801  49.450  1.00  0.00    -0.299 NA
HETATM   26  C3  UNL     1      31.749   6.358  49.525  1.00  0.00     0.173 C 
HETATM   27  C2  UNL     1      31.342   5.706  48.203  1.00  0.00     0.099 C 
HETATM   28  C1  UNL     1      31.870   6.587  47.086  1.00  0.00     0.034 C 
HETATM   29  N4  UNL     1      29.892   5.674  48.094  1.00  0.00    -0.365 N 
HETATM   30  H22 UNL     1      29.481   4.730  47.853  1.00  0.00     0.162 HD
ENDBRANCH  21  22
ENDBRANCH  20  21
ENDBRANCH  19  20
ENDBRANCH   1  18
BRANCH  11  31
HETATM   31  C20 UNL     1      21.835   0.615  52.661  1.00  0.00     0.419 C 
HETATM   32  F1  UNL     1      20.968   1.410  53.368  1.00  0.00    -0.166 F 
HETATM   33  F2  UNL     1      21.114  -0.608  52.683  1.00  0.00    -0.166 F 
HETATM   34  F3  UNL     1      21.855   0.840  51.297  1.00  0.00    -0.166 F 
ENDBRANCH  11  31
TORSDOF 5
ENDMDL
MODEL 3
REMARK VINA RESULT:      -9.2      2.502      3.606
REMARK  5 active torsions:
REMARK  status: ('A' for Active; 'I' for Inactive)
REMARK    1  A    between atoms: C6_7  and  O1_8 
REMARK    2  A    between atoms: O1_8  and  C7_9 
REMARK    3  A    between atoms: C7_9  and  C8_10 
REMARK    4  A    between atoms: C9_11  and  C10_12 
REMARK    5  A    between atoms: C19_22  and  C20_23 
ROOT
HETATM    1  C10 UNL     1      26.186   2.700  51.001  1.00  0.00     0.033 C 
HETATM    2  C11 UNL     1      24.906   2.293  51.111  1.00  0.00     0.012 C 
HETATM    3  C12 UNL     1      23.879   1.882  52.087  1.00  0.00     0.042 C 
HETATM    4  C13 UNL     1      23.498   3.178  52.832  1.00  0.00     0.019 C 
HETATM    5  C14 UNL     1      24.239   0.928  53.114  1.00  0.00    -0.007 A 
HETATM    6  C15 UNL     1      25.387   0.637  53.860  1.00  0.00     0.044 A 
HETATM    7  C16 UNL     1      25.460  -0.374  54.823  1.00  0.00     0.032 A 
HETATM    8  C17 UNL     1      24.334  -1.136  55.058  1.00  0.00     0.027 A 
HETATM    9  C18 UNL     1      23.215  -0.844  54.322  1.00  0.00     0.049 A 
HETATM   10 CL1  UNL     1      21.801  -1.859  54.669  1.00  0.00    -0.083 Cl
HETATM   11  C19 UNL     1      23.079   0.158  53.342  1.00  0.00     0.078 A 
HETATM   12  N2  UNL     1      26.732   1.130  53.973  1.00  0.00    -0.308 N 
HETATM   13  C21 UNL     1      27.432   2.159  53.261  1.00  0.00     0.325 C 
HETATM   14  O2  UNL     1      28.524   2.511  53.725  1.00  0.00    -0.247 OA
HETATM   15  N3  UNL     1      27.112   2.902  52.065  1.00  0.00    -0.309 N 
HETATM   16  H20 UNL     1      27.335   0.687  54.685  1.00  0.00     0.170 HD
HETATM   17  H21 UNL     1      27.662   3.801  51.909  1.00  0.00     0.170 HD
ENDROOT
BRANCH   1  18
HETATM   18  C9  UNL     1      26.720   2.990  49.676  1.00  0.00     0.027 C 
HETATM   19  C8  UNL     1      26.987   4.042  48.971  1.00  0.00     0.002 C 
BRANCH  19  20
HETATM   20  C7  UNL     1      26.969   5.511  48.953  1.00  0.00     0.205 C 
BRANCH  20  21
HETATM   21  O1  UNL     1      28.004   6.059  48.118  1.00  0.00    -0.332 OA
BRANCH  21  22
HETATM   22  C6  UNL     1      28.101   7.441  48.042  1.00  0.00     0.139 C 
HETATM   23  C5  UNL     1      28.180   8.157  46.917  1.00  0.00     0.074 C 
HETATM   24  C4  UNL     1      28.285   9.609  46.728  1.00  0.00     0.114 C 
HETATM   25  N1  UNL     1      27.964  10.522  47.583  1.00  0.00    -0.299 NA
HETATM   26  C3  UNL     1      27.430  10.320  48.914  1.00  0.00     0.173 C 
HETATM   27  C2  UNL     1      28.332   9.403  49.741  1.00  0.00     0.099 C 
HETATM   28  C1  UNL     1      29.767   9.745  49.386  1.00  0.00     0.034 C 
HETATM   29  N4  UNL     1      28.102   8.016  49.367  1.00  0.00    -0.365 N 
HETATM   30  H22 UNL     1      27.915   7.359  50.173  1.00  0.00     0.162 HD
ENDBRANCH  21  22
ENDBRANCH  20  21
ENDBRANCH  19  20
ENDBRANCH   1  18
BRANCH  11  31
HETATM   31  C20 UNL     1      21.817   0.354  52.639  1.00  0.00     0.419 C 
HETATM   32  F1  UNL     1      20.949   1.281  53.159  1.00  0.00    -0.166 F 
HETATM   33  F2  UNL     1      21.067  -0.831  52.862  1.00  0.00    -0.166 F 
HETATM   34  F3  UNL     1      21.882   0.324  51.258  1.00  0.00    -0.166 F 
ENDBRANCH  11  31
TORSDOF 5
ENDMDL
MODEL 4
REMARK VINA RESULT:      -8.6      2.908      4.593
REMARK  5 active torsions:
REMARK  status: ('A' for Active; 'I' for Inactive)
REMARK    1  A    between atoms: C6_7  and  O1_8 
REMARK    2  A    between atoms: O1_8  and  C7_9 
REMARK    3  A    between atoms: C7_9  and  C8_10 
REMARK    4  A    between atoms: C9_11  and  C10_12 
REMARK    5  A    between atoms: C19_22  and  C20_23 
ROOT
HETATM    1  C10 UNL     1      23.334   3.843  48.866  1.00  0.00     0.033 C 
HETATM    2  C11 UNL     1      22.874   2.923  49.739  1.00  0.00     0.012 C 
HETATM    3  C12 UNL     1      23.057   2.401  51.106  1.00  0.00     0.042 C 
HETATM    4  C13 UNL     1      22.510   3.506  52.031  1.00  0.00     0.019 C 
HETATM    5  C14 UNL     1      24.401   2.126  51.571  1.00  0.00    -0.007 A 
HETATM    6  C15 UNL     1      25.668   2.687  51.373  1.00  0.00     0.044 A 
HETATM    7  C16 UNL     1      26.838   2.206  51.969  1.00  0.00     0.032 A 
HETATM    8  C17 UNL     1      26.745   1.113  52.805  1.00  0.00     0.027 A 
HETATM    9  C18 UNL     1      25.499   0.571  52.993  1.00  0.00     0.049 A 
HETATM   10 CL1  UNL     1      25.446  -0.832  54.078  1.00  0.00    -0.083 Cl
HETATM   11  C19 UNL     1      24.288   1.009  52.423  1.00  0.00     0.078 A 
HETATM   12  N2  UNL     1      26.243   3.778  50.635  1.00  0.00    -0.308 N 
HETATM   13  C21 UNL     1      25.661   4.730  49.734  1.00  0.00     0.325 C 
HETATM   14  O2  UNL     1      26.366   5.694  49.414  1.00  0.00    -0.247 OA
HETATM   15  N3  UNL     1      24.367   4.797  49.097  1.00  0.00    -0.309 N 
HETATM   16  H20 UNL     1      27.256   3.938  50.749  1.00  0.00     0.170 HD
HETATM   17  H21 UNL     1      24.086   5.746  48.703  1.00  0.00     0.170 HD
ENDROOT
BRANCH   1  18
HETATM   18  C9  UNL     1      22.731   3.917  47.542  1.00  0.00     0.027 C 
HETATM   19  C8  UNL     1      21.540   3.864  47.037  1.00  0.00     0.002 C 
BRANCH  19  20
HETATM   20  C7  UNL     1      20.112   3.715  47.346  1.00  0.00     0.205 C 
BRANCH  20  21
HETATM   21  O1  UNL     1      19.819   2.461  47.985  1.00  0.00    -0.332 OA
BRANCH  21  22
HETATM   22  C6  UNL     1      19.226   2.503  49.238  1.00  0.00     0.139 C 
HETATM   23  C5  UNL     1      19.269   3.535  50.088  1.00  0.00     0.074 C 
HETATM   24  C4  UNL     1      18.681   3.681  51.425  1.00  0.00     0.114 C 
HETATM   25  N1  UNL     1      17.704   2.994  51.916  1.00  0.00    -0.299 NA
HETATM   26  C3  UNL     1      16.972   1.929  51.261  1.00  0.00     0.173 C 
HETATM   27  C2  UNL     1      17.915   0.837  50.754  1.00  0.00     0.099 C 
HETATM   28  C1  UNL     1      19.013   0.675  51.789  1.00  0.00     0.034 C 
HETATM   29  N4  UNL     1      18.539   1.263  49.510  1.00  0.00    -0.365 N 
HETATM   30  H22 UNL     1      18.475   0.569  48.716  1.00  0.00     0.162 HD
ENDBRANCH  21  22
ENDBRANCH  20  21
ENDBRANCH  19  20
ENDBRANCH   1  18
BRANCH  11  31
HETATM   31  C20 UNL     1      23.032   0.330  52.719  1.00  0.00     0.419 C 
HETATM   32  F1  UNL     1      22.389   0.682  53.880  1.00  0.00    -0.166 F 
HETATM   33  F2  UNL     1      23.385  -1.009  53.035  1.00  0.00    -0.166 F 
HETATM   34  F3  UNL     1      22.202   0.095  51.639  1.00  0.00    -0.166 F 
ENDBRANCH  11  31
TORSDOF 5
ENDMDL
MODEL 5
REMARK VINA RESULT:      -8.5      1.864      2.806
REMARK  5 active torsions:
REMARK  status: ('A' for Active; 'I' for Inactive)
REMARK    1  A    between atoms: C6_7  and  O1_8 
REMARK    2  A    between atoms: O1_8  and  C7_9 
REMARK    3  A    between atoms: C7_9  and  C8_10 
REMARK    4  A    between atoms: C9_11  and  C10_12 
REMARK    5  A    between atoms: C19_22  and  C20_23 
ROOT
HETATM    1  C10 UNL     1      23.373   2.658  49.588  1.00  0.00     0.033 C 
HETATM    2  C11 UNL     1      22.511   2.098  50.461  1.00  0.00     0.012 C 
HETATM    3  C12 UNL     1      22.347   1.722  51.878  1.00  0.00     0.042 C 
HETATM    4  C13 UNL     1      22.190   3.060  52.629  1.00  0.00     0.019 C 
HETATM    5  C14 UNL     1      23.427   1.021  52.541  1.00  0.00    -0.007 A 
HETATM    6  C15 UNL     1      24.825   1.031  52.472  1.00  0.00     0.044 A 
HETATM    7  C16 UNL     1      25.653   0.224  53.257  1.00  0.00     0.032 A 
HETATM    8  C17 UNL     1      25.063  -0.639  54.158  1.00  0.00     0.027 A 
HETATM    9  C18 UNL     1      23.693  -0.641  54.218  1.00  0.00     0.049 A 
HETATM   10 CL1  UNL     1      22.994  -1.771  55.395  1.00  0.00    -0.083 Cl
HETATM   11  C19 UNL     1      22.807   0.146  53.457  1.00  0.00     0.078 A 
HETATM   12  N2  UNL     1      25.846   1.722  51.734  1.00  0.00    -0.308 N 
HETATM   13  C21 UNL     1      25.769   2.701  50.689  1.00  0.00     0.325 C 
HETATM   14  O2  UNL     1      26.821   3.279  50.391  1.00  0.00    -0.247 OA
HETATM   15  N3  UNL     1      24.670   3.171  49.879  1.00  0.00    -0.309 N 
HETATM   16  H20 UNL     1      26.827   1.500  51.971  1.00  0.00     0.170 HD
HETATM   17  H21 UNL     1      24.820   4.099  49.377  1.00  0.00     0.170 HD
ENDROOT
BRANCH   1  18
HETATM   18  C9  UNL     1      22.974   2.786  48.193  1.00  0.00     0.027 C 
HETATM   19  C8  UNL     1      22.453   3.697  47.435  1.00  0.00     0.002 C 
BRANCH  19  20
HETATM   20  C7  UNL     1      21.946   5.075  47.391  1.00  0.00     0.205 C 
BRANCH  20  21
HETATM   21  O1  UNL     1      22.987   6.033  47.137  1.00  0.00    -0.332 OA
BRANCH  21  22
HETATM   22  C6  UNL     1      23.771   6.427  48.210  1.00  0.00     0.139 C 
HETATM   23  C5  UNL     1      25.093   6.258  48.316  1.00  0.00     0.074 C 
HETATM   24  C4  UNL     1      26.010   6.635  49.399  1.00  0.00     0.114 C 
HETATM   25  N1  UNL     1      25.798   7.523  50.312  1.00  0.00    -0.299 NA
HETATM   26  C3  UNL     1      24.615   8.343  50.473  1.00  0.00     0.173 C 
HETATM   27  C2  UNL     1      23.352   7.485  50.554  1.00  0.00     0.099 C 
HETATM   28  C1  UNL     1      23.703   6.242  51.350  1.00  0.00     0.034 C 
HETATM   29  N4  UNL     1      22.957   7.061  49.220  1.00  0.00    -0.365 N 
HETATM   30  H22 UNL     1      21.946   7.244  48.972  1.00  0.00     0.162 HD
ENDBRANCH  21  22
ENDBRANCH  20  21
ENDBRANCH  19  20
ENDBRANCH   1  18
BRANCH  11  31
HETATM   31  C20 UNL     1      21.364   0.036  53.634  1.00  0.00     0.419 C 
HETATM   32  F1  UNL     1      20.822   0.639  54.740  1.00  0.00    -0.166 F 
HETATM   33  F2  UNL     1      21.121  -1.325  53.958  1.00  0.00    -0.166 F 
HETATM   34  F3  UNL     1      20.604   0.132  52.483  1.00  0.00    -0.166 F 
ENDBRANCH  11  31
TORSDOF 5
ENDMDL
MODEL 6
REMARK VINA RESULT:      -8.5      6.029      8.173
REMARK  5 active torsions:
REMARK  status: ('A' for Active; 'I' for Inactive)
REMARK    1  A    between atoms: C6_7  and  O1_8 
REMARK    2  A    between atoms: O1_8  and  C7_9 
REMARK    3  A    between atoms: C7_9  and  C8_10 
REMARK    4  A    between atoms: C9_11  and  C10_12 
REMARK    5  A    between atoms: C19_22  and  C20_23 
ROOT
HETATM    1  C10 UNL     1      18.823   0.519  51.878  1.00  0.00     0.033 C 
HETATM    2  C11 UNL     1      19.901  -0.128  52.367  1.00  0.00     0.012 C 
HETATM    3  C12 UNL     1      21.150   0.071  53.125  1.00  0.00     0.042 C 
HETATM    4  C13 UNL     1      20.697   0.345  54.573  1.00  0.00     0.019 C 
HETATM    5  C14 UNL     1      22.014   1.176  52.766  1.00  0.00    -0.007 A 
HETATM    6  C15 UNL     1      21.834   2.478  52.285  1.00  0.00     0.044 A 
HETATM    7  C16 UNL     1      22.881   3.364  52.016  1.00  0.00     0.032 A 
HETATM    8  C17 UNL     1      24.174   2.937  52.236  1.00  0.00     0.027 A 
HETATM    9  C18 UNL     1      24.339   1.660  52.707  1.00  0.00     0.049 A 
HETATM   10 CL1  UNL     1      26.025   1.168  52.970  1.00  0.00    -0.083 Cl
HETATM   11  C19 UNL     1      23.329   0.723  52.997  1.00  0.00     0.078 A 
HETATM   12  N2  UNL     1      20.738   3.335  51.924  1.00  0.00    -0.308 N 
HETATM   13  C21 UNL     1      19.322   3.108  51.895  1.00  0.00     0.325 C 
HETATM   14  O2  UNL     1      18.603   4.104  51.747  1.00  0.00    -0.247 OA
HETATM   15  N3  UNL     1      18.529   1.907  52.008  1.00  0.00    -0.309 N 
HETATM   16  H20 UNL     1      20.972   4.295  51.627  1.00  0.00     0.170 HD
HETATM   17  H21 UNL     1      17.498   2.045  52.239  1.00  0.00     0.170 HD
ENDROOT
BRANCH   1  18
HETATM   18  C9  UNL     1      17.820  -0.243  51.146  1.00  0.00     0.027 C 
HETATM   19  C8  UNL     1      16.543  -0.444  51.218  1.00  0.00     0.002 C 
BRANCH  19  20
HETATM   20  C7  UNL     1      15.317  -0.120  51.959  1.00  0.00     0.205 C 
BRANCH  20  21
HETATM   21  O1  UNL     1      15.383   1.174  52.584  1.00  0.00    -0.332 OA
BRANCH  21  22
HETATM   22  C6  UNL     1      14.185   1.782  52.926  1.00  0.00     0.139 C 
HETATM   23  C5  UNL     1      12.982   1.200  52.911  1.00  0.00     0.074 C 
HETATM   24  C4  UNL     1      11.663   1.749  53.251  1.00  0.00     0.114 C 
HETATM   25  N1  UNL     1      11.427   2.792  53.975  1.00  0.00    -0.299 NA
HETATM   26  C3  UNL     1      12.404   3.651  54.611  1.00  0.00     0.173 C 
HETATM   27  C2  UNL     1      13.421   4.181  53.598  1.00  0.00     0.099 C 
HETATM   28  C1  UNL     1      12.667   4.468  52.313  1.00  0.00     0.034 C 
HETATM   29  N4  UNL     1      14.411   3.155  53.311  1.00  0.00    -0.365 N 
HETATM   30  H22 UNL     1      15.418   3.467  53.397  1.00  0.00     0.162 HD
ENDBRANCH  21  22
ENDBRANCH  20  21
ENDBRANCH  19  20
ENDBRANCH   1  18
BRANCH  11  31
HETATM   31  C20 UNL     1      23.659  -0.606  53.498  1.00  0.00     0.419 C 
HETATM   32  F1  UNL     1      23.973  -0.712  54.829  1.00  0.00    -0.166 F 
HETATM   33  F2  UNL     1      24.919  -0.929  52.926  1.00  0.00    -0.166 F 
HETATM   34  F3  UNL     1      22.907  -1.649  52.989  1.00  0.00    -0.166 F 
ENDBRANCH  11  31
TORSDOF 5
ENDMDL
MODEL 7
REMARK VINA RESULT:      -8.3      4.873      8.476
REMARK  5 active torsions:
REMARK  status: ('A' for Active; 'I' for Inactive)
REMARK    1  A    between atoms: C6_7  and  O1_8 
REMARK    2  A    between atoms: O1_8  and  C7_9 
REMARK    3  A    between atoms: C7_9  and  C8_10 
REMARK    4  A    between atoms: C9_11  and  C10_12 
REMARK    5  A    between atoms: C19_22  and  C20_23 
ROOT
HETATM    1  C10 UNL     1      24.573   5.384  50.524  1.00  0.00     0.033 C 
HETATM    2  C11 UNL     1      24.589   6.602  49.943  1.00  0.00     0.012 C 
HETATM    3  C12 UNL     1      25.119   7.350  48.788  1.00  0.00     0.042 C 
HETATM    4  C13 UNL     1      24.332   6.816  47.574  1.00  0.00     0.019 C 
HETATM    5  C14 UNL     1      26.518   7.202  48.446  1.00  0.00    -0.007 A 
HETATM    6  C15 UNL     1      27.464   6.170  48.499  1.00  0.00     0.044 A 
HETATM    7  C16 UNL     1      28.793   6.306  48.089  1.00  0.00     0.032 A 
HETATM    8  C17 UNL     1      29.206   7.528  47.600  1.00  0.00     0.027 A 
HETATM    9  C18 UNL     1      28.273   8.532  47.552  1.00  0.00     0.049 A 
HETATM   10 CL1  UNL     1      28.865  10.079  46.915  1.00  0.00    -0.083 Cl
HETATM   11  C19 UNL     1      26.924   8.457  47.949  1.00  0.00     0.078 A 
HETATM   12  N2  UNL     1      27.509   4.792  48.903  1.00  0.00    -0.308 N 
HETATM   13  C21 UNL     1      26.515   3.936  49.482  1.00  0.00     0.325 C 
HETATM   14  O2  UNL     1      26.779   2.728  49.524  1.00  0.00    -0.247 OA
HETATM   15  N3  UNL     1      25.214   4.204  50.049  1.00  0.00    -0.309 N 
HETATM   16  H20 UNL     1      28.403   4.293  48.767  1.00  0.00     0.170 HD
HETATM   17  H21 UNL     1      24.563   3.366  50.147  1.00  0.00     0.170 HD
ENDROOT
BRANCH   1  18
HETATM   18  C9  UNL     1      23.823   5.206  51.759  1.00  0.00     0.027 C 
HETATM   19  C8  UNL     1      23.263   4.228  52.397  1.00  0.00     0.002 C 
BRANCH  19  20
HETATM   20  C7  UNL     1      22.993   2.784  52.380  1.00  0.00     0.205 C 
BRANCH  20  21
HETATM   21  O1  UNL     1      24.001   2.048  51.666  1.00  0.00    -0.332 OA
BRANCH  21  22
HETATM   22  C6  UNL     1      24.759   1.136  52.384  1.00  0.00     0.139 C 
HETATM   23  C5  UNL     1      24.322   0.389  53.403  1.00  0.00     0.074 C 
HETATM   24  C4  UNL     1      25.036  -0.598  54.224  1.00  0.00     0.114 C 
HETATM   25  N1  UNL     1      26.127  -1.213  53.912  1.00  0.00    -0.299 NA
HETATM   26  C3  UNL     1      26.890  -1.071  52.689  1.00  0.00     0.173 C 
HETATM   27  C2  UNL     1      27.256   0.391  52.430  1.00  0.00     0.099 C 
HETATM   28  C1  UNL     1      27.579   1.018  53.774  1.00  0.00     0.034 C 
HETATM   29  N4  UNL     1      26.111   1.097  51.877  1.00  0.00    -0.365 N 
HETATM   30  H22 UNL     1      26.305   1.644  50.994  1.00  0.00     0.162 HD
ENDBRANCH  21  22
ENDBRANCH  20  21
ENDBRANCH  19  20
ENDBRANCH   1  18
BRANCH  11  31
HETATM   31  C20 UNL     1      26.044   9.615  47.837  1.00  0.00     0.419 C 
HETATM   32  F1  UNL     1      25.569   9.920  46.586  1.00  0.00    -0.166 F 
HETATM   33  F2  UNL     1      26.870  10.747  48.064  1.00  0.00    -0.166 F 
HETATM   34  F3  UNL     1      25.137   9.788  48.866  1.00  0.00    -0.166 F 
ENDBRANCH  11  31
TORSDOF 5
ENDMDL
MODEL 8
REMARK VINA RESULT:      -8.3      6.540      9.809
REMARK  5 active torsions:
REMARK  status: ('A' for Active; 'I' for Inactive)
REMARK    1  A    between atoms: C6_7  and  O1_8 
REMARK    2  A    between atoms: O1_8  and  C7_9 
REMARK    3  A    between atoms: C7_9  and  C8_10 
REMARK    4  A    between atoms: C9_11  and  C10_12 
REMARK    5  A    between atoms: C19_22  and  C20_23 
ROOT
HETATM    1  C10 UNL     1      28.731   6.930  48.166  1.00  0.00     0.033 C 
HETATM    2  C11 UNL     1      29.529   5.848  48.058  1.00  0.00     0.012 C 
HETATM    3  C12 UNL     1      30.936   5.432  47.912  1.00  0.00     0.042 C 
HETATM    4  C13 UNL     1      31.583   5.734  49.279  1.00  0.00     0.019 C 
HETATM    5  C14 UNL     1      31.761   6.101  46.928  1.00  0.00    -0.007 A 
HETATM    6  C15 UNL     1      31.855   7.398  46.408  1.00  0.00     0.044 A 
HETATM    7  C16 UNL     1      32.778   7.784  45.432  1.00  0.00     0.032 A 
HETATM    8  C17 UNL     1      33.653   6.834  44.946  1.00  0.00     0.027 A 
HETATM    9  C18 UNL     1      33.552   5.567  45.462  1.00  0.00     0.049 A 
HETATM   10 CL1  UNL     1      34.704   4.392  44.796  1.00  0.00    -0.083 Cl
HETATM   11  C19 UNL     1      32.648   5.118  46.443  1.00  0.00     0.078 A 
HETATM   12  N2  UNL     1      31.202   8.665  46.591  1.00  0.00    -0.308 N 
HETATM   13  C21 UNL     1      30.100   9.057  47.420  1.00  0.00     0.325 C 
HETATM   14  O2  UNL     1      29.894  10.272  47.531  1.00  0.00    -0.247 OA
HETATM   15  N3  UNL     1      29.141   8.294  48.184  1.00  0.00    -0.309 N 
HETATM   16  H20 UNL     1      31.565   9.462  46.044  1.00  0.00     0.170 HD
HETATM   17  H21 UNL     1      28.605   8.830  48.934  1.00  0.00     0.170 HD
ENDROOT
BRANCH   1  18
HETATM   18  C9  UNL     1      27.293   6.732  48.295  1.00  0.00     0.027 C 
HETATM   19  C8  UNL     1      26.498   5.798  48.708  1.00  0.00     0.002 C 
BRANCH  19  20
HETATM   20  C7  UNL     1      26.429   4.443  49.273  1.00  0.00     0.205 C 
BRANCH  20  21
HETATM   21  O1  UNL     1      25.522   4.361  50.386  1.00  0.00    -0.332 OA
BRANCH  21  22
HETATM   22  C6  UNL     1      25.503   3.179  51.111  1.00  0.00     0.139 C 
HETATM   23  C5  UNL     1      24.434   2.400  51.305  1.00  0.00     0.074 C 
HETATM   24  C4  UNL     1      24.306   1.140  52.048  1.00  0.00     0.114 C 
HETATM   25  N1  UNL     1      25.264   0.335  52.368  1.00  0.00    -0.299 NA
HETATM   26  C3  UNL     1      26.672   0.492  52.067  1.00  0.00     0.173 C 
HETATM   27  C2  UNL     1      27.200   1.839  52.565  1.00  0.00     0.099 C 
HETATM   28  C1  UNL     1      26.523   2.124  53.893  1.00  0.00     0.034 C 
HETATM   29  N4  UNL     1      26.816   2.892  51.638  1.00  0.00    -0.365 N 
HETATM   30  H22 UNL     1      27.606   3.518  51.318  1.00  0.00     0.162 HD
ENDBRANCH  21  22
ENDBRANCH  20  21
ENDBRANCH  19  20
ENDBRANCH   1  18
BRANCH  11  31
HETATM   31  C20 UNL     1      32.661   3.733  46.897  1.00  0.00     0.419 C 
HETATM   32  F1  UNL     1      33.392   3.451  48.024  1.00  0.00    -0.166 F 
HETATM   33  F2  UNL     1      33.421   3.021  45.932  1.00  0.00    -0.166 F 
HETATM   34  F3  UNL     1      31.464   3.050  46.790  1.00  0.00    -0.166 F 
ENDBRANCH  11  31
TORSDOF 5
ENDMDL
MODEL 9
REMARK VINA RESULT:      -8.1      4.317      6.935
REMARK  5 active torsions:
REMARK  status: ('A' for Active; 'I' for Inactive)
REMARK    1  A    between atoms: C6_7  and  O1_8 
REMARK    2  A    between atoms: O1_8  and  C7_9 
REMARK    3  A    between atoms: C7_9  and  C8_10 
REMARK    4  A    between atoms: C9_11  and  C10_12 
REMARK    5  A    between atoms: C19_22  and  C20_23 
ROOT
HETATM    1  C10 UNL     1      21.377   1.034  51.702  1.00  0.00     0.033 C 
HETATM    2  C11 UNL     1      20.232   1.077  50.991  1.00  0.00     0.012 C 
HETATM    3  C12 UNL     1      18.767   0.959  51.109  1.00  0.00     0.042 C 
HETATM    4  C13 UNL     1      18.322   2.239  51.844  1.00  0.00     0.019 C 
HETATM    5  C14 UNL     1      18.217  -0.144  51.869  1.00  0.00    -0.007 A 
HETATM    6  C15 UNL     1      18.593  -0.869  53.006  1.00  0.00     0.044 A 
HETATM    7  C16 UNL     1      17.848  -1.922  53.545  1.00  0.00     0.032 A 
HETATM    8  C17 UNL     1      16.669  -2.275  52.922  1.00  0.00     0.027 A 
HETATM    9  C18 UNL     1      16.309  -1.559  51.809  1.00  0.00     0.049 A 
HETATM   10 CL1  UNL     1      14.783  -2.061  51.054  1.00  0.00    -0.083 Cl
HETATM   11  C19 UNL     1      17.014  -0.492  51.220  1.00  0.00     0.078 A 
HETATM   12  N2  UNL     1      19.675  -0.873  53.953  1.00  0.00    -0.308 N 
HETATM   13  C21 UNL     1      20.870  -0.085  54.036  1.00  0.00     0.325 C 
HETATM   14  O2  UNL     1      21.515  -0.165  55.088  1.00  0.00    -0.247 OA
HETATM   15  N3  UNL     1      21.503   0.820  53.105  1.00  0.00    -0.309 N 
HETATM   16  H20 UNL     1      19.616  -1.552  54.728  1.00  0.00     0.170 HD
HETATM   17  H21 UNL     1      22.222   1.490  53.517  1.00  0.00     0.170 HD
ENDROOT
BRANCH   1  18
HETATM   18  C9  UNL     1      22.642   1.237  51.009  1.00  0.00     0.027 C 
HETATM   19  C8  UNL     1      23.733   1.908  51.201  1.00  0.00     0.002 C 
BRANCH  19  20
HETATM   20  C7  UNL     1      24.430   2.829  52.108  1.00  0.00     0.205 C 
BRANCH  20  21
HETATM   21  O1  UNL     1      25.856   2.638  52.089  1.00  0.00    -0.332 OA
BRANCH  21  22
HETATM   22  C6  UNL     1      26.355   1.476  52.658  1.00  0.00     0.139 C 
HETATM   23  C5  UNL     1      26.767   0.394  51.990  1.00  0.00     0.074 C 
HETATM   24  C4  UNL     1      27.307  -0.876  52.491  1.00  0.00     0.114 C 
HETATM   25  N1  UNL     1      27.832  -1.084  53.652  1.00  0.00    -0.299 NA
HETATM   26  C3  UNL     1      28.006  -0.117  54.716  1.00  0.00     0.173 C 
HETATM   27  C2  UNL     1      26.682   0.559  55.075  1.00  0.00     0.099 C 
HETATM   28  C1  UNL     1      25.599  -0.500  54.986  1.00  0.00     0.034 C 
HETATM   29  N4  UNL     1      26.374   1.591  54.097  1.00  0.00    -0.365 N 
HETATM   30  H22 UNL     1      26.135   2.537  54.504  1.00  0.00     0.162 HD
ENDBRANCH  21  22
ENDBRANCH  20  21
ENDBRANCH  19  20
ENDBRANCH   1  18
BRANCH  11  31
HETATM   31  C20 UNL     1      16.503   0.179  50.031  1.00  0.00     0.419 C 
HETATM   32  F1  UNL     1      15.345   0.901  50.169  1.00  0.00    -0.166 F 
HETATM   33  F2  UNL     1      16.042  -0.856  49.176  1.00  0.00    -0.166 F 
HETATM   34  F3  UNL     1      17.453   0.749  49.203  1.00  0.00    -0.166 F 
ENDBRANCH  11  31
TORSDOF 5
ENDMDL
