MODEL 1
REMARK VINA RESULT:      -7.2      0.000      0.000
REMARK  6 active torsions:
REMARK  status: ('A' for Active; 'I' for Inactive)
REMARK    1  A    between atoms: C2_2  and  C3_3 
REMARK    2  A    between atoms: C4_4  and  P1_5 
REMARK    3  A    between atoms: P1_5  and  C5_6 
REMARK    4  A    between atoms: C5_6  and  C6_7 
REMARK    5  A    between atoms: C9_13  and  C10_14 
REMARK    6  A    between atoms: C15_20  and  C16_21 
ROOT
HETATM    1  C6  UNL     1      22.582   3.460  49.853  1.00  0.00     0.069 C 
HETATM    2  C7  UNL     1      23.463   3.879  48.779  1.00  0.00     0.181 C 
HETATM    3  S1  UNL     1      24.978   4.623  49.278  1.00  0.00     0.063 S 
HETATM    4  O1  UNL     1      24.966   6.109  49.456  1.00  0.00    -0.252 OA
HETATM    5  C8  UNL     1      25.947   3.718  50.384  1.00  0.00     0.196 C 
HETATM    6  N1  UNL     1      25.883   2.794  51.277  1.00  0.00    -0.249 NA
HETATM    7  C9  UNL     1      24.835   2.008  51.815  1.00  0.00     0.095 C 
HETATM    8  C15 UNL     1      23.521   1.944  51.780  1.00  0.00     0.073 C 
HETATM    9  N3  UNL     1      22.552   2.761  51.088  1.00  0.00    -0.350 N 
HETATM   10  H17 UNL     1      21.657   2.841  51.614  1.00  0.00     0.166 HD
ENDROOT
BRANCH   8  11
HETATM   11  C16 UNL     1      22.882   0.887  52.544  1.00  0.00    -0.007 A 
HETATM   12  C17 UNL     1      22.024   1.243  53.572  1.00  0.00     0.017 A 
HETATM   13  C18 UNL     1      21.344   0.294  54.327  1.00  0.00     0.043 A 
HETATM   14  C19 UNL     1      21.485  -1.043  54.098  1.00  0.00     0.116 A 
HETATM   15  F1  UNL     1      20.848  -1.985  54.804  1.00  0.00    -0.206 F 
HETATM   16  C20 UNL     1      22.329  -1.439  53.083  1.00  0.00     0.043 A 
HETATM   17  C21 UNL     1      22.990  -0.496  52.350  1.00  0.00     0.017 A 
ENDBRANCH   8  11
BRANCH   7  18
HETATM   18  C10 UNL     1      25.535   1.063  52.693  1.00  0.00    -0.002 A 
HETATM   19  C11 UNL     1      26.238   0.005  52.094  1.00  0.00     0.033 A 
HETATM   20  C12 UNL     1      26.976  -0.952  52.758  1.00  0.00     0.117 A 
HETATM   21  N2  UNL     1      27.014  -0.845  54.096  1.00  0.00    -0.273 NA
HETATM   22  C13 UNL     1      26.371   0.138  54.759  1.00  0.00     0.117 A 
HETATM   23  C14 UNL     1      25.647   1.075  54.073  1.00  0.00     0.033 A 
ENDBRANCH   7  18
BRANCH   1  24
HETATM   24  C5  UNL     1      21.352   3.888  49.595  1.00  0.00    -0.089 C 
BRANCH  24  25
HETATM   25  P1  UNL     1      19.710   4.115  49.566  1.00  0.00     0.025 P 
BRANCH  25  26
HETATM   26  C4  UNL     1      18.782   3.617  51.051  1.00  0.00     0.025 C 
HETATM   27  C3  UNL     1      18.646   2.439  51.616  1.00  0.00     0.001 C 
BRANCH  27  28
HETATM   28  C2  UNL     1      19.292   1.269  51.060  1.00  0.00    -0.010 C 
HETATM   29  C1  UNL     1      18.902   0.058  51.494  1.00  0.00     0.011 C 
ENDBRANCH  27  28
ENDBRANCH  25  26
ENDBRANCH  24  25
ENDBRANCH   1  24
TORSDOF 6
ENDMDL
MODEL 2
REMARK VINA RESULT:      -7.2      4.135      7.826
REMARK  6 active torsions:
REMARK  status: ('A' for Active; 'I' for Inactive)
REMARK    1  A    between atoms: C2_2  and  C3_3 
REMARK    2  A    between atoms: C4_4  and  P1_5 
REMARK    3  A    between atoms: P1_5  and  C5_6 
REMARK    4  A    between atoms: C5_6  and  C6_7 
REMARK    5  A    between atoms: C9_13  and  C10_14 
REMARK    6  A    between atoms: C15_20  and  C16_21 
ROOT
HETATM    1  C6  UNL     1      25.064   0.527  53.344  1.00  0.00     0.069 C 
HETATM    2  C7  UNL     1      24.456  -0.788  53.413  1.00  0.00     0.181 C 
HETATM    3  S1  UNL     1      22.698  -0.815  53.520  1.00  0.00     0.063 S 
HETATM    4  O1  UNL     1      22.112  -0.792  54.896  1.00  0.00    -0.252 OA
HETATM    5  C8  UNL     1      21.845   0.057  52.298  1.00  0.00     0.196 C 
HETATM    6  N1  UNL     1      21.972   1.021  51.455  1.00  0.00    -0.249 NA
HETATM    7  C9  UNL     1      23.023   1.910  51.118  1.00  0.00     0.095 C 
HETATM    8  C15 UNL     1      24.215   2.253  51.558  1.00  0.00     0.073 C 
HETATM    9  N3  UNL     1      24.976   1.784  52.691  1.00  0.00    -0.350 N 
HETATM   10  H17 UNL     1      25.578   2.531  53.098  1.00  0.00     0.166 HD
ENDROOT
BRANCH   8  11
HETATM   11  C16 UNL     1      24.936   3.269  50.812  1.00  0.00    -0.007 A 
HETATM   12  C17 UNL     1      26.040   2.883  50.070  1.00  0.00     0.017 A 
HETATM   13  C18 UNL     1      26.764   3.786  49.299  1.00  0.00     0.043 A 
HETATM   14  C19 UNL     1      26.426   5.106  49.231  1.00  0.00     0.116 A 
HETATM   15  F1  UNL     1      27.099   6.004  48.502  1.00  0.00    -0.206 F 
HETATM   16  C20 UNL     1      25.333   5.530  49.955  1.00  0.00     0.043 A 
HETATM   17  C21 UNL     1      24.633   4.632  50.707  1.00  0.00     0.017 A 
ENDBRANCH   8  11
BRANCH   7  18
HETATM   18  C10 UNL     1      22.489   2.645  49.965  1.00  0.00    -0.002 A 
HETATM   19  C11 UNL     1      21.589   3.694  50.214  1.00  0.00     0.033 A 
HETATM   20  C12 UNL     1      21.016   4.509  49.260  1.00  0.00     0.117 A 
HETATM   21  N2  UNL     1      21.363   4.262  47.987  1.00  0.00    -0.273 NA
HETATM   22  C13 UNL     1      22.222   3.277  47.651  1.00  0.00     0.117 A 
HETATM   23  C14 UNL     1      22.775   2.483  48.620  1.00  0.00     0.033 A 
ENDBRANCH   7  18
BRANCH   1  24
HETATM   24  C5  UNL     1      26.068   0.585  54.211  1.00  0.00    -0.089 C 
BRANCH  24  25
HETATM   25  P1  UNL     1      27.553   0.526  54.945  1.00  0.00     0.025 P 
BRANCH  25  26
HETATM   26  C4  UNL     1      29.012   0.735  53.875  1.00  0.00     0.025 C 
HETATM   27  C3  UNL     1      29.893  -0.143  53.456  1.00  0.00     0.001 C 
BRANCH  27  28
HETATM   28  C2  UNL     1      29.795  -1.536  53.839  1.00  0.00    -0.010 C 
HETATM   29  C1  UNL     1      29.043  -2.354  53.082  1.00  0.00     0.011 C 
ENDBRANCH  27  28
ENDBRANCH  25  26
ENDBRANCH  24  25
ENDBRANCH   1  24
TORSDOF 6
ENDMDL
MODEL 3
REMARK VINA RESULT:      -6.9      3.673      5.115
REMARK  6 active torsions:
REMARK  status: ('A' for Active; 'I' for Inactive)
REMARK    1  A    between atoms: C2_2  and  C3_3 
REMARK    2  A    between atoms: C4_4  and  P1_5 
REMARK    3  A    between atoms: P1_5  and  C5_6 
REMARK    4  A    between atoms: C5_6  and  C6_7 
REMARK    5  A    between atoms: C9_13  and  C10_14 
REMARK    6  A    between atoms: C15_20  and  C16_21 
ROOT
HETATM    1  C6  UNL     1      21.358   0.921  52.544  1.00  0.00     0.069 C 
HETATM    2  C7  UNL     1      20.848   0.522  53.842  1.00  0.00     0.181 C 
HETATM    3  S1  UNL     1      21.624  -0.879  54.573  1.00  0.00     0.063 S 
HETATM    4  O1  UNL     1      21.030  -2.215  54.253  1.00  0.00    -0.252 OA
HETATM    5  C8  UNL     1      23.343  -0.811  54.721  1.00  0.00     0.196 C 
HETATM    6  N1  UNL     1      24.388  -0.249  54.224  1.00  0.00    -0.249 NA
HETATM    7  C9  UNL     1      24.609   0.694  53.190  1.00  0.00     0.095 C 
HETATM    8  C15 UNL     1      23.938   1.288  52.225  1.00  0.00     0.073 C 
HETATM    9  N3  UNL     1      22.556   1.173  51.825  1.00  0.00    -0.350 N 
HETATM   10  H17 UNL     1      22.430   1.307  50.800  1.00  0.00     0.166 HD
ENDROOT
BRANCH   8  11
HETATM   11  C16 UNL     1      24.660   2.234  51.393  1.00  0.00    -0.007 A 
HETATM   12  C17 UNL     1      24.286   3.567  51.434  1.00  0.00     0.017 A 
HETATM   13  C18 UNL     1      24.948   4.542  50.696  1.00  0.00     0.043 A 
HETATM   14  C19 UNL     1      26.005   4.239  49.889  1.00  0.00     0.116 A 
HETATM   15  F1  UNL     1      26.666   5.150  49.164  1.00  0.00    -0.206 F 
HETATM   16  C20 UNL     1      26.408   2.923  49.820  1.00  0.00     0.043 A 
HETATM   17  C21 UNL     1      25.748   1.977  50.550  1.00  0.00     0.017 A 
ENDBRANCH   8  11
BRANCH   7  18
HETATM   18  C10 UNL     1      26.047   0.972  53.285  1.00  0.00    -0.002 A 
HETATM   19  C11 UNL     1      26.940  -0.055  52.935  1.00  0.00     0.033 A 
HETATM   20  C12 UNL     1      28.316   0.039  52.933  1.00  0.00     0.117 A 
HETATM   21  N2  UNL     1      28.828   1.225  53.298  1.00  0.00    -0.273 NA
HETATM   22  C13 UNL     1      28.049   2.269  53.650  1.00  0.00     0.117 A 
HETATM   23  C14 UNL     1      26.686   2.147  53.643  1.00  0.00     0.033 A 
ENDBRANCH   7  18
BRANCH   1  24
HETATM   24  C5  UNL     1      20.337   1.120  51.720  1.00  0.00    -0.089 C 
BRANCH  24  25
HETATM   25  P1  UNL     1      19.254   1.047  50.467  1.00  0.00     0.025 P 
BRANCH  25  26
HETATM   26  C4  UNL     1      19.412   2.311  49.166  1.00  0.00     0.025 C 
HETATM   27  C3  UNL     1      20.392   2.551  48.326  1.00  0.00     0.001 C 
BRANCH  27  28
HETATM   28  C2  UNL     1      21.596   1.746  48.338  1.00  0.00    -0.010 C 
HETATM   29  C1  UNL     1      22.780   2.370  48.215  1.00  0.00     0.011 C 
ENDBRANCH  27  28
ENDBRANCH  25  26
ENDBRANCH  24  25
ENDBRANCH   1  24
TORSDOF 6
ENDMDL
MODEL 4
REMARK VINA RESULT:      -6.9      3.811      5.159
REMARK  6 active torsions:
REMARK  status: ('A' for Active; 'I' for Inactive)
REMARK    1  A    between atoms: C2_2  and  C3_3 
REMARK    2  A    between atoms: C4_4  and  P1_5 
REMARK    3  A    between atoms: P1_5  and  C5_6 
REMARK    4  A    between atoms: C5_6  and  C6_7 
REMARK    5  A    between atoms: C9_13  and  C10_14 
REMARK    6  A    between atoms: C15_20  and  C16_21 
ROOT
HETATM    1  C6  UNL     1      21.613   0.667  52.815  1.00  0.00     0.069 C 
HETATM    2  C7  UNL     1      21.171   0.269  54.139  1.00  0.00     0.181 C 
HETATM    3  S1  UNL     1      22.039  -1.082  54.861  1.00  0.00     0.063 S 
HETATM    4  O1  UNL     1      21.494  -2.448  54.587  1.00  0.00    -0.252 OA
HETATM    5  C8  UNL     1      23.757  -0.933  54.940  1.00  0.00     0.196 C 
HETATM    6  N1  UNL     1      24.755  -0.334  54.394  1.00  0.00    -0.249 NA
HETATM    7  C9  UNL     1      24.893   0.599  53.336  1.00  0.00     0.095 C 
HETATM    8  C15 UNL     1      24.159   1.144  52.389  1.00  0.00     0.073 C 
HETATM    9  N3  UNL     1      22.768   0.960  52.046  1.00  0.00    -0.350 N 
HETATM   10  H17 UNL     1      22.597   1.069  51.024  1.00  0.00     0.166 HD
ENDROOT
BRANCH   8  11
HETATM   11  C16 UNL     1      24.803   2.106  51.514  1.00  0.00    -0.007 A 
HETATM   12  C17 UNL     1      24.348   3.415  51.522  1.00  0.00     0.017 A 
HETATM   13  C18 UNL     1      24.933   4.405  50.741  1.00  0.00     0.043 A 
HETATM   14  C19 UNL     1      25.992   4.143  49.921  1.00  0.00     0.116 A 
HETATM   15  F1  UNL     1      26.580   5.069  49.156  1.00  0.00    -0.206 F 
HETATM   16  C20 UNL     1      26.475   2.853  49.885  1.00  0.00     0.043 A 
HETATM   17  C21 UNL     1      25.890   1.891  50.656  1.00  0.00     0.017 A 
ENDBRANCH   8  11
BRANCH   7  18
HETATM   18  C10 UNL     1      26.319   0.943  53.370  1.00  0.00    -0.002 A 
HETATM   19  C11 UNL     1      27.244  -0.048  53.002  1.00  0.00     0.033 A 
HETATM   20  C12 UNL     1      28.613   0.108  52.944  1.00  0.00     0.117 A 
HETATM   21  N2  UNL     1      29.083   1.322  53.270  1.00  0.00    -0.273 NA
HETATM   22  C13 UNL     1      28.272   2.336  53.635  1.00  0.00     0.117 A 
HETATM   23  C14 UNL     1      26.916   2.152  53.684  1.00  0.00     0.033 A 
ENDBRANCH   7  18
BRANCH   1  24
HETATM   24  C5  UNL     1      20.552   0.805  52.029  1.00  0.00    -0.089 C 
BRANCH  24  25
HETATM   25  P1  UNL     1      19.253   0.541  51.033  1.00  0.00     0.025 P 
BRANCH  25  26
HETATM   26  C4  UNL     1      17.639   0.278  51.835  1.00  0.00     0.025 C 
HETATM   27  C3  UNL     1      17.268  -0.606  52.731  1.00  0.00     0.001 C 
BRANCH  27  28
HETATM   28  C2  UNL     1      18.204  -1.584  53.244  1.00  0.00    -0.010 C 
HETATM   29  C1  UNL     1      17.730  -2.785  53.618  1.00  0.00     0.011 C 
ENDBRANCH  27  28
ENDBRANCH  25  26
ENDBRANCH  24  25
ENDBRANCH   1  24
TORSDOF 6
ENDMDL
MODEL 5
REMARK VINA RESULT:      -6.7      7.650     10.563
REMARK  6 active torsions:
REMARK  status: ('A' for Active; 'I' for Inactive)
REMARK    1  A    between atoms: C2_2  and  C3_3 
REMARK    2  A    between atoms: C4_4  and  P1_5 
REMARK    3  A    between atoms: P1_5  and  C5_6 
REMARK    4  A    between atoms: C5_6  and  C6_7 
REMARK    5  A    between atoms: C9_13  and  C10_14 
REMARK    6  A    between atoms: C15_20  and  C16_21 
ROOT
HETATM    1  C6  UNL     1      28.172   6.868  48.487  1.00  0.00     0.069 C 
HETATM    2  C7  UNL     1      27.422   8.105  48.372  1.00  0.00     0.181 C 
HETATM    3  S1  UNL     1      28.011   9.451  49.341  1.00  0.00     0.063 S 
HETATM    4  O1  UNL     1      27.447   9.578  50.721  1.00  0.00    -0.252 OA
HETATM    5  C8  UNL     1      29.676   9.866  49.143  1.00  0.00     0.196 C 
HETATM    6  N1  UNL     1      30.810   9.385  48.772  1.00  0.00    -0.249 NA
HETATM    7  C9  UNL     1      31.242   8.122  48.297  1.00  0.00     0.095 C 
HETATM    8  C15 UNL     1      30.776   6.899  48.157  1.00  0.00     0.073 C 
HETATM    9  N3  UNL     1      29.487   6.335  48.481  1.00  0.00    -0.350 N 
HETATM   10  H17 UNL     1      29.554   5.334  48.762  1.00  0.00     0.166 HD
ENDROOT
BRANCH   8  11
HETATM   11  C16 UNL     1      31.664   5.907  47.578  1.00  0.00    -0.007 A 
HETATM   12  C17 UNL     1      32.170   4.914  48.401  1.00  0.00     0.017 A 
HETATM   13  C18 UNL     1      32.997   3.906  47.918  1.00  0.00     0.043 A 
HETATM   14  C19 UNL     1      33.357   3.838  46.604  1.00  0.00     0.116 A 
HETATM   15  F1  UNL     1      34.151   2.884  46.104  1.00  0.00    -0.206 F 
HETATM   16  C20 UNL     1      32.874   4.807  45.752  1.00  0.00     0.043 A 
HETATM   17  C21 UNL     1      32.064   5.791  46.240  1.00  0.00     0.017 A 
ENDBRANCH   8  11
BRANCH   7  18
HETATM   18  C10 UNL     1      32.646   8.356  47.939  1.00  0.00    -0.002 A 
HETATM   19  C11 UNL     1      32.914   9.132  46.800  1.00  0.00     0.033 A 
HETATM   20  C12 UNL     1      34.166   9.480  46.336  1.00  0.00     0.117 A 
HETATM   21  N2  UNL     1      35.207   9.027  47.052  1.00  0.00    -0.273 NA
HETATM   22  C13 UNL     1      35.048   8.275  48.161  1.00  0.00     0.117 A 
HETATM   23  C14 UNL     1      33.793   7.946  48.598  1.00  0.00     0.033 A 
ENDBRANCH   7  18
BRANCH   1  24
HETATM   24  C5  UNL     1      27.324   5.863  48.671  1.00  0.00    -0.089 C 
BRANCH  24  25
HETATM   25  P1  UNL     1      26.087   4.888  49.187  1.00  0.00     0.025 P 
BRANCH  25  26
HETATM   26  C4  UNL     1      26.553   3.319  49.986  1.00  0.00     0.025 C 
HETATM   27  C3  UNL     1      25.929   2.610  50.898  1.00  0.00     0.001 C 
BRANCH  27  28
HETATM   28  C2  UNL     1      24.655   3.041  51.433  1.00  0.00    -0.010 C 
HETATM   29  C1  UNL     1      24.457   2.951  52.760  1.00  0.00     0.011 C 
ENDBRANCH  27  28
ENDBRANCH  25  26
ENDBRANCH  24  25
ENDBRANCH   1  24
TORSDOF 6
ENDMDL
MODEL 6
REMARK VINA RESULT:      -6.6      4.048      7.854
REMARK  6 active torsions:
REMARK  status: ('A' for Active; 'I' for Inactive)
REMARK    1  A    between atoms: C2_2  and  C3_3 
REMARK    2  A    between atoms: C4_4  and  P1_5 
REMARK    3  A    between atoms: P1_5  and  C5_6 
REMARK    4  A    between atoms: C5_6  and  C6_7 
REMARK    5  A    between atoms: C9_13  and  C10_14 
REMARK    6  A    between atoms: C15_20  and  C16_21 
ROOT
HETATM    1  C6  UNL     1      23.584   0.682  52.897  1.00  0.00     0.069 C 
HETATM    2  C7  UNL     1      23.289  -0.731  53.043  1.00  0.00     0.181 C 
HETATM    3  S1  UNL     1      21.805  -1.118  53.906  1.00  0.00     0.063 S 
HETATM    4  O1  UNL     1      21.919  -1.288  55.389  1.00  0.00    -0.252 OA
HETATM    5  C8  UNL     1      20.362  -0.373  53.320  1.00  0.00     0.196 C 
HETATM    6  N1  UNL     1      19.936   0.639  52.650  1.00  0.00    -0.249 NA
HETATM    7  C9  UNL     1      20.562   1.739  52.012  1.00  0.00     0.095 C 
HETATM    8  C15 UNL     1      21.753   2.293  51.926  1.00  0.00     0.073 C 
HETATM    9  N3  UNL     1      23.012   1.928  52.531  1.00  0.00    -0.350 N 
HETATM   10  H17 UNL     1      23.608   2.758  52.731  1.00  0.00     0.166 HD
ENDROOT
BRANCH   8  11
HETATM   11  C16 UNL     1      21.883   3.472  51.088  1.00  0.00    -0.007 A 
HETATM   12  C17 UNL     1      21.842   4.718  51.692  1.00  0.00     0.017 A 
HETATM   13  C18 UNL     1      21.996   5.894  50.968  1.00  0.00     0.043 A 
HETATM   14  C19 UNL     1      22.196   5.887  49.618  1.00  0.00     0.116 A 
HETATM   15  F1  UNL     1      22.347   6.998  48.888  1.00  0.00    -0.206 F 
HETATM   16  C20 UNL     1      22.243   4.667  48.979  1.00  0.00     0.043 A 
HETATM   17  C21 UNL     1      22.090   3.520  49.704  1.00  0.00     0.017 A 
ENDBRANCH   8  11
BRANCH   7  18
HETATM   18  C10 UNL     1      19.451   2.411  51.327  1.00  0.00    -0.002 A 
HETATM   19  C11 UNL     1      19.038   1.900  50.086  1.00  0.00     0.033 A 
HETATM   20  C12 UNL     1      17.996   2.382  49.321  1.00  0.00     0.117 A 
HETATM   21  N2  UNL     1      17.330   3.432  49.826  1.00  0.00    -0.273 NA
HETATM   22  C13 UNL     1      17.654   3.990  51.011  1.00  0.00     0.117 A 
HETATM   23  C14 UNL     1      18.694   3.490  51.748  1.00  0.00     0.033 A 
ENDBRANCH   7  18
BRANCH   1  24
HETATM   24  C5  UNL     1      24.851   0.896  53.232  1.00  0.00    -0.089 C 
BRANCH  24  25
HETATM   25  P1  UNL     1      26.500   1.064  53.230  1.00  0.00     0.025 P 
BRANCH  25  26
HETATM   26  C4  UNL     1      27.384   0.539  54.733  1.00  0.00     0.025 C 
HETATM   27  C3  UNL     1      28.601   0.070  54.885  1.00  0.00     0.001 C 
BRANCH  27  28
HETATM   28  C2  UNL     1      29.479  -0.105  53.747  1.00  0.00    -0.010 C 
HETATM   29  C1  UNL     1      29.742  -1.355  53.331  1.00  0.00     0.011 C 
ENDBRANCH  27  28
ENDBRANCH  25  26
ENDBRANCH  24  25
ENDBRANCH   1  24
TORSDOF 6
ENDMDL
MODEL 7
REMARK VINA RESULT:      -6.5      4.590      8.600
REMARK  6 active torsions:
REMARK  status: ('A' for Active; 'I' for Inactive)
REMARK    1  A    between atoms: C2_2  and  C3_3 
REMARK    2  A    between atoms: C4_4  and  P1_5 
REMARK    3  A    between atoms: P1_5  and  C5_6 
REMARK    4  A    between atoms: C5_6  and  C6_7 
REMARK    5  A    between atoms: C9_13  and  C10_14 
REMARK    6  A    between atoms: C15_20  and  C16_21 
ROOT
HETATM    1  C6  UNL     1      24.487   2.934  51.483  1.00  0.00     0.069 C 
HETATM    2  C7  UNL     1      23.473   1.944  51.174  1.00  0.00     0.181 C 
HETATM    3  S1  UNL     1      21.805   2.502  51.260  1.00  0.00     0.063 S 
HETATM    4  O1  UNL     1      21.122   2.364  52.584  1.00  0.00    -0.252 OA
HETATM    5  C8  UNL     1      21.420   3.906  50.332  1.00  0.00     0.196 C 
HETATM    6  N1  UNL     1      21.946   4.951  49.796  1.00  0.00    -0.249 NA
HETATM    7  C9  UNL     1      23.260   5.475  49.728  1.00  0.00     0.095 C 
HETATM    8  C15 UNL     1      24.447   5.254  50.253  1.00  0.00     0.073 C 
HETATM    9  N3  UNL     1      24.889   4.268  51.211  1.00  0.00    -0.350 N 
HETATM   10  H17 UNL     1      25.659   4.624  51.815  1.00  0.00     0.166 HD
ENDROOT
BRANCH   8  11
HETATM   11  C16 UNL     1      25.537   6.114  49.829  1.00  0.00    -0.007 A 
HETATM   12  C17 UNL     1      26.434   5.628  48.892  1.00  0.00     0.017 A 
HETATM   13  C18 UNL     1      27.484   6.399  48.406  1.00  0.00     0.043 A 
HETATM   14  C19 UNL     1      27.689   7.681  48.825  1.00  0.00     0.116 A 
HETATM   15  F1  UNL     1      28.688   8.452  48.381  1.00  0.00    -0.206 F 
HETATM   16  C20 UNL     1      26.818   8.202  49.757  1.00  0.00     0.043 A 
HETATM   17  C21 UNL     1      25.792   7.433  50.225  1.00  0.00     0.017 A 
ENDBRANCH   8  11
BRANCH   7  18
HETATM   18  C10 UNL     1      23.122   6.626  48.828  1.00  0.00    -0.002 A 
HETATM   19  C11 UNL     1      22.632   7.827  49.367  1.00  0.00     0.033 A 
HETATM   20  C12 UNL     1      22.468   9.011  48.680  1.00  0.00     0.117 A 
HETATM   21  N2  UNL     1      22.815   8.995  47.384  1.00  0.00    -0.273 NA
HETATM   22  C13 UNL     1      23.296   7.889  46.779  1.00  0.00     0.117 A 
HETATM   23  C14 UNL     1      23.447   6.726  47.487  1.00  0.00     0.033 A 
ENDBRANCH   7  18
BRANCH   1  24
HETATM   24  C5  UNL     1      25.359   2.409  52.335  1.00  0.00    -0.089 C 
BRANCH  24  25
HETATM   25  P1  UNL     1      26.668   1.669  53.031  1.00  0.00     0.025 P 
BRANCH  25  26
HETATM   26  C4  UNL     1      26.912  -0.097  52.659  1.00  0.00     0.025 C 
HETATM   27  C3  UNL     1      27.825  -0.939  53.086  1.00  0.00     0.001 C 
BRANCH  27  28
HETATM   28  C2  UNL     1      28.859  -0.513  54.005  1.00  0.00    -0.010 C 
HETATM   29  C1  UNL     1      30.117  -0.409  53.544  1.00  0.00     0.011 C 
ENDBRANCH  27  28
ENDBRANCH  25  26
ENDBRANCH  24  25
ENDBRANCH   1  24
TORSDOF 6
ENDMDL
MODEL 8
REMARK VINA RESULT:      -6.3     11.716     13.639
REMARK  6 active torsions:
REMARK  status: ('A' for Active; 'I' for Inactive)
REMARK    1  A    between atoms: C2_2  and  C3_3 
REMARK    2  A    between atoms: C4_4  and  P1_5 
REMARK    3  A    between atoms: P1_5  and  C5_6 
REMARK    4  A    between atoms: C5_6  and  C6_7 
REMARK    5  A    between atoms: C9_13  and  C10_14 
REMARK    6  A    between atoms: C15_20  and  C16_21 
ROOT
HETATM    1  C6  UNL     1      33.861   5.134  42.089  1.00  0.00     0.069 C 
HETATM    2  C7  UNL     1      34.365   6.276  41.349  1.00  0.00     0.181 C 
HETATM    3  S1  UNL     1      33.419   7.754  41.485  1.00  0.00     0.063 S 
HETATM    4  O1  UNL     1      32.334   7.948  40.474  1.00  0.00    -0.252 OA
HETATM    5  C8  UNL     1      33.095   8.311  43.087  1.00  0.00     0.196 C 
HETATM    6  N1  UNL     1      33.005   7.912  44.307  1.00  0.00    -0.249 NA
HETATM    7  C9  UNL     1      33.156   6.661  44.953  1.00  0.00     0.095 C 
HETATM    8  C15 UNL     1      33.299   5.390  44.640  1.00  0.00     0.073 C 
HETATM    9  N3  UNL     1      33.363   4.734  43.356  1.00  0.00    -0.350 N 
HETATM   10  H17 UNL     1      32.959   3.774  43.384  1.00  0.00     0.166 HD
ENDROOT
BRANCH   8  11
HETATM   11  C16 UNL     1      33.426   4.442  45.733  1.00  0.00    -0.007 A 
HETATM   12  C17 UNL     1      32.334   3.651  46.050  1.00  0.00     0.017 A 
HETATM   13  C18 UNL     1      32.384   2.694  47.057  1.00  0.00     0.043 A 
HETATM   14  C19 UNL     1      33.513   2.480  47.791  1.00  0.00     0.116 A 
HETATM   15  F1  UNL     1      33.598   1.569  48.768  1.00  0.00    -0.206 F 
HETATM   16  C20 UNL     1      34.622   3.247  47.507  1.00  0.00     0.043 A 
HETATM   17  C21 UNL     1      34.558   4.183  46.515  1.00  0.00     0.017 A 
ENDBRANCH   8  11
BRANCH   7  18
HETATM   18  C10 UNL     1      33.046   6.999  46.378  1.00  0.00    -0.002 A 
HETATM   19  C11 UNL     1      34.181   7.524  47.018  1.00  0.00     0.033 A 
HETATM   20  C12 UNL     1      34.250   7.925  48.335  1.00  0.00     0.117 A 
HETATM   21  N2  UNL     1      33.122   7.797  49.052  1.00  0.00    -0.273 NA
HETATM   22  C13 UNL     1      31.983   7.303  48.522  1.00  0.00     0.117 A 
HETATM   23  C14 UNL     1      31.944   6.913  47.211  1.00  0.00     0.033 A 
ENDBRANCH   7  18
BRANCH   1  24
HETATM   24  C5  UNL     1      33.855   4.071  41.293  1.00  0.00    -0.089 C 
BRANCH  24  25
HETATM   25  P1  UNL     1      33.956   3.042  39.998  1.00  0.00     0.025 P 
BRANCH  25  26
HETATM   26  C4  UNL     1      32.662   1.768  39.853  1.00  0.00     0.025 C 
HETATM   27  C3  UNL     1      31.387   1.880  39.562  1.00  0.00     0.001 C 
BRANCH  27  28
HETATM   28  C2  UNL     1      30.795   3.173  39.291  1.00  0.00    -0.010 C 
HETATM   29  C1  UNL     1      29.469   3.236  39.079  1.00  0.00     0.011 C 
ENDBRANCH  27  28
ENDBRANCH  25  26
ENDBRANCH  24  25
ENDBRANCH   1  24
TORSDOF 6
ENDMDL
MODEL 9
REMARK VINA RESULT:      -6.2      3.967      7.485
REMARK  6 active torsions:
REMARK  status: ('A' for Active; 'I' for Inactive)
REMARK    1  A    between atoms: C2_2  and  C3_3 
REMARK    2  A    between atoms: C4_4  and  P1_5 
REMARK    3  A    between atoms: P1_5  and  C5_6 
REMARK    4  A    between atoms: C5_6  and  C6_7 
REMARK    5  A    between atoms: C9_13  and  C10_14 
REMARK    6  A    between atoms: C15_20  and  C16_21 
ROOT
HETATM    1  C6  UNL     1      23.313   0.863  52.909  1.00  0.00     0.069 C 
HETATM    2  C7  UNL     1      23.133  -0.569  53.066  1.00  0.00     0.181 C 
HETATM    3  S1  UNL     1      21.672  -1.067  53.913  1.00  0.00     0.063 S 
HETATM    4  O1  UNL     1      21.777  -1.212  55.399  1.00  0.00    -0.252 OA
HETATM    5  C8  UNL     1      20.182  -0.450  53.298  1.00  0.00     0.196 C 
HETATM    6  N1  UNL     1      19.685   0.518  52.610  1.00  0.00    -0.249 NA
HETATM    7  C9  UNL     1      20.228   1.658  51.969  1.00  0.00     0.095 C 
HETATM    8  C15 UNL     1      21.371   2.307  51.894  1.00  0.00     0.073 C 
HETATM    9  N3  UNL     1      22.646   2.053  52.521  1.00  0.00    -0.350 N 
HETATM   10  H17 UNL     1      23.169   2.932  52.720  1.00  0.00     0.166 HD
ENDROOT
BRANCH   8  11
HETATM   11  C16 UNL     1      21.417   3.485  51.045  1.00  0.00    -0.007 A 
HETATM   12  C17 UNL     1      21.668   3.314  49.693  1.00  0.00     0.017 A 
HETATM   13  C18 UNL     1      21.693   4.384  48.806  1.00  0.00     0.043 A 
HETATM   14  C19 UNL     1      21.471   5.665  49.219  1.00  0.00     0.116 A 
HETATM   15  F1  UNL     1      21.488   6.720  48.395  1.00  0.00    -0.206 F 
HETATM   16  C20 UNL     1      21.217   5.878  50.556  1.00  0.00     0.043 A 
HETATM   17  C21 UNL     1      21.196   4.817  51.415  1.00  0.00     0.017 A 
ENDBRANCH   8  11
BRANCH   7  18
HETATM   18  C10 UNL     1      19.077   2.230  51.261  1.00  0.00    -0.002 A 
HETATM   19  C11 UNL     1      18.681   1.629  50.055  1.00  0.00     0.033 A 
HETATM   20  C12 UNL     1      17.608   2.010  49.277  1.00  0.00     0.117 A 
HETATM   21  N2  UNL     1      16.890   3.049  49.731  1.00  0.00    -0.273 NA
HETATM   22  C13 UNL     1      17.193   3.690  50.879  1.00  0.00     0.117 A 
HETATM   23  C14 UNL     1      18.265   3.289  51.631  1.00  0.00     0.033 A 
ENDBRANCH   7  18
BRANCH   1  24
HETATM   24  C5  UNL     1      24.553   1.183  53.259  1.00  0.00    -0.089 C 
BRANCH  24  25
HETATM   25  P1  UNL     1      26.138   1.668  53.269  1.00  0.00     0.025 P 
BRANCH  25  26
HETATM   26  C4  UNL     1      26.903   2.022  51.655  1.00  0.00     0.025 C 
HETATM   27  C3  UNL     1      26.500   2.796  50.673  1.00  0.00     0.001 C 
BRANCH  27  28
HETATM   28  C2  UNL     1      25.262   3.541  50.773  1.00  0.00    -0.010 C 
HETATM   29  C1  UNL     1      25.185   4.733  50.157  1.00  0.00     0.011 C 
ENDBRANCH  27  28
ENDBRANCH  25  26
ENDBRANCH  24  25
ENDBRANCH   1  24
TORSDOF 6
ENDMDL
