MODEL 1
REMARK VINA RESULT:      -7.4      0.000      0.000
REMARK  5 active torsions:
REMARK  status: ('A' for Active; 'I' for Inactive)
REMARK    1  A    between atoms: C2_3  and  N1_4 
REMARK    2  A    between atoms: N2_5  and  C3_6 
REMARK    3  A    between atoms: C3_6  and  C4_7 
REMARK    4  A    between atoms: C4_7  and  C5_8 
REMARK    5  A    between atoms: C16_19  and  N3_20 
ROOT
HETATM    1  C3  UNL     1      24.356   3.206  51.566  1.00  0.00     0.200 A 
HETATM    2  C12 UNL     1      25.572   3.011  50.646  1.00  0.00     0.016 A 
HETATM    3  C13 UNL     1      26.271   3.686  49.792  1.00  0.00    -0.002 A 
HETATM    4  C14 UNL     1      25.808   5.054  49.616  1.00  0.00    -0.002 A 
HETATM    5  C15 UNL     1      24.765   5.312  50.379  1.00  0.00     0.011 A 
HETATM    6  C16 UNL     1      23.916   4.589  51.389  1.00  0.00     0.282 A 
ENDROOT
BRANCH   1   7
HETATM    7  N2  UNL     1      23.387   2.218  51.070  1.00  0.00     0.028 N 
HETATM    8  C2  UNL     1      22.362   1.312  50.784  1.00  0.00     0.248 A 
HETATM    9  S1  UNL     1      21.870   1.847  52.320  1.00  0.00    -0.034 SA
HETATM   10  C1  UNL     1      20.652   2.962  52.138  1.00  0.00     0.245 C 
HETATM   11  H5  UNL     1      23.483   1.758  50.164  1.00  0.00     0.303 HD
BRANCH   8  12
HETATM   12  N1  UNL     1      21.279   0.442  50.629  1.00  0.00    -0.373 N 
HETATM   13  H3  UNL     1      21.187  -0.241  51.402  1.00  0.00     0.158 HD
HETATM   14  H4  UNL     1      20.724   0.631  49.740  1.00  0.00     0.158 HD
ENDBRANCH   8  12
ENDBRANCH   1   7
BRANCH   1  15
HETATM   15  C4  UNL     1      24.813   2.710  52.882  1.00  0.00     0.086 C 
BRANCH  15  16
HETATM   16  C5  UNL     1      25.856   1.690  52.972  1.00  0.00    -0.055 A 
HETATM   17  C6  UNL     1      27.118   2.063  53.469  1.00  0.00     0.007 A 
HETATM   18  C7  UNL     1      28.193   1.211  53.614  1.00  0.00     0.007 A 
HETATM   19  C8  UNL     1      28.073  -0.121  53.261  1.00  0.00    -0.062 A 
HETATM   20  C9  UNL     1      29.178  -1.098  53.385  1.00  0.00     0.048 C 
HETATM   21  C10 UNL     1      26.860  -0.555  52.768  1.00  0.00     0.007 A 
HETATM   22  C11 UNL     1      25.838   0.353  52.652  1.00  0.00     0.007 A 
ENDBRANCH  15  16
ENDBRANCH   1  15
BRANCH   6  23
HETATM   23  N3  UNL     1      24.062   5.353  52.596  1.00  0.00     0.089 N 
HETATM   24  H20 UNL     1      24.862   6.052  52.511  1.00  0.00     0.313 HD
HETATM   25  H21 UNL     1      24.318   4.800  53.444  1.00  0.00     0.313 HD
ENDBRANCH   6  23
TORSDOF 5
ENDMDL
MODEL 2
REMARK VINA RESULT:      -7.1      0.992      1.595
REMARK  5 active torsions:
REMARK  status: ('A' for Active; 'I' for Inactive)
REMARK    1  A    between atoms: C2_3  and  N1_4 
REMARK    2  A    between atoms: N2_5  and  C3_6 
REMARK    3  A    between atoms: C3_6  and  C4_7 
REMARK    4  A    between atoms: C4_7  and  C5_8 
REMARK    5  A    between atoms: C16_19  and  N3_20 
ROOT
HETATM    1  C3  UNL     1      24.351   3.113  51.502  1.00  0.00     0.200 A 
HETATM    2  C12 UNL     1      25.603   2.862  50.647  1.00  0.00     0.016 A 
HETATM    3  C13 UNL     1      26.369   3.499  49.823  1.00  0.00    -0.002 A 
HETATM    4  C14 UNL     1      25.967   4.881  49.608  1.00  0.00    -0.002 A 
HETATM    5  C15 UNL     1      24.898   5.187  50.315  1.00  0.00     0.011 A 
HETATM    6  C16 UNL     1      23.973   4.510  51.288  1.00  0.00     0.282 A 
ENDROOT
BRANCH   1   7
HETATM    7  N2  UNL     1      23.371   2.156  50.969  1.00  0.00     0.028 N 
HETATM    8  C2  UNL     1      22.356   1.415  50.356  1.00  0.00     0.248 A 
HETATM    9  S1  UNL     1      22.025   2.957  49.724  1.00  0.00    -0.034 SA
HETATM   10  C1  UNL     1      22.613   3.042  48.173  1.00  0.00     0.245 C 
HETATM   11  H5  UNL     1      23.376   1.166  51.216  1.00  0.00     0.303 HD
BRANCH   8  12
HETATM   12  N1  UNL     1      21.301   0.799  49.678  1.00  0.00    -0.373 N 
HETATM   13  H3  UNL     1      20.397   1.290  49.793  1.00  0.00     0.158 HD
HETATM   14  H4  UNL     1      21.605  -0.074  49.151  1.00  0.00     0.158 HD
ENDBRANCH   8  12
ENDBRANCH   1   7
BRANCH   1  15
HETATM   15  C4  UNL     1      24.722   2.618  52.845  1.00  0.00     0.086 C 
BRANCH  15  16
HETATM   16  C5  UNL     1      25.930   1.818  53.036  1.00  0.00    -0.055 A 
HETATM   17  C6  UNL     1      25.849   0.427  52.842  1.00  0.00     0.007 A 
HETATM   18  C7  UNL     1      26.904  -0.451  52.983  1.00  0.00     0.007 A 
HETATM   19  C8  UNL     1      28.156   0.020  53.338  1.00  0.00    -0.062 A 
HETATM   20  C9  UNL     1      29.336  -0.856  53.509  1.00  0.00     0.048 C 
HETATM   21  C10 UNL     1      28.304   1.376  53.541  1.00  0.00     0.007 A 
HETATM   22  C11 UNL     1      27.208   2.186  53.384  1.00  0.00     0.007 A 
ENDBRANCH  15  16
ENDBRANCH   1  15
BRANCH   6  23
HETATM   23  N3  UNL     1      24.087   5.283  52.492  1.00  0.00     0.089 N 
HETATM   24  H20 UNL     1      24.063   4.656  53.353  1.00  0.00     0.313 HD
HETATM   25  H21 UNL     1      23.306   5.955  52.665  1.00  0.00     0.313 HD
ENDBRANCH   6  23
TORSDOF 5
ENDMDL
MODEL 3
REMARK VINA RESULT:      -7.0      1.848      3.378
REMARK  5 active torsions:
REMARK  status: ('A' for Active; 'I' for Inactive)
REMARK    1  A    between atoms: C2_3  and  N1_4 
REMARK    2  A    between atoms: N2_5  and  C3_6 
REMARK    3  A    between atoms: C3_6  and  C4_7 
REMARK    4  A    between atoms: C4_7  and  C5_8 
REMARK    5  A    between atoms: C16_19  and  N3_20 
ROOT
HETATM    1  C3  UNL     1      24.353   2.872  52.167  1.00  0.00     0.200 A 
HETATM    2  C12 UNL     1      23.646   4.173  52.579  1.00  0.00     0.016 A 
HETATM    3  C13 UNL     1      22.487   4.736  52.464  1.00  0.00    -0.002 A 
HETATM    4  C14 UNL     1      21.521   3.930  51.732  1.00  0.00    -0.002 A 
HETATM    5  C15 UNL     1      22.045   2.784  51.345  1.00  0.00     0.011 A 
HETATM    6  C16 UNL     1      23.364   2.068  51.450  1.00  0.00     0.282 A 
ENDROOT
BRANCH   1   7
HETATM    7  N2  UNL     1      25.457   3.335  51.314  1.00  0.00     0.028 N 
HETATM    8  C2  UNL     1      26.363   3.771  50.342  1.00  0.00     0.248 A 
HETATM    9  S1  UNL     1      24.963   3.602  49.394  1.00  0.00    -0.034 SA
HETATM   10  C1  UNL     1      24.296   5.104  49.146  1.00  0.00     0.245 C 
HETATM   11  H5  UNL     1      26.398   3.502  51.672  1.00  0.00     0.303 HD
BRANCH   8  12
HETATM   12  N1  UNL     1      27.157   4.199  49.275  1.00  0.00    -0.373 N 
HETATM   13  H3  UNL     1      28.153   3.933  49.372  1.00  0.00     0.158 HD
HETATM   14  H4  UNL     1      26.601   4.725  48.535  1.00  0.00     0.158 HD
ENDBRANCH   8  12
ENDBRANCH   1   7
BRANCH   1  15
HETATM   15  C4  UNL     1      24.974   2.384  53.417  1.00  0.00     0.086 C 
BRANCH  15  16
HETATM   16  C5  UNL     1      26.170   1.545  53.376  1.00  0.00    -0.055 A 
HETATM   17  C6  UNL     1      27.392   2.099  53.798  1.00  0.00     0.007 A 
HETATM   18  C7  UNL     1      28.598   1.428  53.817  1.00  0.00     0.007 A 
HETATM   19  C8  UNL     1      28.664   0.110  53.403  1.00  0.00    -0.062 A 
HETATM   20  C9  UNL     1      29.917  -0.678  53.394  1.00  0.00     0.048 C 
HETATM   21  C10 UNL     1      27.500  -0.496  52.979  1.00  0.00     0.007 A 
HETATM   22  C11 UNL     1      26.340   0.238  52.987  1.00  0.00     0.007 A 
ENDBRANCH  15  16
ENDBRANCH   1  15
BRANCH   6  23
HETATM   23  N3  UNL     1      23.059   0.851  52.147  1.00  0.00     0.089 N 
HETATM   24  H20 UNL     1      22.379   1.029  52.948  1.00  0.00     0.313 HD
HETATM   25  H21 UNL     1      23.870   0.395  52.621  1.00  0.00     0.313 HD
ENDBRANCH   6  23
TORSDOF 5
ENDMDL
MODEL 4
REMARK VINA RESULT:      -7.0      1.757      2.001
REMARK  5 active torsions:
REMARK  status: ('A' for Active; 'I' for Inactive)
REMARK    1  A    between atoms: C2_3  and  N1_4 
REMARK    2  A    between atoms: N2_5  and  C3_6 
REMARK    3  A    between atoms: C3_6  and  C4_7 
REMARK    4  A    between atoms: C4_7  and  C5_8 
REMARK    5  A    between atoms: C16_19  and  N3_20 
ROOT
HETATM    1  C3  UNL     1      23.387   4.012  51.830  1.00  0.00     0.200 A 
HETATM    2  C12 UNL     1      23.930   3.278  50.594  1.00  0.00     0.016 A 
HETATM    3  C13 UNL     1      24.341   3.548  49.397  1.00  0.00    -0.002 A 
HETATM    4  C14 UNL     1      24.299   4.967  49.077  1.00  0.00    -0.002 A 
HETATM    5  C15 UNL     1      23.850   5.677  50.092  1.00  0.00     0.011 A 
HETATM    6  C16 UNL     1      23.369   5.435  51.496  1.00  0.00     0.282 A 
ENDROOT
BRANCH   1   7
HETATM    7  N2  UNL     1      22.045   3.439  52.009  1.00  0.00     0.028 N 
HETATM    8  C2  UNL     1      20.701   3.058  52.059  1.00  0.00     0.248 A 
HETATM    9  S1  UNL     1      20.582   4.458  51.103  1.00  0.00    -0.034 SA
HETATM   10  C1  UNL     1      20.434   4.011  49.509  1.00  0.00     0.245 C 
HETATM   11  H5  UNL     1      21.875   2.593  52.554  1.00  0.00     0.303 HD
BRANCH   8  12
HETATM   12  N1  UNL     1      19.329   2.795  52.023  1.00  0.00    -0.373 N 
HETATM   13  H3  UNL     1      18.944   2.499  52.938  1.00  0.00     0.158 HD
HETATM   14  H4  UNL     1      18.906   2.950  51.059  1.00  0.00     0.158 HD
ENDBRANCH   8  12
ENDBRANCH   1   7
BRANCH   1  15
HETATM   15  C4  UNL     1      24.208   3.498  52.948  1.00  0.00     0.086 C 
BRANCH  15  16
HETATM   16  C5  UNL     1      24.792   2.159  52.888  1.00  0.00    -0.055 A 
HETATM   17  C6  UNL     1      26.135   2.032  52.489  1.00  0.00     0.007 A 
HETATM   18  C7  UNL     1      26.819   0.838  52.390  1.00  0.00     0.007 A 
HETATM   19  C8  UNL     1      26.183  -0.352  52.696  1.00  0.00    -0.062 A 
HETATM   20  C9  UNL     1      26.846  -1.673  52.615  1.00  0.00     0.048 C 
HETATM   21  C10 UNL     1      24.865  -0.298  53.097  1.00  0.00     0.007 A 
HETATM   22  C11 UNL     1      24.252   0.928  53.170  1.00  0.00     0.007 A 
ENDBRANCH  15  16
ENDBRANCH   1  15
BRANCH   6  23
HETATM   23  N3  UNL     1      24.272   6.187  52.321  1.00  0.00     0.089 N 
HETATM   24  H20 UNL     1      24.744   6.963  51.763  1.00  0.00     0.313 HD
HETATM   25  H21 UNL     1      25.078   5.646  52.706  1.00  0.00     0.313 HD
ENDBRANCH   6  23
TORSDOF 5
ENDMDL
MODEL 5
REMARK VINA RESULT:      -6.8      2.201      3.465
REMARK  5 active torsions:
REMARK  status: ('A' for Active; 'I' for Inactive)
REMARK    1  A    between atoms: C2_3  and  N1_4 
REMARK    2  A    between atoms: N2_5  and  C3_6 
REMARK    3  A    between atoms: C3_6  and  C4_7 
REMARK    4  A    between atoms: C4_7  and  C5_8 
REMARK    5  A    between atoms: C16_19  and  N3_20 
ROOT
HETATM    1  C3  UNL     1      22.568   1.409  51.840  1.00  0.00     0.200 A 
HETATM    2  C12 UNL     1      21.851   0.851  50.601  1.00  0.00     0.016 A 
HETATM    3  C13 UNL     1      20.786   1.074  49.902  1.00  0.00    -0.002 A 
HETATM    4  C14 UNL     1      19.990   2.187  50.400  1.00  0.00    -0.002 A 
HETATM    5  C15 UNL     1      20.541   2.735  51.465  1.00  0.00     0.011 A 
HETATM    6  C16 UNL     1      21.766   2.536  52.314  1.00  0.00     0.282 A 
ENDROOT
BRANCH   1   7
HETATM    7  N2  UNL     1      22.583   0.272  52.771  1.00  0.00     0.028 N 
HETATM    8  C2  UNL     1      22.416  -0.726  53.737  1.00  0.00     0.248 A 
HETATM    9  S1  UNL     1      21.055   0.238  54.061  1.00  0.00    -0.034 SA
HETATM   10  C1  UNL     1      19.714  -0.478  53.390  1.00  0.00     0.245 C 
HETATM   11  H5  UNL     1      23.315  -0.440  52.762  1.00  0.00     0.303 HD
BRANCH   8  12
HETATM   12  N1  UNL     1      22.126  -1.652  54.742  1.00  0.00    -0.373 N 
HETATM   13  H3  UNL     1      22.092  -2.629  54.403  1.00  0.00     0.158 HD
HETATM   14  H4  UNL     1      21.992  -1.196  55.695  1.00  0.00     0.158 HD
ENDBRANCH   8  12
ENDBRANCH   1   7
BRANCH   1  15
HETATM   15  C4  UNL     1      23.967   1.598  51.397  1.00  0.00     0.086 C 
BRANCH  15  16
HETATM   16  C5  UNL     1      25.078   1.327  52.306  1.00  0.00    -0.055 A 
HETATM   17  C6  UNL     1      25.950   0.266  52.002  1.00  0.00     0.007 A 
HETATM   18  C7  UNL     1      27.040  -0.103  52.763  1.00  0.00     0.007 A 
HETATM   19  C8  UNL     1      27.344   0.591  53.920  1.00  0.00    -0.062 A 
HETATM   20  C9  UNL     1      28.494   0.258  54.790  1.00  0.00     0.048 C 
HETATM   21  C10 UNL     1      26.531   1.646  54.276  1.00  0.00     0.007 A 
HETATM   22  C11 UNL     1      25.464   1.952  53.468  1.00  0.00     0.007 A 
ENDBRANCH  15  16
ENDBRANCH   1  15
BRANCH   6  23
HETATM   23  N3  UNL     1      22.479   3.777  52.214  1.00  0.00     0.089 N 
HETATM   24  H20 UNL     1      22.569   4.086  51.198  1.00  0.00     0.313 HD
HETATM   25  H21 UNL     1      23.470   3.749  52.543  1.00  0.00     0.313 HD
ENDBRANCH   6  23
TORSDOF 5
ENDMDL
MODEL 6
REMARK VINA RESULT:      -6.8      2.308      3.362
REMARK  5 active torsions:
REMARK  status: ('A' for Active; 'I' for Inactive)
REMARK    1  A    between atoms: C2_3  and  N1_4 
REMARK    2  A    between atoms: N2_5  and  C3_6 
REMARK    3  A    between atoms: C3_6  and  C4_7 
REMARK    4  A    between atoms: C4_7  and  C5_8 
REMARK    5  A    between atoms: C16_19  and  N3_20 
ROOT
HETATM    1  C3  UNL     1      24.404   3.363  50.844  1.00  0.00     0.200 A 
HETATM    2  C12 UNL     1      25.700   3.255  50.026  1.00  0.00     0.016 A 
HETATM    3  C13 UNL     1      26.499   4.017  49.353  1.00  0.00    -0.002 A 
HETATM    4  C14 UNL     1      26.092   5.415  49.338  1.00  0.00    -0.002 A 
HETATM    5  C15 UNL     1      24.985   5.601  50.029  1.00  0.00     0.011 A 
HETATM    6  C16 UNL     1      24.020   4.774  50.835  1.00  0.00     0.282 A 
ENDROOT
BRANCH   1   7
HETATM    7  N2  UNL     1      23.463   2.499  50.117  1.00  0.00     0.028 N 
HETATM    8  C2  UNL     1      22.464   1.860  49.377  1.00  0.00     0.248 A 
HETATM    9  S1  UNL     1      21.955   3.475  49.235  1.00  0.00    -0.034 SA
HETATM   10  C1  UNL     1      22.401   4.051  47.742  1.00  0.00     0.245 C 
HETATM   11  H5  UNL     1      23.569   1.485  50.069  1.00  0.00     0.303 HD
BRANCH   8  12
HETATM   12  N1  UNL     1      21.408   1.354  48.615  1.00  0.00    -0.373 N 
HETATM   13  H3  UNL     1      21.652   1.209  47.619  1.00  0.00     0.158 HD
HETATM   14  H4  UNL     1      20.525   1.197  49.189  1.00  0.00     0.158 HD
ENDBRANCH   8  12
ENDBRANCH   1   7
BRANCH   1  15
HETATM   15  C4  UNL     1      24.713   2.663  52.110  1.00  0.00     0.086 C 
BRANCH  15  16
HETATM   16  C5  UNL     1      23.804   1.650  52.641  1.00  0.00    -0.055 A 
HETATM   17  C6  UNL     1      24.312   0.365  52.903  1.00  0.00     0.007 A 
HETATM   18  C7  UNL     1      23.575  -0.688  53.407  1.00  0.00     0.007 A 
HETATM   19  C8  UNL     1      22.233  -0.519  53.696  1.00  0.00    -0.062 A 
HETATM   20  C9  UNL     1      21.376  -1.596  54.237  1.00  0.00     0.048 C 
HETATM   21  C10 UNL     1      21.671   0.720  53.465  1.00  0.00     0.007 A 
HETATM   22  C11 UNL     1      22.469   1.717  52.960  1.00  0.00     0.007 A 
ENDBRANCH  15  16
ENDBRANCH   1  15
BRANCH   6  23
HETATM   23  N3  UNL     1      24.065   5.348  52.150  1.00  0.00     0.089 N 
HETATM   24  H20 UNL     1      23.847   4.617  52.894  1.00  0.00     0.313 HD
HETATM   25  H21 UNL     1      23.358   6.094  52.334  1.00  0.00     0.313 HD
ENDBRANCH   6  23
TORSDOF 5
ENDMDL
MODEL 7
REMARK VINA RESULT:      -6.7      2.116      2.744
REMARK  5 active torsions:
REMARK  status: ('A' for Active; 'I' for Inactive)
REMARK    1  A    between atoms: C2_3  and  N1_4 
REMARK    2  A    between atoms: N2_5  and  C3_6 
REMARK    3  A    between atoms: C3_6  and  C4_7 
REMARK    4  A    between atoms: C4_7  and  C5_8 
REMARK    5  A    between atoms: C16_19  and  N3_20 
ROOT
HETATM    1  C3  UNL     1      23.847   4.652  50.901  1.00  0.00     0.200 A 
HETATM    2  C12 UNL     1      24.928   3.699  50.369  1.00  0.00     0.016 A 
HETATM    3  C13 UNL     1      26.039   3.750  49.707  1.00  0.00    -0.002 A 
HETATM    4  C14 UNL     1      26.428   5.101  49.332  1.00  0.00    -0.002 A 
HETATM    5  C15 UNL     1      25.554   5.990  49.760  1.00  0.00     0.011 A 
HETATM    6  C16 UNL     1      24.263   6.004  50.532  1.00  0.00     0.282 A 
ENDROOT
BRANCH   1   7
HETATM    7  N2  UNL     1      22.627   4.210  50.210  1.00  0.00     0.028 N 
HETATM    8  C2  UNL     1      21.364   3.929  49.680  1.00  0.00     0.248 A 
HETATM    9  S1  UNL     1      20.951   5.108  50.833  1.00  0.00    -0.034 SA
HETATM   10  C1  UNL     1      20.723   6.560  50.060  1.00  0.00     0.245 C 
HETATM   11  H5  UNL     1      22.635   3.500  49.477  1.00  0.00     0.303 HD
BRANCH   8  12
HETATM   12  N1  UNL     1      20.048   3.749  49.244  1.00  0.00    -0.373 N 
HETATM   13  H3  UNL     1      19.741   4.465  48.562  1.00  0.00     0.158 HD
HETATM   14  H4  UNL     1      19.582   2.900  49.685  1.00  0.00     0.158 HD
ENDBRANCH   8  12
ENDBRANCH   1   7
BRANCH   1  15
HETATM   15  C4  UNL     1      23.683   4.262  52.318  1.00  0.00     0.086 C 
BRANCH  15  16
HETATM   16  C5  UNL     1      24.214   2.990  52.806  1.00  0.00    -0.055 A 
HETATM   17  C6  UNL     1      23.419   1.838  52.672  1.00  0.00     0.007 A 
HETATM   18  C7  UNL     1      23.788   0.573  53.082  1.00  0.00     0.007 A 
HETATM   19  C8  UNL     1      25.022   0.369  53.673  1.00  0.00    -0.062 A 
HETATM   20  C9  UNL     1      25.492  -0.955  54.140  1.00  0.00     0.048 C 
HETATM   21  C10 UNL     1      25.853   1.458  53.832  1.00  0.00     0.007 A 
HETATM   22  C11 UNL     1      25.414   2.685  53.400  1.00  0.00     0.007 A 
ENDBRANCH  15  16
ENDBRANCH   1  15
BRANCH   6  23
HETATM   23  N3  UNL     1      24.542   6.810  51.686  1.00  0.00     0.089 N 
HETATM   24  H20 UNL     1      25.583   7.027  51.759  1.00  0.00     0.313 HD
HETATM   25  H21 UNL     1      24.329   6.361  52.604  1.00  0.00     0.313 HD
ENDBRANCH   6  23
TORSDOF 5
ENDMDL
MODEL 8
REMARK VINA RESULT:      -6.7      2.389      5.127
REMARK  5 active torsions:
REMARK  status: ('A' for Active; 'I' for Inactive)
REMARK    1  A    between atoms: C2_3  and  N1_4 
REMARK    2  A    between atoms: N2_5  and  C3_6 
REMARK    3  A    between atoms: C3_6  and  C4_7 
REMARK    4  A    between atoms: C4_7  and  C5_8 
REMARK    5  A    between atoms: C16_19  and  N3_20 
ROOT
HETATM    1  C3  UNL     1      23.387   3.154  51.002  1.00  0.00     0.200 A 
HETATM    2  C12 UNL     1      24.643   3.007  51.876  1.00  0.00     0.016 A 
HETATM    3  C13 UNL     1      25.079   2.274  52.848  1.00  0.00    -0.002 A 
HETATM    4  C14 UNL     1      24.129   1.260  53.280  1.00  0.00    -0.002 A 
HETATM    5  C15 UNL     1      23.018   1.308  52.573  1.00  0.00     0.011 A 
HETATM    6  C16 UNL     1      22.453   2.116  51.437  1.00  0.00     0.282 A 
ENDROOT
BRANCH   1   7
HETATM    7  N2  UNL     1      22.921   4.517  51.293  1.00  0.00     0.028 N 
HETATM    8  C2  UNL     1      22.336   5.781  51.411  1.00  0.00     0.248 A 
HETATM    9  S1  UNL     1      21.412   5.140  50.138  1.00  0.00    -0.034 SA
HETATM   10  C1  UNL     1      19.946   4.635  50.736  1.00  0.00     0.245 C 
HETATM   11  H5  UNL     1      23.336   5.098  52.022  1.00  0.00     0.303 HD
BRANCH   8  12
HETATM   12  N1  UNL     1      21.661   7.005  51.420  1.00  0.00    -0.373 N 
HETATM   13  H3  UNL     1      20.648   6.916  51.228  1.00  0.00     0.158 HD
HETATM   14  H4  UNL     1      22.304   7.827  51.628  1.00  0.00     0.158 HD
ENDBRANCH   8  12
ENDBRANCH   1   7
BRANCH   1  15
HETATM   15  C4  UNL     1      23.909   3.182  49.618  1.00  0.00     0.086 C 
BRANCH  15  16
HETATM   16  C5  UNL     1      25.088   3.978  49.283  1.00  0.00    -0.055 A 
HETATM   17  C6  UNL     1      24.905   5.317  48.894  1.00  0.00     0.007 A 
HETATM   18  C7  UNL     1      25.921   6.186  48.553  1.00  0.00     0.007 A 
HETATM   19  C8  UNL     1      27.236   5.759  48.583  1.00  0.00    -0.062 A 
HETATM   20  C9  UNL     1      28.381   6.629  48.232  1.00  0.00     0.048 C 
HETATM   21  C10 UNL     1      27.487   4.457  48.959  1.00  0.00     0.007 A 
HETATM   22  C11 UNL     1      26.423   3.652  49.283  1.00  0.00     0.007 A 
ENDBRANCH  15  16
ENDBRANCH   1  15
BRANCH   6  23
HETATM   23  N3  UNL     1      22.202   1.156  50.400  1.00  0.00     0.089 N 
HETATM   24  H20 UNL     1      22.895   1.269  49.598  1.00  0.00     0.313 HD
HETATM   25  H21 UNL     1      21.275   1.242  49.929  1.00  0.00     0.313 HD
ENDBRANCH   6  23
TORSDOF 5
ENDMDL
MODEL 9
REMARK VINA RESULT:      -6.6      6.813      9.431
REMARK  5 active torsions:
REMARK  status: ('A' for Active; 'I' for Inactive)
REMARK    1  A    between atoms: C2_3  and  N1_4 
REMARK    2  A    between atoms: N2_5  and  C3_6 
REMARK    3  A    between atoms: C3_6  and  C4_7 
REMARK    4  A    between atoms: C4_7  and  C5_8 
REMARK    5  A    between atoms: C16_19  and  N3_20 
ROOT
HETATM    1  C3  UNL     1      30.753   8.180  47.766  1.00  0.00     0.200 A 
HETATM    2  C12 UNL     1      29.997   8.760  48.972  1.00  0.00     0.016 A 
HETATM    3  C13 UNL     1      29.875   9.881  49.604  1.00  0.00    -0.002 A 
HETATM    4  C14 UNL     1      30.676  10.956  49.036  1.00  0.00    -0.002 A 
HETATM    5  C15 UNL     1      31.356  10.546  47.984  1.00  0.00     0.011 A 
HETATM    6  C16 UNL     1      31.536   9.276  47.198  1.00  0.00     0.282 A 
ENDROOT
BRANCH   1   7
HETATM    7  N2  UNL     1      31.581   7.118  48.356  1.00  0.00     0.028 N 
HETATM    8  C2  UNL     1      32.404   6.046  48.714  1.00  0.00     0.248 A 
HETATM    9  S1  UNL     1      32.435   5.897  47.021  1.00  0.00    -0.034 SA
HETATM   10  C1  UNL     1      33.861   6.531  46.450  1.00  0.00     0.245 C 
HETATM   11  H5  UNL     1      31.705   7.011  49.363  1.00  0.00     0.303 HD
BRANCH   8  12
HETATM   12  N1  UNL     1      33.242   4.948  48.927  1.00  0.00    -0.373 N 
HETATM   13  H3  UNL     1      34.162   5.205  49.326  1.00  0.00     0.158 HD
HETATM   14  H4  UNL     1      32.790   4.026  48.646  1.00  0.00     0.158 HD
ENDBRANCH   8  12
ENDBRANCH   1   7
BRANCH   1  15
HETATM   15  C4  UNL     1      29.707   7.497  46.975  1.00  0.00     0.086 C 
BRANCH  15  16
HETATM   16  C5  UNL     1      28.664   6.716  47.637  1.00  0.00    -0.055 A 
HETATM   17  C6  UNL     1      27.386   7.287  47.776  1.00  0.00     0.007 A 
HETATM   18  C7  UNL     1      26.307   6.669  48.374  1.00  0.00     0.007 A 
HETATM   19  C8  UNL     1      26.437   5.391  48.889  1.00  0.00    -0.062 A 
HETATM   20  C9  UNL     1      25.329   4.662  49.544  1.00  0.00     0.048 C 
HETATM   21  C10 UNL     1      27.665   4.772  48.782  1.00  0.00     0.007 A 
HETATM   22  C11 UNL     1      28.691   5.452  48.176  1.00  0.00     0.007 A 
ENDBRANCH  15  16
ENDBRANCH   1  15
BRANCH   6  23
HETATM   23  N3  UNL     1      31.103   9.609  45.871  1.00  0.00     0.089 N 
HETATM   24  H20 UNL     1      30.161  10.107  45.890  1.00  0.00     0.313 HD
HETATM   25  H21 UNL     1      30.929   8.794  45.243  1.00  0.00     0.313 HD
ENDBRANCH   6  23
TORSDOF 5
ENDMDL
