MODEL 1
REMARK VINA RESULT:      -7.5      0.000      0.000
REMARK  7 active torsions:
REMARK  status: ('A' for Active; 'I' for Inactive)
REMARK    1  A    between atoms: C4_4  and  N1_5 
REMARK       I    between atoms: N1_5  and  C5_6 
REMARK    2  A    between atoms: C5_6  and  C6_8 
REMARK    3  A    between atoms: C9_11  and  N2_12 
REMARK    4  A    between atoms: N2_12  and  C10_13 
REMARK    5  A    between atoms: N2_12  and  C12_16 
REMARK    6  A    between atoms: C10_13  and  C11_14 
REMARK    7  A    between atoms: C12_16  and  C13_17 
ROOT
HETATM    1  C6  UNL     1      23.170  -0.496  53.748  1.00  0.00     0.032 A 
HETATM    2  C7  UNL     1      22.645   0.062  52.605  1.00  0.00     0.019 A 
HETATM    3  C8  UNL     1      21.286   0.013  52.439  1.00  0.00     0.030 A 
HETATM    4  C9  UNL     1      20.375  -0.551  53.315  1.00  0.00     0.030 A 
HETATM    5  C14 UNL     1      21.012  -1.073  54.410  1.00  0.00     0.030 A 
HETATM    6  C15 UNL     1      22.358  -1.079  54.681  1.00  0.00     0.019 A 
ENDROOT
BRANCH   1   7
HETATM    7  C5  UNL     1      24.599  -0.525  54.039  1.00  0.00     0.256 C 
HETATM    8  N1  UNL     1      25.521   0.100  53.161  1.00  0.00    -0.322 N 
HETATM    9  H4  UNL     1      25.245   0.611  52.276  1.00  0.00     0.169 HD
HETATM   10  O1  UNL     1      25.102  -1.081  55.041  1.00  0.00    -0.267 OA
BRANCH   8  11
HETATM   11  C4  UNL     1      26.943   0.176  53.273  1.00  0.00     0.046 C 
HETATM   12  C3  UNL     1      27.930  -0.632  53.019  1.00  0.00     0.010 C 
HETATM   13  C2  UNL     1      29.070  -0.389  53.618  1.00  0.00    -0.049 C 
HETATM   14  C1  UNL     1      30.114  -1.433  53.780  1.00  0.00     0.049 C 
HETATM   15  C17 UNL     1      28.933   1.036  53.987  1.00  0.00     0.010 C 
HETATM   16  C16 UNL     1      27.661   1.366  53.779  1.00  0.00     0.031 C 
ENDBRANCH   8  11
ENDBRANCH   1   7
BRANCH   4  17
HETATM   17  N2  UNL     1      18.991  -0.588  53.016  1.00  0.00    -0.379 N 
BRANCH  17  18
HETATM   18  C10 UNL     1      17.813  -1.280  53.392  1.00  0.00     0.138 C 
BRANCH  18  19
HETATM   19  C11 UNL     1      18.045  -2.729  53.737  1.00  0.00     0.134 C 
HETATM   20 CL1  UNL     1      16.597  -3.642  53.279  1.00  0.00    -0.129 Cl
ENDBRANCH  18  19
ENDBRANCH  17  18
BRANCH  17  21
HETATM   21  C12 UNL     1      18.605   0.316  51.945  1.00  0.00     0.138 C 
BRANCH  21  22
HETATM   22  C13 UNL     1      17.222   0.226  51.446  1.00  0.00     0.134 C 
HETATM   23 CL2  UNL     1      16.891  -0.437  49.882  1.00  0.00    -0.129 Cl
ENDBRANCH  21  22
ENDBRANCH  17  21
ENDBRANCH   4  17
TORSDOF 7
ENDMDL
MODEL 2
REMARK VINA RESULT:      -7.2      0.756      2.461
REMARK  7 active torsions:
REMARK  status: ('A' for Active; 'I' for Inactive)
REMARK    1  A    between atoms: C4_4  and  N1_5 
REMARK       I    between atoms: N1_5  and  C5_6 
REMARK    2  A    between atoms: C5_6  and  C6_8 
REMARK    3  A    between atoms: C9_11  and  N2_12 
REMARK    4  A    between atoms: N2_12  and  C10_13 
REMARK    5  A    between atoms: N2_12  and  C12_16 
REMARK    6  A    between atoms: C10_13  and  C11_14 
REMARK    7  A    between atoms: C12_16  and  C13_17 
ROOT
HETATM    1  C6  UNL     1      23.161  -0.605  53.786  1.00  0.00     0.032 A 
HETATM    2  C7  UNL     1      22.246  -1.267  54.572  1.00  0.00     0.019 A 
HETATM    3  C8  UNL     1      20.933  -1.239  54.182  1.00  0.00     0.030 A 
HETATM    4  C9  UNL     1      20.427  -0.602  53.063  1.00  0.00     0.030 A 
HETATM    5  C14 UNL     1      21.427   0.020  52.362  1.00  0.00     0.030 A 
HETATM    6  C15 UNL     1      22.766   0.057  52.657  1.00  0.00     0.019 A 
ENDROOT
BRANCH   1   7
HETATM    7  C5  UNL     1      24.585  -0.543  54.097  1.00  0.00     0.256 C 
HETATM    8  N1  UNL     1      25.491   0.057  53.184  1.00  0.00    -0.322 N 
HETATM    9  H4  UNL     1      25.206   0.485  52.259  1.00  0.00     0.169 HD
HETATM   10  O1  UNL     1      25.097  -0.995  55.145  1.00  0.00    -0.267 OA
BRANCH   8  11
HETATM   11  C4  UNL     1      26.905   0.210  53.309  1.00  0.00     0.046 C 
HETATM   12  C3  UNL     1      27.938  -0.536  53.046  1.00  0.00     0.010 C 
HETATM   13  C2  UNL     1      29.059  -0.243  53.657  1.00  0.00    -0.049 C 
HETATM   14  C1  UNL     1      30.158  -1.230  53.807  1.00  0.00     0.049 C 
HETATM   15  C17 UNL     1      28.840   1.165  54.055  1.00  0.00     0.010 C 
HETATM   16  C16 UNL     1      27.553   1.427  53.844  1.00  0.00     0.031 C 
ENDBRANCH   8  11
ENDBRANCH   1   7
BRANCH   4  17
HETATM   17  N2  UNL     1      19.038  -0.598  52.783  1.00  0.00    -0.379 N 
BRANCH  17  18
HETATM   18  C10 UNL     1      18.107  -0.007  51.893  1.00  0.00     0.138 C 
BRANCH  18  19
HETATM   19  C11 UNL     1      18.456   1.405  51.500  1.00  0.00     0.134 C 
HETATM   20 CL1  UNL     1      19.133   1.370  49.863  1.00  0.00    -0.129 Cl
ENDBRANCH  18  19
ENDBRANCH  17  18
BRANCH  17  21
HETATM   21  C12 UNL     1      18.257  -1.398  53.713  1.00  0.00     0.138 C 
BRANCH  21  22
HETATM   22  C13 UNL     1      17.232  -2.291  53.146  1.00  0.00     0.134 C 
HETATM   23 CL2  UNL     1      17.147  -3.951  53.625  1.00  0.00    -0.129 Cl
ENDBRANCH  21  22
ENDBRANCH  17  21
ENDBRANCH   4  17
TORSDOF 7
ENDMDL
MODEL 3
REMARK VINA RESULT:      -6.9      8.405     11.059
REMARK  7 active torsions:
REMARK  status: ('A' for Active; 'I' for Inactive)
REMARK    1  A    between atoms: C4_4  and  N1_5 
REMARK       I    between atoms: N1_5  and  C5_6 
REMARK    2  A    between atoms: C5_6  and  C6_8 
REMARK    3  A    between atoms: C9_11  and  N2_12 
REMARK    4  A    between atoms: N2_12  and  C10_13 
REMARK    5  A    between atoms: N2_12  and  C12_16 
REMARK    6  A    between atoms: C10_13  and  C11_14 
REMARK    7  A    between atoms: C12_16  and  C13_17 
ROOT
HETATM    1  C6  UNL     1      26.646   5.005  49.054  1.00  0.00     0.032 A 
HETATM    2  C7  UNL     1      25.883   6.124  48.811  1.00  0.00     0.019 A 
HETATM    3  C8  UNL     1      26.484   7.177  48.174  1.00  0.00     0.030 A 
HETATM    4  C9  UNL     1      27.799   7.230  47.745  1.00  0.00     0.030 A 
HETATM    5  C14 UNL     1      28.456   6.064  48.042  1.00  0.00     0.030 A 
HETATM    6  C15 UNL     1      27.957   4.952  48.671  1.00  0.00     0.019 A 
ENDROOT
BRANCH   1   7
HETATM    7  C5  UNL     1      26.133   3.822  49.739  1.00  0.00     0.256 C 
HETATM    8  N1  UNL     1      26.731   3.379  50.947  1.00  0.00    -0.322 N 
HETATM    9  H4  UNL     1      27.551   3.858  51.414  1.00  0.00     0.169 HD
HETATM   10  O1  UNL     1      25.170   3.136  49.332  1.00  0.00    -0.267 OA
BRANCH   8  11
HETATM   11  C4  UNL     1      26.376   2.255  51.753  1.00  0.00     0.046 C 
HETATM   12  C3  UNL     1      26.942   1.124  52.055  1.00  0.00     0.010 C 
HETATM   13  C2  UNL     1      26.164   0.163  52.489  1.00  0.00    -0.049 C 
HETATM   14  C1  UNL     1      26.571  -1.264  52.444  1.00  0.00     0.049 C 
HETATM   15  C17 UNL     1      24.971   0.909  52.946  1.00  0.00     0.010 C 
HETATM   16  C16 UNL     1      25.105   2.156  52.504  1.00  0.00     0.031 C 
ENDBRANCH   8  11
ENDBRANCH   1   7
BRANCH   4  17
HETATM   17  N2  UNL     1      28.329   8.395  47.138  1.00  0.00    -0.379 N 
BRANCH  17  18
HETATM   18  C10 UNL     1      28.632   9.744  47.448  1.00  0.00     0.138 C 
BRANCH  18  19
HETATM   19  C11 UNL     1      28.994   9.968  48.894  1.00  0.00     0.134 C 
HETATM   20 CL1  UNL     1      30.486   9.073  49.231  1.00  0.00    -0.129 Cl
ENDBRANCH  18  19
ENDBRANCH  17  18
BRANCH  17  21
HETATM   21  C12 UNL     1      28.626   8.228  45.724  1.00  0.00     0.138 C 
BRANCH  21  22
HETATM   22  C13 UNL     1      30.039   8.304  45.313  1.00  0.00     0.134 C 
HETATM   23 CL2  UNL     1      31.242   7.355  46.118  1.00  0.00    -0.129 Cl
ENDBRANCH  21  22
ENDBRANCH  17  21
ENDBRANCH   4  17
TORSDOF 7
ENDMDL
MODEL 4
REMARK VINA RESULT:      -6.7      8.314     11.008
REMARK  7 active torsions:
REMARK  status: ('A' for Active; 'I' for Inactive)
REMARK    1  A    between atoms: C4_4  and  N1_5 
REMARK       I    between atoms: N1_5  and  C5_6 
REMARK    2  A    between atoms: C5_6  and  C6_8 
REMARK    3  A    between atoms: C9_11  and  N2_12 
REMARK    4  A    between atoms: N2_12  and  C10_13 
REMARK    5  A    between atoms: N2_12  and  C12_16 
REMARK    6  A    between atoms: C10_13  and  C11_14 
REMARK    7  A    between atoms: C12_16  and  C13_17 
ROOT
HETATM    1  C6  UNL     1      26.753   4.918  49.156  1.00  0.00     0.032 A 
HETATM    2  C7  UNL     1      28.011   4.994  48.603  1.00  0.00     0.019 A 
HETATM    3  C8  UNL     1      28.367   6.168  47.993  1.00  0.00     0.030 A 
HETATM    4  C9  UNL     1      27.578   7.299  47.873  1.00  0.00     0.030 A 
HETATM    5  C14 UNL     1      26.355   7.103  48.458  1.00  0.00     0.030 A 
HETATM    6  C15 UNL     1      25.894   5.979  49.095  1.00  0.00     0.019 A 
ENDROOT
BRANCH   1   7
HETATM    7  C5  UNL     1      26.244   3.722  49.820  1.00  0.00     0.256 C 
HETATM    8  N1  UNL     1      26.793   3.303  51.059  1.00  0.00    -0.322 N 
HETATM    9  H4  UNL     1      27.572   3.809  51.565  1.00  0.00     0.169 HD
HETATM   10  O1  UNL     1      25.325   3.004  49.368  1.00  0.00    -0.267 OA
BRANCH   8  11
HETATM   11  C4  UNL     1      26.433   2.171  51.852  1.00  0.00     0.046 C 
HETATM   12  C3  UNL     1      26.970   1.012  52.099  1.00  0.00     0.010 C 
HETATM   13  C2  UNL     1      26.177   0.068  52.544  1.00  0.00    -0.049 C 
HETATM   14  C1  UNL     1      26.530  -1.370  52.445  1.00  0.00     0.049 C 
HETATM   15  C17 UNL     1      25.034   0.843  53.073  1.00  0.00     0.010 C 
HETATM   16  C16 UNL     1      25.193   2.096  52.656  1.00  0.00     0.031 C 
ENDBRANCH   8  11
ENDBRANCH   1   7
BRANCH   4  17
HETATM   17  N2  UNL     1      28.034   8.444  47.175  1.00  0.00    -0.379 N 
BRANCH  17  18
HETATM   18  C10 UNL     1      28.458   8.834  45.880  1.00  0.00     0.138 C 
BRANCH  18  19
HETATM   19  C11 UNL     1      29.920   9.192  45.803  1.00  0.00     0.134 C 
HETATM   20 CL1  UNL     1      30.859   7.692  45.886  1.00  0.00    -0.129 Cl
ENDBRANCH  18  19
ENDBRANCH  17  18
BRANCH  17  21
HETATM   21  C12 UNL     1      28.191   9.616  48.023  1.00  0.00     0.138 C 
BRANCH  21  22
HETATM   22  C13 UNL     1      28.927   9.444  49.287  1.00  0.00     0.134 C 
HETATM   23 CL2  UNL     1      30.547   8.834  49.287  1.00  0.00    -0.129 Cl
ENDBRANCH  21  22
ENDBRANCH  17  21
ENDBRANCH   4  17
TORSDOF 7
ENDMDL
MODEL 5
REMARK VINA RESULT:      -6.7      6.260      7.772
REMARK  7 active torsions:
REMARK  status: ('A' for Active; 'I' for Inactive)
REMARK    1  A    between atoms: C4_4  and  N1_5 
REMARK       I    between atoms: N1_5  and  C5_6 
REMARK    2  A    between atoms: C5_6  and  C6_8 
REMARK    3  A    between atoms: C9_11  and  N2_12 
REMARK    4  A    between atoms: N2_12  and  C10_13 
REMARK    5  A    between atoms: N2_12  and  C12_16 
REMARK    6  A    between atoms: C10_13  and  C11_14 
REMARK    7  A    between atoms: C12_16  and  C13_17 
ROOT
HETATM    1  C6  UNL     1      25.697   3.527  50.339  1.00  0.00     0.032 A 
HETATM    2  C7  UNL     1      26.629   2.604  50.753  1.00  0.00     0.019 A 
HETATM    3  C8  UNL     1      26.212   1.616  51.605  1.00  0.00     0.030 A 
HETATM    4  C9  UNL     1      24.930   1.451  52.100  1.00  0.00     0.030 A 
HETATM    5  C14 UNL     1      24.094   2.425  51.620  1.00  0.00     0.030 A 
HETATM    6  C15 UNL     1      24.400   3.455  50.767  1.00  0.00     0.019 A 
ENDROOT
BRANCH   1   7
HETATM    7  C5  UNL     1      26.013   4.638  49.446  1.00  0.00     0.256 C 
HETATM    8  N1  UNL     1      27.355   5.071  49.292  1.00  0.00    -0.322 N 
HETATM    9  H4  UNL     1      28.181   4.634  49.789  1.00  0.00     0.169 HD
HETATM   10  O1  UNL     1      25.164   5.267  48.778  1.00  0.00    -0.267 OA
BRANCH   8  11
HETATM   11  C4  UNL     1      27.857   6.129  48.475  1.00  0.00     0.046 C 
HETATM   12  C3  UNL     1      27.355   7.215  47.963  1.00  0.00     0.010 C 
HETATM   13  C2  UNL     1      27.983   7.740  46.940  1.00  0.00    -0.049 C 
HETATM   14  C1  UNL     1      27.316   8.675  46.000  1.00  0.00     0.049 C 
HETATM   15  C17 UNL     1      29.335   7.153  47.068  1.00  0.00     0.010 C 
HETATM   16  C16 UNL     1      29.252   6.194  47.985  1.00  0.00     0.031 C 
ENDBRANCH   8  11
ENDBRANCH   1   7
BRANCH   4  17
HETATM   17  N2  UNL     1      24.622   0.417  53.018  1.00  0.00    -0.379 N 
BRANCH  17  18
HETATM   18  C10 UNL     1      25.256  -0.630  53.733  1.00  0.00     0.138 C 
BRANCH  18  19
HETATM   19  C11 UNL     1      25.979  -0.167  54.972  1.00  0.00     0.134 C 
HETATM   20 CL1  UNL     1      27.679   0.100  54.549  1.00  0.00    -0.129 Cl
ENDBRANCH  18  19
ENDBRANCH  17  18
BRANCH  17  21
HETATM   21  C12 UNL     1      23.203   0.312  53.318  1.00  0.00     0.138 C 
BRANCH  21  22
HETATM   22  C13 UNL     1      22.591  -1.026  53.245  1.00  0.00     0.134 C 
HETATM   23 CL2  UNL     1      21.551  -1.589  54.508  1.00  0.00    -0.129 Cl
ENDBRANCH  21  22
ENDBRANCH  17  21
ENDBRANCH   4  17
TORSDOF 7
ENDMDL
MODEL 6
REMARK VINA RESULT:      -6.6      7.425      8.824
REMARK  7 active torsions:
REMARK  status: ('A' for Active; 'I' for Inactive)
REMARK    1  A    between atoms: C4_4  and  N1_5 
REMARK       I    between atoms: N1_5  and  C5_6 
REMARK    2  A    between atoms: C5_6  and  C6_8 
REMARK    3  A    between atoms: C9_11  and  N2_12 
REMARK    4  A    between atoms: N2_12  and  C10_13 
REMARK    5  A    between atoms: N2_12  and  C12_16 
REMARK    6  A    between atoms: C10_13  and  C11_14 
REMARK    7  A    between atoms: C12_16  and  C13_17 
ROOT
HETATM    1  C6  UNL     1      27.269   5.631  48.587  1.00  0.00     0.032 A 
HETATM    2  C7  UNL     1      27.118   4.359  49.090  1.00  0.00     0.019 A 
HETATM    3  C8  UNL     1      25.853   3.953  49.425  1.00  0.00     0.030 A 
HETATM    4  C9  UNL     1      24.696   4.704  49.308  1.00  0.00     0.030 A 
HETATM    5  C14 UNL     1      24.971   5.946  48.800  1.00  0.00     0.030 A 
HETATM    6  C15 UNL     1      26.190   6.456  48.430  1.00  0.00     0.019 A 
ENDROOT
BRANCH   1   7
HETATM    7  C5  UNL     1      28.562   6.192  48.208  1.00  0.00     0.256 C 
HETATM    8  N1  UNL     1      29.710   5.944  49.003  1.00  0.00    -0.322 N 
HETATM    9  H4  UNL     1      29.706   5.359  49.885  1.00  0.00     0.169 HD
HETATM   10  O1  UNL     1      28.750   6.904  47.197  1.00  0.00    -0.267 OA
BRANCH   8  11
HETATM   11  C4  UNL     1      31.047   6.403  48.799  1.00  0.00     0.046 C 
HETATM   12  C3  UNL     1      32.147   5.866  48.358  1.00  0.00     0.010 C 
HETATM   13  C2  UNL     1      33.271   6.454  48.685  1.00  0.00    -0.049 C 
HETATM   14  C1  UNL     1      34.574   5.743  48.646  1.00  0.00     0.049 C 
HETATM   15  C17 UNL     1      32.821   7.820  49.033  1.00  0.00     0.010 C 
HETATM   16  C16 UNL     1      31.494   7.781  49.099  1.00  0.00     0.031 C 
ENDBRANCH   8  11
ENDBRANCH   1   7
BRANCH   4  17
HETATM   17  N2  UNL     1      23.444   4.197  49.733  1.00  0.00    -0.379 N 
BRANCH  17  18
HETATM   18  C10 UNL     1      22.292   4.601  50.453  1.00  0.00     0.138 C 
BRANCH  18  19
HETATM   19  C11 UNL     1      22.587   5.550  51.587  1.00  0.00     0.134 C 
HETATM   20 CL1  UNL     1      23.532   4.675  52.804  1.00  0.00    -0.129 Cl
ENDBRANCH  18  19
ENDBRANCH  17  18
BRANCH  17  21
HETATM   21  C12 UNL     1      23.242   2.796  49.399  1.00  0.00     0.138 C 
BRANCH  21  22
HETATM   22  C13 UNL     1      22.901   1.878  50.501  1.00  0.00     0.134 C 
HETATM   23 CL2  UNL     1      24.103   1.397  51.649  1.00  0.00    -0.129 Cl
ENDBRANCH  21  22
ENDBRANCH  17  21
ENDBRANCH   4  17
TORSDOF 7
ENDMDL
MODEL 7
REMARK VINA RESULT:      -6.6      7.248      8.647
REMARK  7 active torsions:
REMARK  status: ('A' for Active; 'I' for Inactive)
REMARK    1  A    between atoms: C4_4  and  N1_5 
REMARK       I    between atoms: N1_5  and  C5_6 
REMARK    2  A    between atoms: C5_6  and  C6_8 
REMARK    3  A    between atoms: C9_11  and  N2_12 
REMARK    4  A    between atoms: N2_12  and  C10_13 
REMARK    5  A    between atoms: N2_12  and  C12_16 
REMARK    6  A    between atoms: C10_13  and  C11_14 
REMARK    7  A    between atoms: C12_16  and  C13_17 
ROOT
HETATM    1  C6  UNL     1      27.251   5.738  48.580  1.00  0.00     0.032 A 
HETATM    2  C7  UNL     1      26.104   6.495  48.506  1.00  0.00     0.019 A 
HETATM    3  C8  UNL     1      24.929   5.908  48.895  1.00  0.00     0.030 A 
HETATM    4  C9  UNL     1      24.776   4.613  49.359  1.00  0.00     0.030 A 
HETATM    5  C14 UNL     1      25.981   3.961  49.387  1.00  0.00     0.030 A 
HETATM    6  C15 UNL     1      27.212   4.446  49.025  1.00  0.00     0.019 A 
ENDROOT
BRANCH   1   7
HETATM    7  C5  UNL     1      28.563   6.237  48.181  1.00  0.00     0.256 C 
HETATM    8  N1  UNL     1      29.702   5.978  48.988  1.00  0.00    -0.322 N 
HETATM    9  H4  UNL     1      29.676   5.427  49.891  1.00  0.00     0.169 HD
HETATM   10  O1  UNL     1      28.778   6.902  47.144  1.00  0.00    -0.267 OA
BRANCH   8  11
HETATM   11  C4  UNL     1      31.054   6.379  48.768  1.00  0.00     0.046 C 
HETATM   12  C3  UNL     1      32.133   5.787  48.347  1.00  0.00     0.010 C 
HETATM   13  C2  UNL     1      33.279   6.343  48.653  1.00  0.00    -0.049 C 
HETATM   14  C1  UNL     1      34.554   5.583  48.639  1.00  0.00     0.049 C 
HETATM   15  C17 UNL     1      32.881   7.736  48.955  1.00  0.00     0.010 C 
HETATM   16  C16 UNL     1      31.553   7.749  49.022  1.00  0.00     0.031 C 
ENDBRANCH   8  11
ENDBRANCH   1   7
BRANCH   4  17
HETATM   17  N2  UNL     1      23.500   4.094  49.688  1.00  0.00    -0.379 N 
BRANCH  17  18
HETATM   18  C10 UNL     1      22.340   3.573  49.060  1.00  0.00     0.138 C 
BRANCH  18  19
HETATM   19  C11 UNL     1      22.618   2.410  48.143  1.00  0.00     0.134 C 
HETATM   20 CL1  UNL     1      21.571   1.065  48.628  1.00  0.00    -0.129 Cl
ENDBRANCH  18  19
ENDBRANCH  17  18
BRANCH  17  21
HETATM   21  C12 UNL     1      23.206   4.136  51.111  1.00  0.00     0.138 C 
BRANCH  21  22
HETATM   22  C13 UNL     1      23.069   2.848  51.813  1.00  0.00     0.134 C 
HETATM   23 CL2  UNL     1      24.161   1.546  51.486  1.00  0.00    -0.129 Cl
ENDBRANCH  21  22
ENDBRANCH  17  21
ENDBRANCH   4  17
TORSDOF 7
ENDMDL
MODEL 8
REMARK VINA RESULT:      -6.4      4.039      8.800
REMARK  7 active torsions:
REMARK  status: ('A' for Active; 'I' for Inactive)
REMARK    1  A    between atoms: C4_4  and  N1_5 
REMARK       I    between atoms: N1_5  and  C5_6 
REMARK    2  A    between atoms: C5_6  and  C6_8 
REMARK    3  A    between atoms: C9_11  and  N2_12 
REMARK    4  A    between atoms: N2_12  and  C10_13 
REMARK    5  A    between atoms: N2_12  and  C12_16 
REMARK    6  A    between atoms: C10_13  and  C11_14 
REMARK    7  A    between atoms: C12_16  and  C13_17 
ROOT
HETATM    1  C6  UNL     1      21.925   0.866  52.938  1.00  0.00     0.032 A 
HETATM    2  C7  UNL     1      22.817   1.869  52.636  1.00  0.00     0.019 A 
HETATM    3  C8  UNL     1      24.139   1.653  52.924  1.00  0.00     0.030 A 
HETATM    4  C9  UNL     1      24.675   0.513  53.497  1.00  0.00     0.030 A 
HETATM    5  C14 UNL     1      23.695  -0.410  53.753  1.00  0.00     0.030 A 
HETATM    6  C15 UNL     1      22.349  -0.303  53.507  1.00  0.00     0.019 A 
ENDROOT
BRANCH   1   7
HETATM    7  C5  UNL     1      20.490   0.974  52.699  1.00  0.00     0.256 C 
HETATM    8  N1  UNL     1      19.770  -0.122  52.158  1.00  0.00    -0.322 N 
HETATM    9  H4  UNL     1      20.206  -1.052  51.906  1.00  0.00     0.169 HD
HETATM   10  O1  UNL     1      19.812   1.997  52.940  1.00  0.00    -0.267 OA
BRANCH   8  11
HETATM   11  C4  UNL     1      18.377  -0.206  51.854  1.00  0.00     0.046 C 
HETATM   12  C3  UNL     1      17.328  -0.676  52.464  1.00  0.00     0.010 C 
HETATM   13  C2  UNL     1      16.281  -0.951  51.727  1.00  0.00    -0.049 C 
HETATM   14  C1  UNL     1      15.215  -1.878  52.184  1.00  0.00     0.049 C 
HETATM   15  C17 UNL     1      16.530  -0.141  50.514  1.00  0.00     0.010 C 
HETATM   16  C16 UNL     1      17.782   0.300  50.597  1.00  0.00     0.031 C 
ENDBRANCH   8  11
ENDBRANCH   1   7
BRANCH   4  17
HETATM   17  N2  UNL     1      26.056   0.418  53.796  1.00  0.00    -0.379 N 
BRANCH  17  18
HETATM   18  C10 UNL     1      26.927   0.327  54.911  1.00  0.00     0.138 C 
BRANCH  18  19
HETATM   19  C11 UNL     1      28.332   0.790  54.623  1.00  0.00     0.134 C 
HETATM   20 CL1  UNL     1      29.347  -0.645  54.396  1.00  0.00    -0.129 Cl
ENDBRANCH  18  19
ENDBRANCH  17  18
BRANCH  17  21
HETATM   21  C12 UNL     1      26.910   0.488  52.621  1.00  0.00     0.138 C 
BRANCH  21  22
HETATM   22  C13 UNL     1      26.900  -0.667  51.706  1.00  0.00     0.134 C 
HETATM   23 CL2  UNL     1      26.769  -2.278  52.324  1.00  0.00    -0.129 Cl
ENDBRANCH  21  22
ENDBRANCH  17  21
ENDBRANCH   4  17
TORSDOF 7
ENDMDL
MODEL 9
REMARK VINA RESULT:      -6.3      7.667      9.048
REMARK  7 active torsions:
REMARK  status: ('A' for Active; 'I' for Inactive)
REMARK    1  A    between atoms: C4_4  and  N1_5 
REMARK       I    between atoms: N1_5  and  C5_6 
REMARK    2  A    between atoms: C5_6  and  C6_8 
REMARK    3  A    between atoms: C9_11  and  N2_12 
REMARK    4  A    between atoms: N2_12  and  C10_13 
REMARK    5  A    between atoms: N2_12  and  C12_16 
REMARK    6  A    between atoms: C10_13  and  C11_14 
REMARK    7  A    between atoms: C12_16  and  C13_17 
ROOT
HETATM    1  C6  UNL     1      26.875   5.668  48.795  1.00  0.00     0.032 A 
HETATM    2  C7  UNL     1      27.219   4.358  49.038  1.00  0.00     0.019 A 
HETATM    3  C8  UNL     1      26.247   3.526  49.529  1.00  0.00     0.030 A 
HETATM    4  C9  UNL     1      24.937   3.874  49.808  1.00  0.00     0.030 A 
HETATM    5  C14 UNL     1      24.715   5.197  49.527  1.00  0.00     0.030 A 
HETATM    6  C15 UNL     1      25.607   6.117  49.036  1.00  0.00     0.019 A 
ENDROOT
BRANCH   1   7
HETATM    7  C5  UNL     1      27.818   6.660  48.289  1.00  0.00     0.256 C 
HETATM    8  N1  UNL     1      29.062   6.862  48.940  1.00  0.00    -0.322 N 
HETATM    9  H4  UNL     1      29.377   6.326  49.797  1.00  0.00     0.169 HD
HETATM   10  O1  UNL     1      27.611   7.380  47.288  1.00  0.00    -0.267 OA
BRANCH   8  11
HETATM   11  C4  UNL     1      30.103   7.778  48.600  1.00  0.00     0.046 C 
HETATM   12  C3  UNL     1      30.409   8.994  48.946  1.00  0.00     0.010 C 
HETATM   13  C2  UNL     1      31.193   9.666  48.139  1.00  0.00    -0.049 C 
HETATM   14  C1  UNL     1      31.261  11.149  48.160  1.00  0.00     0.049 C 
HETATM   15  C17 UNL     1      31.844   8.587  47.365  1.00  0.00     0.010 C 
HETATM   16  C16 UNL     1      31.189   7.464  47.645  1.00  0.00     0.031 C 
ENDBRANCH   8  11
ENDBRANCH   1   7
BRANCH   4  17
HETATM   17  N2  UNL     1      24.028   2.939  50.360  1.00  0.00    -0.379 N 
BRANCH  17  18
HETATM   18  C10 UNL     1      24.018   1.783  51.181  1.00  0.00     0.138 C 
BRANCH  18  19
HETATM   19  C11 UNL     1      23.443   2.020  52.554  1.00  0.00     0.134 C 
HETATM   20 CL1  UNL     1      24.507   3.151  53.408  1.00  0.00    -0.129 Cl
ENDBRANCH  18  19
ENDBRANCH  17  18
BRANCH  17  21
HETATM   21  C12 UNL     1      22.652   3.149  49.938  1.00  0.00     0.138 C 
BRANCH  21  22
HETATM   22  C13 UNL     1      22.064   2.154  49.024  1.00  0.00     0.134 C 
HETATM   23 CL2  UNL     1      22.610   2.034  47.386  1.00  0.00    -0.129 Cl
ENDBRANCH  21  22
ENDBRANCH  17  21
ENDBRANCH   4  17
TORSDOF 7
ENDMDL
