MODEL 1
REMARK VINA RESULT:      -7.8      0.000      0.000
REMARK  5 active torsions:
REMARK  status: ('A' for Active; 'I' for Inactive)
REMARK    1  A    between atoms: C1_2  and  C2_3 
REMARK    2  A    between atoms: C2_3  and  C3_4 
REMARK    3  A    between atoms: C3_4  and  C4_5 
REMARK    4  A    between atoms: C8_9  and  N1_10 
REMARK    5  A    between atoms: N1_10  and  C9_11 
ROOT
HETATM    1  C4  UNL     1      18.948  -0.648  52.804  1.00  0.00    -0.073 A 
HETATM    2  C5  UNL     1      20.002  -0.570  53.634  1.00  0.00     0.016 A 
HETATM    3  C6  UNL     1      21.023   0.265  53.012  1.00  0.00    -0.009 A 
HETATM    4  C7  UNL     1      22.274   0.689  53.371  1.00  0.00     0.044 A 
HETATM    5  C8  UNL     1      23.101   1.496  52.618  1.00  0.00     0.051 A 
HETATM    6  C15 UNL     1      22.544   1.865  51.408  1.00  0.00     0.146 A 
HETATM    7  N2  UNL     1      21.320   1.468  51.024  1.00  0.00    -0.262 NA
HETATM    8  C16 UNL     1      20.540   0.679  51.788  1.00  0.00     0.048 A 
HETATM    9  C17 UNL     1      19.176   0.130  51.566  1.00  0.00     0.094 A 
ENDROOT
BRANCH   5  10
HETATM   10  N1  UNL     1      24.389   1.926  52.955  1.00  0.00    -0.355 N 
HETATM   11  H9  UNL     1      24.466   2.957  53.216  1.00  0.00     0.166 HD
BRANCH  10  12
HETATM   12  C9  UNL     1      25.632   1.269  53.026  1.00  0.00     0.034 A 
HETATM   13  C10 UNL     1      25.834   0.005  52.515  1.00  0.00     0.032 A 
HETATM   14  C11 UNL     1      27.034  -0.661  52.587  1.00  0.00     0.046 A 
HETATM   15  C12 UNL     1      28.128  -0.087  53.189  1.00  0.00     0.138 A 
HETATM   16  F2  UNL     1      29.267  -0.817  53.213  1.00  0.00    -0.204 F 
HETATM   17  C13 UNL     1      27.983   1.179  53.718  1.00  0.00     0.074 A 
HETATM   18 CL1  UNL     1      29.375   1.913  54.485  1.00  0.00    -0.081 Cl
HETATM   19  C14 UNL     1      26.753   1.793  53.613  1.00  0.00     0.056 A 
ENDBRANCH  10  12
ENDBRANCH   5  10
BRANCH   1  20
HETATM   20  C3  UNL     1      17.702  -1.385  53.033  1.00  0.00     0.037 C 
BRANCH  20  21
HETATM   21  C2  UNL     1      17.879  -2.648  53.809  1.00  0.00     0.035 C 
BRANCH  21  22
HETATM   22  C1  UNL     1      16.907  -3.711  53.382  1.00  0.00     0.222 C 
HETATM   23  F1  UNL     1      17.495  -4.917  53.081  1.00  0.00    -0.255 F 
ENDBRANCH  21  22
ENDBRANCH  20  21
ENDBRANCH   1  20
TORSDOF 5
ENDMDL
MODEL 2
REMARK VINA RESULT:      -7.8      3.126      8.435
REMARK  5 active torsions:
REMARK  status: ('A' for Active; 'I' for Inactive)
REMARK    1  A    between atoms: C1_2  and  C2_3 
REMARK    2  A    between atoms: C2_3  and  C3_4 
REMARK    3  A    between atoms: C3_4  and  C4_5 
REMARK    4  A    between atoms: C8_9  and  N1_10 
REMARK    5  A    between atoms: N1_10  and  C9_11 
ROOT
HETATM    1  C4  UNL     1      26.951  -0.579  52.954  1.00  0.00    -0.073 A 
HETATM    2  C5  UNL     1      25.824  -0.875  53.624  1.00  0.00     0.016 A 
HETATM    3  C6  UNL     1      24.752  -0.017  53.132  1.00  0.00    -0.009 A 
HETATM    4  C7  UNL     1      23.425   0.135  53.428  1.00  0.00     0.044 A 
HETATM    5  C8  UNL     1      22.561   1.030  52.832  1.00  0.00     0.051 A 
HETATM    6  C15 UNL     1      23.168   1.806  51.862  1.00  0.00     0.146 A 
HETATM    7  N2  UNL     1      24.467   1.684  51.546  1.00  0.00    -0.262 NA
HETATM    8  C16 UNL     1      25.281   0.796  52.151  1.00  0.00     0.048 A 
HETATM    9  C17 UNL     1      26.724   0.494  51.961  1.00  0.00     0.094 A 
ENDROOT
BRANCH   5  10
HETATM   10  N1  UNL     1      21.206   1.217  53.130  1.00  0.00    -0.355 N 
HETATM   11  H9  UNL     1      20.997   2.031  53.785  1.00  0.00     0.166 HD
BRANCH  10  12
HETATM   12  C9  UNL     1      20.036   0.541  52.737  1.00  0.00     0.034 A 
HETATM   13  C10 UNL     1      19.259   0.957  51.676  1.00  0.00     0.032 A 
HETATM   14  C11 UNL     1      18.105   0.322  51.285  1.00  0.00     0.046 A 
HETATM   15  C12 UNL     1      17.650  -0.793  51.948  1.00  0.00     0.138 A 
HETATM   16  F2  UNL     1      16.504  -1.351  51.492  1.00  0.00    -0.204 F 
HETATM   17  C13 UNL     1      18.388  -1.253  53.018  1.00  0.00     0.074 A 
HETATM   18 CL1  UNL     1      17.810  -2.673  53.865  1.00  0.00    -0.081 Cl
HETATM   19  C14 UNL     1      19.537  -0.571  53.361  1.00  0.00     0.056 A 
ENDBRANCH  10  12
ENDBRANCH   5  10
BRANCH   1  20
HETATM   20  C3  UNL     1      28.266  -1.200  53.131  1.00  0.00     0.037 C 
BRANCH  20  21
HETATM   21  C2  UNL     1      29.340  -0.244  53.532  1.00  0.00     0.035 C 
BRANCH  21  22
HETATM   22  C1  UNL     1      28.942   0.583  54.721  1.00  0.00     0.222 C 
HETATM   23  F1  UNL     1      29.247   1.918  54.602  1.00  0.00    -0.255 F 
ENDBRANCH  21  22
ENDBRANCH  20  21
ENDBRANCH   1  20
TORSDOF 5
ENDMDL
MODEL 3
REMARK VINA RESULT:      -7.6      5.187      9.107
REMARK  5 active torsions:
REMARK  status: ('A' for Active; 'I' for Inactive)
REMARK    1  A    between atoms: C1_2  and  C2_3 
REMARK    2  A    between atoms: C2_3  and  C3_4 
REMARK    3  A    between atoms: C3_4  and  C4_5 
REMARK    4  A    between atoms: C8_9  and  N1_10 
REMARK    5  A    between atoms: N1_10  and  C9_11 
ROOT
HETATM    1  C4  UNL     1      27.916   5.986  48.344  1.00  0.00    -0.073 A 
HETATM    2  C5  UNL     1      27.803   4.683  48.652  1.00  0.00     0.016 A 
HETATM    3  C6  UNL     1      26.480   4.451  49.219  1.00  0.00    -0.009 A 
HETATM    4  C7  UNL     1      25.815   3.358  49.703  1.00  0.00     0.044 A 
HETATM    5  C8  UNL     1      24.533   3.351  50.210  1.00  0.00     0.051 A 
HETATM    6  C15 UNL     1      23.936   4.597  50.193  1.00  0.00     0.146 A 
HETATM    7  N2  UNL     1      24.557   5.690  49.725  1.00  0.00    -0.262 NA
HETATM    8  C16 UNL     1      25.813   5.659  49.236  1.00  0.00     0.048 A 
HETATM    9  C17 UNL     1      26.678   6.729  48.674  1.00  0.00     0.094 A 
ENDROOT
BRANCH   5  10
HETATM   10  N1  UNL     1      23.840   2.250  50.728  1.00  0.00    -0.355 N 
HETATM   11  H9  UNL     1      22.927   2.017  50.230  1.00  0.00     0.166 HD
BRANCH  10  12
HETATM   12  C9  UNL     1      24.102   1.366  51.792  1.00  0.00     0.034 A 
HETATM   13  C10 UNL     1      25.379   0.983  52.142  1.00  0.00     0.032 A 
HETATM   14  C11 UNL     1      25.657   0.109  53.165  1.00  0.00     0.046 A 
HETATM   15  C12 UNL     1      24.648  -0.446  53.917  1.00  0.00     0.138 A 
HETATM   16  F2  UNL     1      25.016  -1.295  54.904  1.00  0.00    -0.204 F 
HETATM   17  C13 UNL     1      23.349  -0.098  53.610  1.00  0.00     0.074 A 
HETATM   18 CL1  UNL     1      22.062  -0.804  54.564  1.00  0.00    -0.081 Cl
HETATM   19  C14 UNL     1      23.137   0.784  52.571  1.00  0.00     0.056 A 
ENDBRANCH  10  12
ENDBRANCH   5  10
BRANCH   1  20
HETATM   20  C3  UNL     1      29.079   6.652  47.752  1.00  0.00     0.037 C 
BRANCH  20  21
HETATM   21  C2  UNL     1      30.377   6.288  48.393  1.00  0.00     0.035 C 
BRANCH  21  22
HETATM   22  C1  UNL     1      31.248   5.476  47.478  1.00  0.00     0.222 C 
HETATM   23  F1  UNL     1      30.885   4.152  47.388  1.00  0.00    -0.255 F 
ENDBRANCH  21  22
ENDBRANCH  20  21
ENDBRANCH   1  20
TORSDOF 5
ENDMDL
MODEL 4
REMARK VINA RESULT:      -7.5      3.473      8.723
REMARK  5 active torsions:
REMARK  status: ('A' for Active; 'I' for Inactive)
REMARK    1  A    between atoms: C1_2  and  C2_3 
REMARK    2  A    between atoms: C2_3  and  C3_4 
REMARK    3  A    between atoms: C3_4  and  C4_5 
REMARK    4  A    between atoms: C8_9  and  N1_10 
REMARK    5  A    between atoms: N1_10  and  C9_11 
ROOT
HETATM    1  C4  UNL     1      25.446   0.450  52.535  1.00  0.00    -0.073 A 
HETATM    2  C5  UNL     1      24.773  -0.447  53.277  1.00  0.00     0.016 A 
HETATM    3  C6  UNL     1      23.351  -0.128  53.219  1.00  0.00    -0.009 A 
HETATM    4  C7  UNL     1      22.217  -0.670  53.759  1.00  0.00     0.044 A 
HETATM    5  C8  UNL     1      20.933  -0.202  53.578  1.00  0.00     0.051 A 
HETATM    6  C15 UNL     1      20.871   0.915  52.766  1.00  0.00     0.146 A 
HETATM    7  N2  UNL     1      21.963   1.473  52.219  1.00  0.00    -0.262 NA
HETATM    8  C16 UNL     1      23.204   0.987  52.419  1.00  0.00     0.048 A 
HETATM    9  C17 UNL     1      24.530   1.437  51.920  1.00  0.00     0.094 A 
ENDROOT
BRANCH   5  10
HETATM   10  N1  UNL     1      19.761  -0.728  54.134  1.00  0.00    -0.355 N 
HETATM   11  H9  UNL     1      19.714  -0.695  55.199  1.00  0.00     0.166 HD
BRANCH  10  12
HETATM   12  C9  UNL     1      18.605  -1.301  53.572  1.00  0.00     0.034 A 
HETATM   13  C10 UNL     1      17.779  -0.612  52.709  1.00  0.00     0.032 A 
HETATM   14  C11 UNL     1      16.638  -1.146  52.161  1.00  0.00     0.046 A 
HETATM   15  C12 UNL     1      16.247  -2.433  52.451  1.00  0.00     0.138 A 
HETATM   16  F2  UNL     1      15.110  -2.873  51.865  1.00  0.00    -0.204 F 
HETATM   17  C13 UNL     1      17.037  -3.168  53.309  1.00  0.00     0.074 A 
HETATM   18 CL1  UNL     1      16.542  -4.806  53.680  1.00  0.00    -0.081 Cl
HETATM   19  C14 UNL     1      18.169  -2.574  53.826  1.00  0.00     0.056 A 
ENDBRANCH  10  12
ENDBRANCH   5  10
BRANCH   1  20
HETATM   20  C3  UNL     1      26.893   0.502  52.318  1.00  0.00     0.037 C 
BRANCH  20  21
HETATM   21  C2  UNL     1      27.647  -0.597  52.992  1.00  0.00     0.035 C 
BRANCH  21  22
HETATM   22  C1  UNL     1      28.741  -0.069  53.875  1.00  0.00     0.222 C 
HETATM   23  F1  UNL     1      28.500  -0.228  55.220  1.00  0.00    -0.255 F 
ENDBRANCH  21  22
ENDBRANCH  20  21
ENDBRANCH   1  20
TORSDOF 5
ENDMDL
MODEL 5
REMARK VINA RESULT:      -7.5      5.156      9.207
REMARK  5 active torsions:
REMARK  status: ('A' for Active; 'I' for Inactive)
REMARK    1  A    between atoms: C1_2  and  C2_3 
REMARK    2  A    between atoms: C2_3  and  C3_4 
REMARK    3  A    between atoms: C3_4  and  C4_5 
REMARK    4  A    between atoms: C8_9  and  N1_10 
REMARK    5  A    between atoms: N1_10  and  C9_11 
ROOT
HETATM    1  C4  UNL     1      28.311   6.146  48.208  1.00  0.00    -0.073 A 
HETATM    2  C5  UNL     1      28.204   4.859  48.580  1.00  0.00     0.016 A 
HETATM    3  C6  UNL     1      26.859   4.635  49.100  1.00  0.00    -0.009 A 
HETATM    4  C7  UNL     1      26.189   3.558  49.612  1.00  0.00     0.044 A 
HETATM    5  C8  UNL     1      24.886   3.557  50.062  1.00  0.00     0.051 A 
HETATM    6  C15 UNL     1      24.272   4.790  49.952  1.00  0.00     0.146 A 
HETATM    7  N2  UNL     1      24.899   5.867  49.453  1.00  0.00    -0.262 NA
HETATM    8  C16 UNL     1      26.175   5.831  49.022  1.00  0.00     0.048 A 
HETATM    9  C17 UNL     1      27.050   6.884  48.443  1.00  0.00     0.094 A 
ENDROOT
BRANCH   5  10
HETATM   10  N1  UNL     1      24.186   2.474  50.607  1.00  0.00    -0.355 N 
HETATM   11  H9  UNL     1      23.224   2.299  50.182  1.00  0.00     0.166 HD
BRANCH  10  12
HETATM   12  C9  UNL     1      24.492   1.546  51.620  1.00  0.00     0.034 A 
HETATM   13  C10 UNL     1      23.542   1.054  52.489  1.00  0.00     0.032 A 
HETATM   14  C11 UNL     1      23.822   0.161  53.495  1.00  0.00     0.046 A 
HETATM   15  C12 UNL     1      25.100  -0.305  53.694  1.00  0.00     0.138 A 
HETATM   16  F2  UNL     1      25.281  -1.183  54.708  1.00  0.00    -0.204 F 
HETATM   17  C13 UNL     1      26.092   0.154  52.852  1.00  0.00     0.074 A 
HETATM   18 CL1  UNL     1      27.721  -0.437  53.103  1.00  0.00    -0.081 Cl
HETATM   19  C14 UNL     1      25.746   1.050  51.863  1.00  0.00     0.056 A 
ENDBRANCH  10  12
ENDBRANCH   5  10
BRANCH   1  20
HETATM   20  C3  UNL     1      29.491   6.798  47.633  1.00  0.00     0.037 C 
BRANCH  20  21
HETATM   21  C2  UNL     1      30.778   6.400  48.276  1.00  0.00     0.035 C 
BRANCH  21  22
HETATM   22  C1  UNL     1      31.626   5.561  47.364  1.00  0.00     0.222 C 
HETATM   23  F1  UNL     1      31.383   4.210  47.458  1.00  0.00    -0.255 F 
ENDBRANCH  21  22
ENDBRANCH  20  21
ENDBRANCH   1  20
TORSDOF 5
ENDMDL
MODEL 6
REMARK VINA RESULT:      -7.4      3.790      8.798
REMARK  5 active torsions:
REMARK  status: ('A' for Active; 'I' for Inactive)
REMARK    1  A    between atoms: C1_2  and  C2_3 
REMARK    2  A    between atoms: C2_3  and  C3_4 
REMARK    3  A    between atoms: C3_4  and  C4_5 
REMARK    4  A    between atoms: C8_9  and  N1_10 
REMARK    5  A    between atoms: N1_10  and  C9_11 
ROOT
HETATM    1  C4  UNL     1      25.739   0.571  52.777  1.00  0.00    -0.073 A 
HETATM    2  C5  UNL     1      24.526   0.960  52.350  1.00  0.00     0.016 A 
HETATM    3  C6  UNL     1      23.512   0.291  53.158  1.00  0.00    -0.009 A 
HETATM    4  C7  UNL     1      22.144   0.292  53.185  1.00  0.00     0.044 A 
HETATM    5  C8  UNL     1      21.352  -0.433  54.050  1.00  0.00     0.051 A 
HETATM    6  C15 UNL     1      22.081  -1.204  54.935  1.00  0.00     0.146 A 
HETATM    7  N2  UNL     1      23.423  -1.230  54.937  1.00  0.00    -0.262 NA
HETATM    8  C16 UNL     1      24.164  -0.506  54.075  1.00  0.00     0.048 A 
HETATM    9  C17 UNL     1      25.636  -0.383  53.904  1.00  0.00     0.094 A 
ENDROOT
BRANCH   5  10
HETATM   10  N1  UNL     1      19.953  -0.462  54.085  1.00  0.00    -0.355 N 
HETATM   11  H9  UNL     1      19.526  -0.439  55.061  1.00  0.00     0.166 HD
BRANCH  10  12
HETATM   12  C9  UNL     1      18.969  -0.515  53.079  1.00  0.00     0.034 A 
HETATM   13  C10 UNL     1      19.081   0.180  51.894  1.00  0.00     0.032 A 
HETATM   14  C11 UNL     1      18.127   0.156  50.906  1.00  0.00     0.046 A 
HETATM   15  C12 UNL     1      16.976  -0.584  51.049  1.00  0.00     0.138 A 
HETATM   16  F2  UNL     1      16.093  -0.547  50.024  1.00  0.00    -0.204 F 
HETATM   17  C13 UNL     1      16.812  -1.300  52.217  1.00  0.00     0.074 A 
HETATM   18 CL1  UNL     1      15.348  -2.242  52.403  1.00  0.00    -0.081 Cl
HETATM   19  C14 UNL     1      17.807  -1.233  53.170  1.00  0.00     0.056 A 
ENDBRANCH  10  12
ENDBRANCH   5  10
BRANCH   1  20
HETATM   20  C3  UNL     1      27.036   0.999  52.246  1.00  0.00     0.037 C 
BRANCH  20  21
HETATM   21  C2  UNL     1      27.807   1.884  53.168  1.00  0.00     0.035 C 
BRANCH  21  22
HETATM   22  C1  UNL     1      28.988   1.176  53.770  1.00  0.00     0.222 C 
HETATM   23  F1  UNL     1      28.718   0.556  54.968  1.00  0.00    -0.255 F 
ENDBRANCH  21  22
ENDBRANCH  20  21
ENDBRANCH   1  20
TORSDOF 5
ENDMDL
MODEL 7
REMARK VINA RESULT:      -7.2      5.523      7.840
REMARK  5 active torsions:
REMARK  status: ('A' for Active; 'I' for Inactive)
REMARK    1  A    between atoms: C1_2  and  C2_3 
REMARK    2  A    between atoms: C2_3  and  C3_4 
REMARK    3  A    between atoms: C3_4  and  C4_5 
REMARK    4  A    between atoms: C8_9  and  N1_10 
REMARK    5  A    between atoms: N1_10  and  C9_11 
ROOT
HETATM    1  C4  UNL     1      25.762   0.704  52.396  1.00  0.00    -0.073 A 
HETATM    2  C5  UNL     1      26.642   1.245  51.537  1.00  0.00     0.016 A 
HETATM    3  C6  UNL     1      26.069   2.470  50.991  1.00  0.00    -0.009 A 
HETATM    4  C7  UNL     1      26.488   3.417  50.097  1.00  0.00     0.044 A 
HETATM    5  C8  UNL     1      25.774   4.530  49.705  1.00  0.00     0.051 A 
HETATM    6  C15 UNL     1      24.537   4.623  50.314  1.00  0.00     0.146 A 
HETATM    7  N2  UNL     1      24.094   3.714  51.196  1.00  0.00    -0.262 NA
HETATM    8  C16 UNL     1      24.821   2.637  51.556  1.00  0.00     0.048 A 
HETATM    9  C17 UNL     1      24.533   1.524  52.498  1.00  0.00     0.094 A 
ENDROOT
BRANCH   5  10
HETATM   10  N1  UNL     1      26.173   5.501  48.779  1.00  0.00    -0.355 N 
HETATM   11  H9  UNL     1      25.451   5.733  48.031  1.00  0.00     0.166 HD
BRANCH  10  12
HETATM   12  C9  UNL     1      27.353   6.253  48.626  1.00  0.00     0.034 A 
HETATM   13  C10 UNL     1      28.548   5.688  48.236  1.00  0.00     0.032 A 
HETATM   14  C11 UNL     1      29.715   6.400  48.096  1.00  0.00     0.046 A 
HETATM   15  C12 UNL     1      29.755   7.752  48.343  1.00  0.00     0.138 A 
HETATM   16  F2  UNL     1      30.948   8.370  48.179  1.00  0.00    -0.204 F 
HETATM   17  C13 UNL     1      28.586   8.370  48.737  1.00  0.00     0.074 A 
HETATM   18 CL1  UNL     1      28.633  10.091  49.053  1.00  0.00    -0.081 Cl
HETATM   19  C14 UNL     1      27.449   7.599  48.859  1.00  0.00     0.056 A 
ENDBRANCH  10  12
ENDBRANCH   5  10
BRANCH   1  20
HETATM   20  C3  UNL     1      25.931  -0.530  53.168  1.00  0.00     0.037 C 
BRANCH  20  21
HETATM   21  C2  UNL     1      27.148  -1.312  52.801  1.00  0.00     0.035 C 
BRANCH  21  22
HETATM   22  C1  UNL     1      28.326  -0.955  53.662  1.00  0.00     0.222 C 
HETATM   23  F1  UNL     1      28.012  -0.160  54.739  1.00  0.00    -0.255 F 
ENDBRANCH  21  22
ENDBRANCH  20  21
ENDBRANCH   1  20
TORSDOF 5
ENDMDL
MODEL 8
REMARK VINA RESULT:      -7.1      7.703      9.550
REMARK  5 active torsions:
REMARK  status: ('A' for Active; 'I' for Inactive)
REMARK    1  A    between atoms: C1_2  and  C2_3 
REMARK    2  A    between atoms: C2_3  and  C3_4 
REMARK    3  A    between atoms: C3_4  and  C4_5 
REMARK    4  A    between atoms: C8_9  and  N1_10 
REMARK    5  A    between atoms: N1_10  and  C9_11 
ROOT
HETATM    1  C4  UNL     1      25.730   4.642  49.278  1.00  0.00    -0.073 A 
HETATM    2  C5  UNL     1      26.989   4.199  49.121  1.00  0.00     0.016 A 
HETATM    3  C6  UNL     1      27.795   5.277  48.557  1.00  0.00    -0.009 A 
HETATM    4  C7  UNL     1      29.106   5.411  48.189  1.00  0.00     0.044 A 
HETATM    5  C8  UNL     1      29.684   6.545  47.659  1.00  0.00     0.051 A 
HETATM    6  C15 UNL     1      28.795   7.593  47.518  1.00  0.00     0.146 A 
HETATM    7  N2  UNL     1      27.503   7.497  47.869  1.00  0.00    -0.262 NA
HETATM    8  C16 UNL     1      26.972   6.370  48.385  1.00  0.00     0.048 A 
HETATM    9  C17 UNL     1      25.593   6.048  48.836  1.00  0.00     0.094 A 
ENDROOT
BRANCH   5  10
HETATM   10  N1  UNL     1      31.017   6.700  47.258  1.00  0.00    -0.355 N 
HETATM   11  H9  UNL     1      31.253   7.650  46.837  1.00  0.00     0.166 HD
BRANCH  10  12
HETATM   12  C9  UNL     1      32.136   5.846  47.297  1.00  0.00     0.034 A 
HETATM   13  C10 UNL     1      32.277   4.769  46.449  1.00  0.00     0.032 A 
HETATM   14  C11 UNL     1      33.352   3.914  46.479  1.00  0.00     0.046 A 
HETATM   15  C12 UNL     1      34.374   4.092  47.382  1.00  0.00     0.138 A 
HETATM   16  F2  UNL     1      35.391   3.201  47.339  1.00  0.00    -0.204 F 
HETATM   17  C13 UNL     1      34.284   5.156  48.256  1.00  0.00     0.074 A 
HETATM   18 CL1  UNL     1      35.583   5.384  49.407  1.00  0.00    -0.081 Cl
HETATM   19  C14 UNL     1      33.179   5.977  48.174  1.00  0.00     0.056 A 
ENDBRANCH  10  12
ENDBRANCH   5  10
BRANCH   1  20
HETATM   20  C3  UNL     1      24.594   3.887  49.812  1.00  0.00     0.037 C 
BRANCH  20  21
HETATM   21  C2  UNL     1      23.392   3.892  48.927  1.00  0.00     0.035 C 
BRANCH  21  22
HETATM   22  C1  UNL     1      22.786   2.525  48.793  1.00  0.00     0.222 C 
HETATM   23  F1  UNL     1      22.965   1.952  47.555  1.00  0.00    -0.255 F 
ENDBRANCH  21  22
ENDBRANCH  20  21
ENDBRANCH   1  20
TORSDOF 5
ENDMDL
MODEL 9
REMARK VINA RESULT:      -7.1      6.908      8.781
REMARK  5 active torsions:
REMARK  status: ('A' for Active; 'I' for Inactive)
REMARK    1  A    between atoms: C1_2  and  C2_3 
REMARK    2  A    between atoms: C2_3  and  C3_4 
REMARK    3  A    between atoms: C3_4  and  C4_5 
REMARK    4  A    between atoms: C8_9  and  N1_10 
REMARK    5  A    between atoms: N1_10  and  C9_11 
ROOT
HETATM    1  C4  UNL     1      25.190   3.807  49.895  1.00  0.00    -0.073 A 
HETATM    2  C5  UNL     1      26.430   3.419  49.551  1.00  0.00     0.016 A 
HETATM    3  C6  UNL     1      27.153   4.576  49.034  1.00  0.00    -0.009 A 
HETATM    4  C7  UNL     1      28.413   4.786  48.544  1.00  0.00     0.044 A 
HETATM    5  C8  UNL     1      28.914   5.989  48.092  1.00  0.00     0.051 A 
HETATM    6  C15 UNL     1      28.000   7.022  48.174  1.00  0.00     0.146 A 
HETATM    7  N2  UNL     1      26.756   6.852  48.649  1.00  0.00    -0.262 NA
HETATM    8  C16 UNL     1      26.301   5.660  49.083  1.00  0.00     0.048 A 
HETATM    9  C17 UNL     1      24.985   5.251  49.641  1.00  0.00     0.094 A 
ENDROOT
BRANCH   5  10
HETATM   10  N1  UNL     1      30.191   6.224  47.569  1.00  0.00    -0.355 N 
HETATM   11  H9  UNL     1      30.297   7.141  47.036  1.00  0.00     0.166 HD
BRANCH  10  12
HETATM   12  C9  UNL     1      31.391   5.490  47.603  1.00  0.00     0.034 A 
HETATM   13  C10 UNL     1      31.498   4.218  47.082  1.00  0.00     0.032 A 
HETATM   14  C11 UNL     1      32.655   3.477  47.118  1.00  0.00     0.046 A 
HETATM   15  C12 UNL     1      33.800   3.978  47.690  1.00  0.00     0.138 A 
HETATM   16  F2  UNL     1      34.891   3.177  47.679  1.00  0.00    -0.204 F 
HETATM   17  C13 UNL     1      33.750   5.248  48.227  1.00  0.00     0.074 A 
HETATM   18 CL1  UNL     1      35.207   5.888  48.957  1.00  0.00    -0.081 Cl
HETATM   19  C14 UNL     1      32.559   5.939  48.160  1.00  0.00     0.056 A 
ENDBRANCH  10  12
ENDBRANCH   5  10
BRANCH   1  20
HETATM   20  C3  UNL     1      24.130   2.966  50.457  1.00  0.00     0.037 C 
BRANCH  20  21
HETATM   21  C2  UNL     1      24.584   2.083  51.572  1.00  0.00     0.035 C 
BRANCH  21  22
HETATM   22  C1  UNL     1      24.246   2.657  52.918  1.00  0.00     0.222 C 
HETATM   23  F1  UNL     1      23.848   3.973  52.881  1.00  0.00    -0.255 F 
ENDBRANCH  21  22
ENDBRANCH  20  21
ENDBRANCH   1  20
TORSDOF 5
ENDMDL
