MODEL 1
REMARK VINA RESULT:      -7.9      0.000      0.000
REMARK  8 active torsions:
REMARK  status: ('A' for Active; 'I' for Inactive)
REMARK    1  A    between atoms: O1_2  and  C2_3 
REMARK    2  A    between atoms: C2_3  and  C3_4 
REMARK    3  A    between atoms: C3_4  and  C4_5 
REMARK    4  A    between atoms: C4_5  and  N1_6 
REMARK    5  A    between atoms: N1_6  and  C5_7 
REMARK    6  A    between atoms: C15_19  and  O2_20 
REMARK    7  A    between atoms: C15_19  and  C17_22 
REMARK    8  A    between atoms: C19_25  and  N4_26 
ROOT
HETATM    1  C4  UNL     1      24.058   1.929  53.039  1.00  0.00     0.151 C 
ENDROOT
BRANCH   1   2
HETATM    2  C3  UNL     1      25.098   2.596  52.268  1.00  0.00     0.032 C 
BRANCH   2   3
HETATM    3  C2  UNL     1      26.273   2.302  51.746  1.00  0.00     0.102 C 
HETATM    4  C15 UNL     1      27.147   1.343  52.385  1.00  0.00     0.137 C 
BRANCH   3   5
HETATM    5  O1  UNL     1      26.883   2.784  50.599  1.00  0.00    -0.353 OA
HETATM    6  C1  UNL     1      26.058   3.428  49.643  1.00  0.00     0.210 C 
ENDBRANCH   3   5
BRANCH   4   7
HETATM    7  O2  UNL     1      26.939   0.042  51.947  1.00  0.00    -0.351 OA
HETATM    8  C16 UNL     1      26.345  -0.867  52.855  1.00  0.00     0.210 C 
ENDBRANCH   4   7
BRANCH   4   9
HETATM    9  C17 UNL     1      28.045   1.637  53.281  1.00  0.00     0.139 A 
HETATM   10  O3  UNL     1      28.388   2.659  54.169  1.00  0.00    -0.315 OA
HETATM   11  C18 UNL     1      29.479   1.952  54.620  1.00  0.00     0.174 A 
HETATM   12  C19 UNL     1      29.212   0.964  53.812  1.00  0.00     0.085 A 
BRANCH  12  13
HETATM   13  N4  UNL     1      29.819  -0.294  53.544  1.00  0.00    -0.395 N 
HETATM   14  H21 UNL     1      30.617  -0.355  52.872  1.00  0.00     0.156 HD
HETATM   15  H22 UNL     1      29.505  -1.193  53.996  1.00  0.00     0.156 HD
ENDBRANCH  12  13
ENDBRANCH   4   9
ENDBRANCH   2   3
ENDBRANCH   1   2
BRANCH   1  16
HETATM   16  N1  UNL     1      23.297   0.933  52.301  1.00  0.00    -0.370 N 
HETATM   17  H7  UNL     1      23.485   0.933  51.296  1.00  0.00     0.161 HD
BRANCH  16  18
HETATM   18  C5  UNL     1      22.405   0.095  53.021  1.00  0.00     0.137 A 
HETATM   19  N2  UNL     1      22.821  -0.588  54.101  1.00  0.00    -0.224 NA
HETATM   20  C6  UNL     1      22.023  -1.394  54.819  1.00  0.00     0.236 A 
HETATM   21  N3  UNL     1      20.722  -1.545  54.456  1.00  0.00    -0.241 NA
HETATM   22  C7  UNL     1      20.217  -0.903  53.391  1.00  0.00     0.078 A 
HETATM   23  C8  UNL     1      18.900  -1.059  53.029  1.00  0.00    -0.032 A 
HETATM   24  C14 UNL     1      21.081  -0.089  52.691  1.00  0.00     0.039 A 
HETATM   25  C9  UNL     1      18.046  -1.963  53.850  1.00  0.00     0.050 C 
HETATM   26  C10 UNL     1      18.372  -0.400  51.930  1.00  0.00     0.015 A 
HETATM   27  C11 UNL     1      19.238   0.414  51.230  1.00  0.00    -0.060 A 
HETATM   28  C12 UNL     1      18.656   1.117  50.053  1.00  0.00     0.048 C 
HETATM   29  C13 UNL     1      20.558   0.568  51.599  1.00  0.00     0.024 A 
ENDBRANCH  16  18
ENDBRANCH   1  16
TORSDOF 8
ENDMDL
MODEL 2
REMARK VINA RESULT:      -7.8      3.613      6.163
REMARK  8 active torsions:
REMARK  status: ('A' for Active; 'I' for Inactive)
REMARK    1  A    between atoms: O1_2  and  C2_3 
REMARK    2  A    between atoms: C2_3  and  C3_4 
REMARK    3  A    between atoms: C3_4  and  C4_5 
REMARK    4  A    between atoms: C4_5  and  N1_6 
REMARK    5  A    between atoms: N1_6  and  C5_7 
REMARK    6  A    between atoms: C15_19  and  O2_20 
REMARK    7  A    between atoms: C15_19  and  C17_22 
REMARK    8  A    between atoms: C19_25  and  N4_26 
ROOT
HETATM    1  C4  UNL     1      24.241   0.779  52.570  1.00  0.00     0.151 C 
ENDROOT
BRANCH   1   2
HETATM    2  C3  UNL     1      25.353  -0.026  53.056  1.00  0.00     0.032 C 
BRANCH   2   3
HETATM    3  C2  UNL     1      26.097  -0.117  54.141  1.00  0.00     0.102 C 
HETATM    4  C15 UNL     1      27.481   0.303  54.126  1.00  0.00     0.137 C 
BRANCH   3   5
HETATM    5  O1  UNL     1      25.773  -0.582  55.405  1.00  0.00    -0.353 OA
HETATM    6  C1  UNL     1      24.521  -1.228  55.561  1.00  0.00     0.210 C 
ENDBRANCH   3   5
BRANCH   4   7
HETATM    7  O2  UNL     1      27.648   1.639  54.462  1.00  0.00    -0.351 OA
HETATM    8  C16 UNL     1      28.339   2.464  53.542  1.00  0.00     0.210 C 
ENDBRANCH   4   7
BRANCH   4   9
HETATM    9  C17 UNL     1      28.489  -0.468  53.832  1.00  0.00     0.139 A 
HETATM   10  O3  UNL     1      29.886  -0.465  53.832  1.00  0.00    -0.315 OA
HETATM   11  C18 UNL     1      29.927  -1.750  53.343  1.00  0.00     0.174 A 
HETATM   12  C19 UNL     1      28.624  -1.815  53.318  1.00  0.00     0.085 A 
BRANCH  12  13
HETATM   13  N4  UNL     1      27.685  -2.813  52.937  1.00  0.00    -0.395 N 
HETATM   14  H21 UNL     1      27.574  -3.674  53.520  1.00  0.00     0.156 HD
HETATM   15  H22 UNL     1      27.076  -2.735  52.080  1.00  0.00     0.156 HD
ENDBRANCH  12  13
ENDBRANCH   4   9
ENDBRANCH   2   3
ENDBRANCH   1   2
BRANCH   1  16
HETATM   16  N1  UNL     1      24.575   1.690  51.487  1.00  0.00    -0.370 N 
HETATM   17  H7  UNL     1      25.168   1.273  50.767  1.00  0.00     0.161 HD
BRANCH  16  18
HETATM   18  C5  UNL     1      24.063   3.015  51.536  1.00  0.00     0.137 A 
HETATM   19  N2  UNL     1      22.960   3.302  52.248  1.00  0.00    -0.224 NA
HETATM   20  C6  UNL     1      22.433   4.533  52.331  1.00  0.00     0.236 A 
HETATM   21  N3  UNL     1      23.026   5.561  51.669  1.00  0.00    -0.241 NA
HETATM   22  C7  UNL     1      24.132   5.370  50.933  1.00  0.00     0.078 A 
HETATM   23  C8  UNL     1      24.729   6.415  50.266  1.00  0.00    -0.032 A 
HETATM   24  C14 UNL     1      24.630   4.086  50.884  1.00  0.00     0.039 A 
HETATM   25  C9  UNL     1      24.113   7.767  50.382  1.00  0.00     0.050 C 
HETATM   26  C10 UNL     1      25.870   6.224  49.504  1.00  0.00     0.015 A 
HETATM   27  C11 UNL     1      26.367   4.939  49.455  1.00  0.00    -0.060 A 
HETATM   28  C12 UNL     1      27.595   4.750  48.633  1.00  0.00     0.048 C 
HETATM   29  C13 UNL     1      25.765   3.895  50.127  1.00  0.00     0.024 A 
ENDBRANCH  16  18
ENDBRANCH   1  16
TORSDOF 8
ENDMDL
MODEL 3
REMARK VINA RESULT:      -7.6      3.990      6.837
REMARK  8 active torsions:
REMARK  status: ('A' for Active; 'I' for Inactive)
REMARK    1  A    between atoms: O1_2  and  C2_3 
REMARK    2  A    between atoms: C2_3  and  C3_4 
REMARK    3  A    between atoms: C3_4  and  C4_5 
REMARK    4  A    between atoms: C4_5  and  N1_6 
REMARK    5  A    between atoms: N1_6  and  C5_7 
REMARK    6  A    between atoms: C15_19  and  O2_20 
REMARK    7  A    between atoms: C15_19  and  C17_22 
REMARK    8  A    between atoms: C19_25  and  N4_26 
ROOT
HETATM    1  C4  UNL     1      26.583   3.632  49.488  1.00  0.00     0.151 C 
ENDROOT
BRANCH   1   2
HETATM    2  C3  UNL     1      26.702   4.984  48.959  1.00  0.00     0.032 C 
BRANCH   2   3
HETATM    3  C2  UNL     1      26.268   6.194  49.254  1.00  0.00     0.102 C 
HETATM    4  C15 UNL     1      26.585   7.321  48.404  1.00  0.00     0.137 C 
BRANCH   3   5
HETATM    5  O1  UNL     1      25.499   6.627  50.321  1.00  0.00    -0.353 OA
HETATM    6  C1  UNL     1      24.103   6.754  50.109  1.00  0.00     0.210 C 
ENDBRANCH   3   5
BRANCH   4   7
HETATM    7  O2  UNL     1      25.644   7.531  47.406  1.00  0.00    -0.351 OA
HETATM    8  C16 UNL     1      25.316   8.871  47.088  1.00  0.00     0.210 C 
ENDBRANCH   4   7
BRANCH   4   9
HETATM    9  C17 UNL     1      27.636   8.079  48.536  1.00  0.00     0.139 A 
HETATM   10  O3  UNL     1      28.783   8.464  47.838  1.00  0.00    -0.315 OA
HETATM   11  C18 UNL     1      29.189   9.273  48.875  1.00  0.00     0.174 A 
HETATM   12  C19 UNL     1      28.138   8.951  49.578  1.00  0.00     0.085 A 
BRANCH  12  13
HETATM   13  N4  UNL     1      27.656   9.309  50.867  1.00  0.00    -0.395 N 
HETATM   14  H21 UNL     1      27.101   8.622  51.426  1.00  0.00     0.156 HD
HETATM   15  H22 UNL     1      27.830  10.251  51.306  1.00  0.00     0.156 HD
ENDBRANCH  12  13
ENDBRANCH   4   9
ENDBRANCH   2   3
ENDBRANCH   1   2
BRANCH   1  16
HETATM   16  N1  UNL     1      26.476   3.552  50.936  1.00  0.00    -0.370 N 
HETATM   17  H7  UNL     1      27.275   3.955  51.430  1.00  0.00     0.161 HD
BRANCH  16  18
HETATM   18  C5  UNL     1      25.319   2.946  51.496  1.00  0.00     0.137 A 
HETATM   19  N2  UNL     1      24.127   3.564  51.449  1.00  0.00    -0.224 NA
HETATM   20  C6  UNL     1      23.002   3.040  51.960  1.00  0.00     0.236 A 
HETATM   21  N3  UNL     1      23.044   1.823  52.562  1.00  0.00    -0.241 NA
HETATM   22  C7  UNL     1      24.191   1.131  52.657  1.00  0.00     0.078 A 
HETATM   23  C8  UNL     1      24.227  -0.101  53.267  1.00  0.00    -0.032 A 
HETATM   24  C14 UNL     1      25.314   1.717  52.114  1.00  0.00     0.039 A 
HETATM   25  C9  UNL     1      22.958  -0.649  53.823  1.00  0.00     0.050 C 
HETATM   26  C10 UNL     1      25.407  -0.820  53.368  1.00  0.00     0.015 A 
HETATM   27  C11 UNL     1      26.531  -0.233  52.825  1.00  0.00    -0.060 A 
HETATM   28  C12 UNL     1      27.791  -1.018  52.941  1.00  0.00     0.048 C 
HETATM   29  C13 UNL     1      26.489   1.003  52.213  1.00  0.00     0.024 A 
ENDBRANCH  16  18
ENDBRANCH   1  16
TORSDOF 8
ENDMDL
MODEL 4
REMARK VINA RESULT:      -7.4      4.052      6.287
REMARK  8 active torsions:
REMARK  status: ('A' for Active; 'I' for Inactive)
REMARK    1  A    between atoms: O1_2  and  C2_3 
REMARK    2  A    between atoms: C2_3  and  C3_4 
REMARK    3  A    between atoms: C3_4  and  C4_5 
REMARK    4  A    between atoms: C4_5  and  N1_6 
REMARK    5  A    between atoms: N1_6  and  C5_7 
REMARK    6  A    between atoms: C15_19  and  O2_20 
REMARK    7  A    between atoms: C15_19  and  C17_22 
REMARK    8  A    between atoms: C19_25  and  N4_26 
ROOT
HETATM    1  C4  UNL     1      26.506   3.634  49.510  1.00  0.00     0.151 C 
ENDROOT
BRANCH   1   2
HETATM    2  C3  UNL     1      26.652   4.978  48.967  1.00  0.00     0.032 C 
BRANCH   2   3
HETATM    3  C2  UNL     1      26.250   6.201  49.256  1.00  0.00     0.102 C 
HETATM    4  C15 UNL     1      26.624   7.320  48.419  1.00  0.00     0.137 C 
BRANCH   3   5
HETATM    5  O1  UNL     1      25.469   6.655  50.306  1.00  0.00    -0.353 OA
HETATM    6  C1  UNL     1      24.086   6.345  50.272  1.00  0.00     0.210 C 
ENDBRANCH   3   5
BRANCH   4   7
HETATM    7  O2  UNL     1      25.715   7.563  47.399  1.00  0.00    -0.351 OA
HETATM    8  C16 UNL     1      24.993   8.780  47.443  1.00  0.00     0.210 C 
ENDBRANCH   4   7
BRANCH   4   9
HETATM    9  C17 UNL     1      27.695   8.043  48.580  1.00  0.00     0.139 A 
HETATM   10  O3  UNL     1      28.891   8.359  47.930  1.00  0.00    -0.315 OA
HETATM   11  C18 UNL     1      29.273   9.191  48.957  1.00  0.00     0.174 A 
HETATM   12  C19 UNL     1      28.175   8.935  49.613  1.00  0.00     0.085 A 
BRANCH  12  13
HETATM   13  N4  UNL     1      27.640   9.361  50.861  1.00  0.00    -0.395 N 
HETATM   14  H21 UNL     1      27.907  10.293  51.252  1.00  0.00     0.156 HD
HETATM   15  H22 UNL     1      26.972   8.778  51.431  1.00  0.00     0.156 HD
ENDBRANCH  12  13
ENDBRANCH   4   9
ENDBRANCH   2   3
ENDBRANCH   1   2
BRANCH   1  16
HETATM   16  N1  UNL     1      26.357   3.573  50.955  1.00  0.00    -0.370 N 
HETATM   17  H7  UNL     1      26.523   4.466  51.423  1.00  0.00     0.161 HD
BRANCH  16  18
HETATM   18  C5  UNL     1      26.008   2.329  51.546  1.00  0.00     0.137 A 
HETATM   19  N2  UNL     1      26.929   1.366  51.719  1.00  0.00    -0.224 NA
HETATM   20  C6  UNL     1      26.658   0.174  52.271  1.00  0.00     0.236 A 
HETATM   21  N3  UNL     1      25.393  -0.100  52.685  1.00  0.00    -0.241 NA
HETATM   22  C7  UNL     1      24.406   0.801  52.553  1.00  0.00     0.078 A 
HETATM   23  C8  UNL     1      23.128   0.519  52.975  1.00  0.00    -0.032 A 
HETATM   24  C14 UNL     1      24.742   2.009  51.980  1.00  0.00     0.039 A 
HETATM   25  C9  UNL     1      22.866  -0.816  53.582  1.00  0.00     0.050 C 
HETATM   26  C10 UNL     1      22.105   1.444  52.841  1.00  0.00     0.015 A 
HETATM   27  C11 UNL     1      22.443   2.652  52.267  1.00  0.00    -0.060 A 
HETATM   28  C12 UNL     1      21.333   3.636  52.131  1.00  0.00     0.048 C 
HETATM   29  C13 UNL     1      23.727   2.930  51.847  1.00  0.00     0.024 A 
ENDBRANCH  16  18
ENDBRANCH   1  16
TORSDOF 8
ENDMDL
MODEL 5
REMARK VINA RESULT:      -7.4      3.714      6.817
REMARK  8 active torsions:
REMARK  status: ('A' for Active; 'I' for Inactive)
REMARK    1  A    between atoms: O1_2  and  C2_3 
REMARK    2  A    between atoms: C2_3  and  C3_4 
REMARK    3  A    between atoms: C3_4  and  C4_5 
REMARK    4  A    between atoms: C4_5  and  N1_6 
REMARK    5  A    between atoms: N1_6  and  C5_7 
REMARK    6  A    between atoms: C15_19  and  O2_20 
REMARK    7  A    between atoms: C15_19  and  C17_22 
REMARK    8  A    between atoms: C19_25  and  N4_26 
ROOT
HETATM    1  C4  UNL     1      26.435   3.657  49.400  1.00  0.00     0.151 C 
ENDROOT
BRANCH   1   2
HETATM    2  C3  UNL     1      27.345   4.668  48.878  1.00  0.00     0.032 C 
BRANCH   2   3
HETATM    3  C2  UNL     1      27.296   5.932  48.506  1.00  0.00     0.102 C 
HETATM    4  C15 UNL     1      26.167   6.764  48.862  1.00  0.00     0.137 C 
BRANCH   3   5
HETATM    5  O1  UNL     1      28.202   6.679  47.772  1.00  0.00    -0.353 OA
HETATM    6  C1  UNL     1      29.560   6.276  47.808  1.00  0.00     0.210 C 
ENDBRANCH   3   5
BRANCH   4   7
HETATM    7  O2  UNL     1      26.334   7.418  50.075  1.00  0.00    -0.351 OA
HETATM    8  C16 UNL     1      26.663   8.795  50.036  1.00  0.00     0.210 C 
ENDBRANCH   4   7
BRANCH   4   9
HETATM    9  C17 UNL     1      25.092   6.907  48.141  1.00  0.00     0.139 A 
HETATM   10  O3  UNL     1      24.601   7.662  47.073  1.00  0.00    -0.315 OA
HETATM   11  C18 UNL     1      23.388   7.016  47.124  1.00  0.00     0.174 A 
HETATM   12  C19 UNL     1      23.787   6.280  48.124  1.00  0.00     0.085 A 
BRANCH  12  13
HETATM   13  N4  UNL     1      23.187   5.255  48.907  1.00  0.00    -0.395 N 
HETATM   14  H21 UNL     1      23.487   4.261  48.784  1.00  0.00     0.156 HD
HETATM   15  H22 UNL     1      22.436   5.441  49.623  1.00  0.00     0.156 HD
ENDBRANCH  12  13
ENDBRANCH   4   9
ENDBRANCH   2   3
ENDBRANCH   1   2
BRANCH   1  16
HETATM   16  N1  UNL     1      26.390   3.568  50.851  1.00  0.00    -0.370 N 
HETATM   17  H7  UNL     1      27.239   3.905  51.310  1.00  0.00     0.161 HD
BRANCH  16  18
HETATM   18  C5  UNL     1      25.218   3.045  51.460  1.00  0.00     0.137 A 
HETATM   19  N2  UNL     1      24.071   3.744  51.462  1.00  0.00    -0.224 NA
HETATM   20  C6  UNL     1      22.935   3.300  52.021  1.00  0.00     0.236 A 
HETATM   21  N3  UNL     1      22.917   2.082  52.624  1.00  0.00    -0.241 NA
HETATM   22  C7  UNL     1      24.016   1.312  52.671  1.00  0.00     0.078 A 
HETATM   23  C8  UNL     1      23.991   0.080  53.282  1.00  0.00    -0.032 A 
HETATM   24  C14 UNL     1      25.153   1.818  52.080  1.00  0.00     0.039 A 
HETATM   25  C9  UNL     1      22.711  -0.378  53.892  1.00  0.00     0.050 C 
HETATM   26  C10 UNL     1      25.121  -0.720  53.334  1.00  0.00     0.015 A 
HETATM   27  C11 UNL     1      26.259  -0.212  52.744  1.00  0.00    -0.060 A 
HETATM   28  C12 UNL     1      27.466  -1.084  52.808  1.00  0.00     0.048 C 
HETATM   29  C13 UNL     1      26.278   1.024  52.132  1.00  0.00     0.024 A 
ENDBRANCH  16  18
ENDBRANCH   1  16
TORSDOF 8
ENDMDL
MODEL 6
REMARK VINA RESULT:      -7.2      2.969      5.227
REMARK  8 active torsions:
REMARK  status: ('A' for Active; 'I' for Inactive)
REMARK    1  A    between atoms: O1_2  and  C2_3 
REMARK    2  A    between atoms: C2_3  and  C3_4 
REMARK    3  A    between atoms: C3_4  and  C4_5 
REMARK    4  A    between atoms: C4_5  and  N1_6 
REMARK    5  A    between atoms: N1_6  and  C5_7 
REMARK    6  A    between atoms: C15_19  and  O2_20 
REMARK    7  A    between atoms: C15_19  and  C17_22 
REMARK    8  A    between atoms: C19_25  and  N4_26 
ROOT
HETATM    1  C4  UNL     1      26.719   2.588  51.045  1.00  0.00     0.151 C 
ENDROOT
BRANCH   1   2
HETATM    2  C3  UNL     1      26.370   3.252  49.796  1.00  0.00     0.032 C 
BRANCH   2   3
HETATM    3  C2  UNL     1      25.995   4.451  49.395  1.00  0.00     0.102 C 
HETATM    4  C15 UNL     1      24.640   4.912  49.609  1.00  0.00     0.137 C 
BRANCH   3   5
HETATM    5  O1  UNL     1      26.717   5.439  48.748  1.00  0.00    -0.353 OA
HETATM    6  C1  UNL     1      28.088   5.183  48.491  1.00  0.00     0.210 C 
ENDBRANCH   3   5
BRANCH   4   7
HETATM    7  O2  UNL     1      24.475   5.572  50.819  1.00  0.00    -0.351 OA
HETATM    8  C16 UNL     1      23.158   5.926  51.197  1.00  0.00     0.210 C 
ENDBRANCH   4   7
BRANCH   4   9
HETATM    9  C17 UNL     1      23.656   4.741  48.773  1.00  0.00     0.139 A 
HETATM   10  O3  UNL     1      22.930   5.438  47.804  1.00  0.00    -0.315 OA
HETATM   11  C18 UNL     1      22.142   4.339  47.549  1.00  0.00     0.174 A 
HETATM   12  C19 UNL     1      22.781   3.636  48.443  1.00  0.00     0.085 A 
BRANCH  12  13
HETATM   13  N4  UNL     1      22.674   2.300  48.920  1.00  0.00    -0.395 N 
HETATM   14  H21 UNL     1      21.878   2.030  49.541  1.00  0.00     0.156 HD
HETATM   15  H22 UNL     1      23.367   1.544  48.677  1.00  0.00     0.156 HD
ENDBRANCH  12  13
ENDBRANCH   4   9
ENDBRANCH   2   3
ENDBRANCH   1   2
BRANCH   1  16
HETATM   16  N1  UNL     1      25.761   2.775  52.123  1.00  0.00    -0.370 N 
HETATM   17  H7  UNL     1      25.592   3.755  52.357  1.00  0.00     0.161 HD
BRANCH  16  18
HETATM   18  C5  UNL     1      25.179   1.623  52.717  1.00  0.00     0.137 A 
HETATM   19  N2  UNL     1      25.948   0.630  53.193  1.00  0.00    -0.224 NA
HETATM   20  C6  UNL     1      25.455  -0.479  53.764  1.00  0.00     0.236 A 
HETATM   21  N3  UNL     1      24.109  -0.631  53.879  1.00  0.00    -0.241 NA
HETATM   22  C7  UNL     1      23.261   0.309  53.431  1.00  0.00     0.078 A 
HETATM   23  C8  UNL     1      21.900   0.150  53.550  1.00  0.00    -0.032 A 
HETATM   24  C14 UNL     1      23.824   1.427  52.855  1.00  0.00     0.039 A 
HETATM   25  C9  UNL     1      21.391  -1.096  54.189  1.00  0.00     0.050 C 
HETATM   26  C10 UNL     1      21.020   1.115  53.090  1.00  0.00     0.015 A 
HETATM   27  C11 UNL     1      21.584   2.234  52.513  1.00  0.00    -0.060 A 
HETATM   28  C12 UNL     1      20.624   3.263  52.024  1.00  0.00     0.048 C 
HETATM   29  C13 UNL     1      22.950   2.389  52.397  1.00  0.00     0.024 A 
ENDBRANCH  16  18
ENDBRANCH   1  16
TORSDOF 8
ENDMDL
MODEL 7
REMARK VINA RESULT:      -7.0      2.453      3.921
REMARK  8 active torsions:
REMARK  status: ('A' for Active; 'I' for Inactive)
REMARK    1  A    between atoms: O1_2  and  C2_3 
REMARK    2  A    between atoms: C2_3  and  C3_4 
REMARK    3  A    between atoms: C3_4  and  C4_5 
REMARK    4  A    between atoms: C4_5  and  N1_6 
REMARK    5  A    between atoms: N1_6  and  C5_7 
REMARK    6  A    between atoms: C15_19  and  O2_20 
REMARK    7  A    between atoms: C15_19  and  C17_22 
REMARK    8  A    between atoms: C19_25  and  N4_26 
ROOT
HETATM    1  C4  UNL     1      25.133   1.876  52.674  1.00  0.00     0.151 C 
ENDROOT
BRANCH   1   2
HETATM    2  C3  UNL     1      24.325   3.071  52.479  1.00  0.00     0.032 C 
BRANCH   2   3
HETATM    3  C2  UNL     1      24.109   3.965  51.534  1.00  0.00     0.102 C 
HETATM    4  C15 UNL     1      24.528   3.717  50.171  1.00  0.00     0.137 C 
BRANCH   3   5
HETATM    5  O1  UNL     1      23.504   5.209  51.607  1.00  0.00    -0.353 OA
HETATM    6  C1  UNL     1      22.108   5.242  51.846  1.00  0.00     0.210 C 
ENDBRANCH   3   5
BRANCH   4   7
HETATM    7  O2  UNL     1      23.554   3.087  49.409  1.00  0.00    -0.351 OA
HETATM    8  C16 UNL     1      22.912   3.852  48.406  1.00  0.00     0.210 C 
ENDBRANCH   4   7
BRANCH   4   9
HETATM    9  C17 UNL     1      25.691   4.038  49.681  1.00  0.00     0.139 A 
HETATM   10  O3  UNL     1      26.979   3.519  49.530  1.00  0.00    -0.315 OA
HETATM   11  C18 UNL     1      27.406   4.661  48.893  1.00  0.00     0.174 A 
HETATM   12  C19 UNL     1      26.224   5.202  49.004  1.00  0.00     0.085 A 
BRANCH  12  13
HETATM   13  N4  UNL     1      25.659   6.448  48.615  1.00  0.00    -0.395 N 
HETATM   14  H21 UNL     1      24.758   6.767  49.037  1.00  0.00     0.156 HD
HETATM   15  H22 UNL     1      26.108   7.088  47.907  1.00  0.00     0.156 HD
ENDBRANCH  12  13
ENDBRANCH   4   9
ENDBRANCH   2   3
ENDBRANCH   1   2
BRANCH   1  16
HETATM   16  N1  UNL     1      24.535   0.647  52.177  1.00  0.00    -0.370 N 
HETATM   17  H7  UNL     1      24.996   0.272  51.346  1.00  0.00     0.161 HD
BRANCH  16  18
HETATM   18  C5  UNL     1      23.414   0.113  52.868  1.00  0.00     0.137 A 
HETATM   19  N2  UNL     1      23.560  -0.473  54.069  1.00  0.00    -0.224 NA
HETATM   20  C6  UNL     1      22.539  -0.993  54.766  1.00  0.00     0.236 A 
HETATM   21  N3  UNL     1      21.281  -0.939  54.254  1.00  0.00    -0.241 NA
HETATM   22  C7  UNL     1      21.039  -0.373  53.061  1.00  0.00     0.078 A 
HETATM   23  C8  UNL     1      19.764  -0.319  52.548  1.00  0.00    -0.032 A 
HETATM   24  C14 UNL     1      22.125   0.146  52.389  1.00  0.00     0.039 A 
HETATM   25  C9  UNL     1      18.657  -0.909  53.352  1.00  0.00     0.050 C 
HETATM   26  C10 UNL     1      19.507   0.263  51.318  1.00  0.00     0.015 A 
HETATM   27  C11 UNL     1      20.594   0.781  50.646  1.00  0.00    -0.060 A 
HETATM   28  C12 UNL     1      20.302   1.404  49.325  1.00  0.00     0.048 C 
HETATM   29  C13 UNL     1      21.871   0.726  51.166  1.00  0.00     0.024 A 
ENDBRANCH  16  18
ENDBRANCH   1  16
TORSDOF 8
ENDMDL
MODEL 8
REMARK VINA RESULT:      -7.0      3.960      6.754
REMARK  8 active torsions:
REMARK  status: ('A' for Active; 'I' for Inactive)
REMARK    1  A    between atoms: O1_2  and  C2_3 
REMARK    2  A    between atoms: C2_3  and  C3_4 
REMARK    3  A    between atoms: C3_4  and  C4_5 
REMARK    4  A    between atoms: C4_5  and  N1_6 
REMARK    5  A    between atoms: N1_6  and  C5_7 
REMARK    6  A    between atoms: C15_19  and  O2_20 
REMARK    7  A    between atoms: C15_19  and  C17_22 
REMARK    8  A    between atoms: C19_25  and  N4_26 
ROOT
HETATM    1  C4  UNL     1      22.718   4.801  52.033  1.00  0.00     0.151 C 
ENDROOT
BRANCH   1   2
HETATM    2  C3  UNL     1      22.767   6.003  51.211  1.00  0.00     0.032 C 
BRANCH   2   3
HETATM    3  C2  UNL     1      22.469   6.359  49.976  1.00  0.00     0.102 C 
HETATM    4  C15 UNL     1      23.286   5.926  48.864  1.00  0.00     0.137 C 
BRANCH   3   5
HETATM    5  O1  UNL     1      21.428   7.141  49.503  1.00  0.00    -0.353 OA
HETATM    6  C1  UNL     1      20.124   6.587  49.547  1.00  0.00     0.210 C 
ENDBRANCH   3   5
BRANCH   4   7
HETATM    7  O2  UNL     1      22.868   4.719  48.319  1.00  0.00    -0.351 OA
HETATM    8  C16 UNL     1      22.246   4.756  47.048  1.00  0.00     0.210 C 
ENDBRANCH   4   7
BRANCH   4   9
HETATM    9  C17 UNL     1      24.313   6.577  48.398  1.00  0.00     0.139 A 
HETATM   10  O3  UNL     1      24.694   7.345  47.294  1.00  0.00    -0.315 OA
HETATM   11  C18 UNL     1      25.956   7.529  47.810  1.00  0.00     0.174 A 
HETATM   12  C19 UNL     1      25.662   6.820  48.865  1.00  0.00     0.085 A 
BRANCH  12  13
HETATM   13  N4  UNL     1      26.376   6.429  50.031  1.00  0.00    -0.395 N 
HETATM   14  H21 UNL     1      26.674   5.434  50.151  1.00  0.00     0.156 HD
HETATM   15  H22 UNL     1      26.630   7.100  50.803  1.00  0.00     0.156 HD
ENDBRANCH  12  13
ENDBRANCH   4   9
ENDBRANCH   2   3
ENDBRANCH   1   2
BRANCH   1  16
HETATM   16  N1  UNL     1      22.894   3.556  51.304  1.00  0.00    -0.370 N 
HETATM   17  H7  UNL     1      22.052   3.240  50.819  1.00  0.00     0.161 HD
BRANCH  16  18
HETATM   18  C5  UNL     1      24.169   2.929  51.336  1.00  0.00     0.137 A 
HETATM   19  N2  UNL     1      25.219   3.470  50.696  1.00  0.00    -0.224 NA
HETATM   20  C6  UNL     1      26.445   2.923  50.692  1.00  0.00     0.236 A 
HETATM   21  N3  UNL     1      26.661   1.761  51.362  1.00  0.00    -0.241 NA
HETATM   22  C7  UNL     1      25.671   1.147  52.030  1.00  0.00     0.078 A 
HETATM   23  C8  UNL     1      25.897  -0.029  52.708  1.00  0.00    -0.032 A 
HETATM   24  C14 UNL     1      24.435   1.754  52.001  1.00  0.00     0.039 A 
HETATM   25  C9  UNL     1      27.270  -0.605  52.679  1.00  0.00     0.050 C 
HETATM   26  C10 UNL     1      24.880  -0.667  53.399  1.00  0.00     0.015 A 
HETATM   27  C11 UNL     1      23.642  -0.059  53.368  1.00  0.00    -0.060 A 
HETATM   28  C12 UNL     1      22.560  -0.758  54.116  1.00  0.00     0.048 C 
HETATM   29  C13 UNL     1      23.422   1.120  52.688  1.00  0.00     0.024 A 
ENDBRANCH  16  18
ENDBRANCH   1  16
TORSDOF 8
ENDMDL
MODEL 9
REMARK VINA RESULT:      -6.9      3.555      6.310
REMARK  8 active torsions:
REMARK  status: ('A' for Active; 'I' for Inactive)
REMARK    1  A    between atoms: O1_2  and  C2_3 
REMARK    2  A    between atoms: C2_3  and  C3_4 
REMARK    3  A    between atoms: C3_4  and  C4_5 
REMARK    4  A    between atoms: C4_5  and  N1_6 
REMARK    5  A    between atoms: N1_6  and  C5_7 
REMARK    6  A    between atoms: C15_19  and  O2_20 
REMARK    7  A    between atoms: C15_19  and  C17_22 
REMARK    8  A    between atoms: C19_25  and  N4_26 
ROOT
HETATM    1  C4  UNL     1      21.273   3.865  52.247  1.00  0.00     0.151 C 
ENDROOT
BRANCH   1   2
HETATM    2  C3  UNL     1      21.400   5.155  51.583  1.00  0.00     0.032 C 
BRANCH   2   3
HETATM    3  C2  UNL     1      21.599   5.615  50.363  1.00  0.00     0.102 C 
HETATM    4  C15 UNL     1      22.786   5.251  49.620  1.00  0.00     0.137 C 
BRANCH   3   5
HETATM    5  O1  UNL     1      20.816   6.456  49.591  1.00  0.00    -0.353 OA
HETATM    6  C1  UNL     1      20.725   7.813  49.991  1.00  0.00     0.210 C 
ENDBRANCH   3   5
BRANCH   4   7
HETATM    7  O2  UNL     1      22.621   4.102  48.859  1.00  0.00    -0.351 OA
HETATM    8  C16 UNL     1      22.288   4.265  47.493  1.00  0.00     0.210 C 
ENDBRANCH   4   7
BRANCH   4   9
HETATM    9  C17 UNL     1      23.908   5.912  49.642  1.00  0.00     0.139 A 
HETATM   10  O3  UNL     1      24.943   6.310  48.791  1.00  0.00    -0.315 OA
HETATM   11  C18 UNL     1      25.598   6.943  49.822  1.00  0.00     0.174 A 
HETATM   12  C19 UNL     1      24.664   6.602  50.666  1.00  0.00     0.085 A 
BRANCH  12  13
HETATM   13  N4  UNL     1      24.454   6.816  52.057  1.00  0.00    -0.395 N 
HETATM   14  H21 UNL     1      24.884   7.643  52.528  1.00  0.00     0.156 HD
HETATM   15  H22 UNL     1      23.873   6.173  52.658  1.00  0.00     0.156 HD
ENDBRANCH  12  13
ENDBRANCH   4   9
ENDBRANCH   2   3
ENDBRANCH   1   2
BRANCH   1  16
HETATM   16  N1  UNL     1      21.685   2.724  51.445  1.00  0.00    -0.370 N 
HETATM   17  H7  UNL     1      21.365   2.765  50.476  1.00  0.00     0.161 HD
BRANCH  16  18
HETATM   18  C5  UNL     1      22.461   1.708  52.064  1.00  0.00     0.137 A 
HETATM   19  N2  UNL     1      21.884   0.782  52.849  1.00  0.00    -0.224 NA
HETATM   20  C6  UNL     1      22.566  -0.200  53.459  1.00  0.00     0.236 A 
HETATM   21  N3  UNL     1      23.912  -0.285  53.291  1.00  0.00    -0.241 NA
HETATM   22  C7  UNL     1      24.575   0.597  52.525  1.00  0.00     0.078 A 
HETATM   23  C8  UNL     1      25.937   0.505  52.358  1.00  0.00    -0.032 A 
HETATM   24  C14 UNL     1      23.824   1.583  51.923  1.00  0.00     0.039 A 
HETATM   25  C9  UNL     1      26.659  -0.598  53.052  1.00  0.00     0.050 C 
HETATM   26  C10 UNL     1      26.628   1.411  51.569  1.00  0.00     0.015 A 
HETATM   27  C11 UNL     1      25.875   2.398  50.968  1.00  0.00    -0.060 A 
HETATM   28  C12 UNL     1      26.632   3.364  50.122  1.00  0.00     0.048 C 
HETATM   29  C13 UNL     1      24.509   2.484  51.138  1.00  0.00     0.024 A 
ENDBRANCH  16  18
ENDBRANCH   1  16
TORSDOF 8
ENDMDL
