MODEL 1
REMARK VINA RESULT:      -7.9      0.000      0.000
REMARK  7 active torsions:
REMARK  status: ('A' for Active; 'I' for Inactive)
REMARK    1  A    between atoms: C2_2  and  N3_8 
REMARK    2  A    between atoms: N1_3  and  C3_4 
REMARK    3  A    between atoms: N2_5  and  C4_6 
REMARK    4  A    between atoms: C4_6  and  O1_7 
REMARK    5  A    between atoms: N3_8  and  C5_9 
REMARK    6  A    between atoms: C8_12  and  C9_13 
REMARK    7  A    between atoms: C9_13  and  C10_14 
ROOT
HETATM    1  C5  UNL     1      25.181   3.090  50.287  1.00  0.00     0.035 A 
HETATM    2  C6  UNL     1      26.456   2.952  50.714  1.00  0.00     0.030 A 
HETATM    3  C7  UNL     1      26.768   2.249  51.853  1.00  0.00     0.011 A 
HETATM    4  C8  UNL     1      25.814   1.623  52.663  1.00  0.00    -0.032 A 
HETATM    5  C16 UNL     1      24.524   1.770  52.218  1.00  0.00     0.042 A 
HETATM    6 CL1  UNL     1      23.262   1.013  53.162  1.00  0.00    -0.084 Cl
HETATM    7  C17 UNL     1      24.227   2.477  51.076  1.00  0.00     0.053 A 
ENDROOT
BRANCH   1   8
HETATM    8  N3  UNL     1      24.726   3.785  49.141  1.00  0.00    -0.345 N 
HETATM    9  H8  UNL     1      24.490   3.244  48.254  1.00  0.00     0.167 HD
BRANCH   8  10
HETATM   10  C2  UNL     1      24.539   5.176  49.018  1.00  0.00     0.101 C 
HETATM   11  C1  UNL     1      23.329   5.726  48.336  1.00  0.00     0.091 C 
HETATM   12  N1  UNL     1      25.442   5.937  49.512  1.00  0.00    -0.229 NA
BRANCH  12  13
HETATM   13  C3  UNL     1      25.460   7.340  49.502  1.00  0.00     0.231 C 
HETATM   14  N2  UNL     1      26.474   7.903  50.018  1.00  0.00    -0.257 NA
BRANCH  14  15
HETATM   15  C4  UNL     1      26.737   9.303  50.134  1.00  0.00     0.314 C 
BRANCH  15  16
HETATM   16  O1  UNL     1      27.663   9.500  51.173  1.00  0.00    -0.380 OA
HETATM   17  H7  UNL     1      28.022  10.425  51.028  1.00  0.00     0.211 HD
ENDBRANCH  15  16
ENDBRANCH  14  15
ENDBRANCH  12  13
ENDBRANCH   8  10
ENDBRANCH   1   8
BRANCH   4  18
HETATM   18  C9  UNL     1      26.296   0.904  53.868  1.00  0.00     0.078 C 
BRANCH  18  19
HETATM   19  C10 UNL     1      27.252  -0.175  53.602  1.00  0.00    -0.051 A 
HETATM   20  C11 UNL     1      26.711  -1.283  52.936  1.00  0.00     0.007 A 
HETATM   21  C12 UNL     1      27.494  -2.392  52.620  1.00  0.00     0.004 A 
HETATM   22  C13 UNL     1      28.823  -2.447  52.945  1.00  0.00     0.042 A 
HETATM   23  C14 UNL     1      29.370  -1.370  53.597  1.00  0.00     0.116 A 
HETATM   24  F1  UNL     1      30.669  -1.314  53.965  1.00  0.00    -0.206 F 
HETATM   25  C15 UNL     1      28.592  -0.289  53.902  1.00  0.00     0.049 A 
ENDBRANCH  18  19
ENDBRANCH   4  18
TORSDOF 7
ENDMDL
MODEL 2
REMARK VINA RESULT:      -7.5      2.142      3.034
REMARK  7 active torsions:
REMARK  status: ('A' for Active; 'I' for Inactive)
REMARK    1  A    between atoms: C2_2  and  N3_8 
REMARK    2  A    between atoms: N1_3  and  C3_4 
REMARK    3  A    between atoms: N2_5  and  C4_6 
REMARK    4  A    between atoms: C4_6  and  O1_7 
REMARK    5  A    between atoms: N3_8  and  C5_9 
REMARK    6  A    between atoms: C8_12  and  C9_13 
REMARK    7  A    between atoms: C9_13  and  C10_14 
ROOT
HETATM    1  C5  UNL     1      26.017   5.347  49.321  1.00  0.00     0.035 A 
HETATM    2  C6  UNL     1      26.763   4.235  49.137  1.00  0.00     0.030 A 
HETATM    3  C7  UNL     1      26.561   3.095  49.877  1.00  0.00     0.011 A 
HETATM    4  C8  UNL     1      25.584   2.980  50.872  1.00  0.00    -0.032 A 
HETATM    5  C16 UNL     1      24.834   4.115  51.049  1.00  0.00     0.042 A 
HETATM    6 CL1  UNL     1      23.580   4.063  52.266  1.00  0.00    -0.084 Cl
HETATM    7  C17 UNL     1      25.048   5.249  50.300  1.00  0.00     0.053 A 
ENDROOT
BRANCH   1   8
HETATM    8  N3  UNL     1      26.123   6.580  48.633  1.00  0.00    -0.345 N 
HETATM    9  H8  UNL     1      25.293   6.946  48.075  1.00  0.00     0.167 HD
BRANCH   8  10
HETATM   10  C2  UNL     1      27.247   7.427  48.589  1.00  0.00     0.101 C 
HETATM   11  C1  UNL     1      28.382   7.143  47.661  1.00  0.00     0.091 C 
HETATM   12  N1  UNL     1      27.251   8.441  49.373  1.00  0.00    -0.229 NA
BRANCH  12  13
HETATM   13  C3  UNL     1      28.260   9.407  49.494  1.00  0.00     0.231 C 
HETATM   14  N2  UNL     1      28.072  10.509  48.892  1.00  0.00    -0.257 NA
BRANCH  14  15
HETATM   15  C4  UNL     1      28.934  11.648  48.854  1.00  0.00     0.314 C 
BRANCH  15  16
HETATM   16  O1  UNL     1      28.454  12.605  49.765  1.00  0.00    -0.380 OA
HETATM   17  H7  UNL     1      28.068  13.333  49.195  1.00  0.00     0.211 HD
ENDBRANCH  15  16
ENDBRANCH  14  15
ENDBRANCH  12  13
ENDBRANCH   8  10
ENDBRANCH   1   8
BRANCH   4  18
HETATM   18  C9  UNL     1      25.485   1.689  51.596  1.00  0.00     0.078 C 
BRANCH  18  19
HETATM   19  C10 UNL     1      26.676   1.322  52.369  1.00  0.00    -0.051 A 
HETATM   20  C11 UNL     1      26.948  -0.052  52.405  1.00  0.00     0.007 A 
HETATM   21  C12 UNL     1      28.042  -0.557  53.106  1.00  0.00     0.004 A 
HETATM   22  C13 UNL     1      28.897   0.267  53.788  1.00  0.00     0.042 A 
HETATM   23  C14 UNL     1      28.647   1.616  53.764  1.00  0.00     0.116 A 
HETATM   24  F1  UNL     1      29.423   2.521  54.399  1.00  0.00    -0.206 F 
HETATM   25  C15 UNL     1      27.571   2.098  53.074  1.00  0.00     0.049 A 
ENDBRANCH  18  19
ENDBRANCH   4  18
TORSDOF 7
ENDMDL
MODEL 3
REMARK VINA RESULT:      -7.5      4.788      6.319
REMARK  7 active torsions:
REMARK  status: ('A' for Active; 'I' for Inactive)
REMARK    1  A    between atoms: C2_2  and  N3_8 
REMARK    2  A    between atoms: N1_3  and  C3_4 
REMARK    3  A    between atoms: N2_5  and  C4_6 
REMARK    4  A    between atoms: C4_6  and  O1_7 
REMARK    5  A    between atoms: N3_8  and  C5_9 
REMARK    6  A    between atoms: C8_12  and  C9_13 
REMARK    7  A    between atoms: C9_13  and  C10_14 
ROOT
HETATM    1  C5  UNL     1      23.197   2.306  51.716  1.00  0.00     0.035 A 
HETATM    2  C6  UNL     1      23.599   1.850  52.923  1.00  0.00     0.030 A 
HETATM    3  C7  UNL     1      24.927   1.792  53.273  1.00  0.00     0.011 A 
HETATM    4  C8  UNL     1      25.969   2.191  52.427  1.00  0.00    -0.032 A 
HETATM    5  C16 UNL     1      25.548   2.651  51.205  1.00  0.00     0.042 A 
HETATM    6 CL1  UNL     1      26.779   3.181  50.083  1.00  0.00    -0.084 Cl
HETATM    7  C17 UNL     1      24.214   2.703  50.870  1.00  0.00     0.053 A 
ENDROOT
BRANCH   1   8
HETATM    8  N3  UNL     1      21.872   2.413  51.232  1.00  0.00    -0.345 N 
HETATM    9  H8  UNL     1      21.450   3.375  51.057  1.00  0.00     0.167 HD
BRANCH   8  10
HETATM   10  C2  UNL     1      20.991   1.353  50.941  1.00  0.00     0.101 C 
HETATM   11  C1  UNL     1      21.034   0.667  49.615  1.00  0.00     0.091 C 
HETATM   12  N1  UNL     1      20.163   1.008  51.854  1.00  0.00    -0.229 NA
BRANCH  12  13
HETATM   13  C3  UNL     1      19.203  -0.013  51.780  1.00  0.00     0.231 C 
HETATM   14  N2  UNL     1      18.764  -0.467  52.881  1.00  0.00    -0.257 NA
BRANCH  14  15
HETATM   15  C4  UNL     1      17.794  -1.496  53.083  1.00  0.00     0.314 C 
BRANCH  15  16
HETATM   16  O1  UNL     1      18.216  -2.308  54.149  1.00  0.00    -0.380 OA
HETATM   17  H7  UNL     1      18.085  -1.747  54.969  1.00  0.00     0.211 HD
ENDBRANCH  15  16
ENDBRANCH  14  15
ENDBRANCH  12  13
ENDBRANCH   8  10
ENDBRANCH   1   8
BRANCH   4  18
HETATM   18  C9  UNL     1      27.356   2.066  52.936  1.00  0.00     0.078 C 
BRANCH  18  19
HETATM   19  C10 UNL     1      27.860   0.692  53.022  1.00  0.00    -0.051 A 
HETATM   20  C11 UNL     1      29.138   0.572  53.586  1.00  0.00     0.007 A 
HETATM   21  C12 UNL     1      29.754  -0.670  53.728  1.00  0.00     0.004 A 
HETATM   22  C13 UNL     1      29.140  -1.825  53.324  1.00  0.00     0.042 A 
HETATM   23  C14 UNL     1      27.888  -1.728  52.771  1.00  0.00     0.116 A 
HETATM   24  F1  UNL     1      27.189  -2.800  52.339  1.00  0.00    -0.206 F 
HETATM   25  C15 UNL     1      27.295  -0.505  52.636  1.00  0.00     0.049 A 
ENDBRANCH  18  19
ENDBRANCH   4  18
TORSDOF 7
ENDMDL
MODEL 4
REMARK VINA RESULT:      -7.4      5.517      8.347
REMARK  7 active torsions:
REMARK  status: ('A' for Active; 'I' for Inactive)
REMARK    1  A    between atoms: C2_2  and  N3_8 
REMARK    2  A    between atoms: N1_3  and  C3_4 
REMARK    3  A    between atoms: N2_5  and  C4_6 
REMARK    4  A    between atoms: C4_6  and  O1_7 
REMARK    5  A    between atoms: N3_8  and  C5_9 
REMARK    6  A    between atoms: C8_12  and  C9_13 
REMARK    7  A    between atoms: C9_13  and  C10_14 
ROOT
HETATM    1  C5  UNL     1      24.860   2.107  52.753  1.00  0.00     0.035 A 
HETATM    2  C6  UNL     1      23.850   1.232  52.959  1.00  0.00     0.030 A 
HETATM    3  C7  UNL     1      22.877   1.012  52.014  1.00  0.00     0.011 A 
HETATM    4  C8  UNL     1      22.840   1.660  50.774  1.00  0.00    -0.032 A 
HETATM    5  C16 UNL     1      23.871   2.545  50.578  1.00  0.00     0.042 A 
HETATM    6 CL1  UNL     1      23.914   3.396  49.052  1.00  0.00    -0.084 Cl
HETATM    7  C17 UNL     1      24.837   2.755  51.534  1.00  0.00     0.053 A 
ENDROOT
BRANCH   1   8
HETATM    8  N3  UNL     1      25.917   2.428  53.639  1.00  0.00    -0.345 N 
HETATM    9  H8  UNL     1      25.814   3.251  54.307  1.00  0.00     0.167 HD
BRANCH   8  10
HETATM   10  C2  UNL     1      27.154   1.762  53.753  1.00  0.00     0.101 C 
HETATM   11  C1  UNL     1      28.435   2.480  53.482  1.00  0.00     0.091 C 
HETATM   12  N1  UNL     1      27.128   0.528  54.095  1.00  0.00    -0.229 NA
BRANCH  12  13
HETATM   13  C3  UNL     1      28.231  -0.321  54.266  1.00  0.00     0.231 C 
HETATM   14  N2  UNL     1      28.344  -1.285  53.447  1.00  0.00    -0.257 NA
BRANCH  14  15
HETATM   15  C4  UNL     1      29.364  -2.284  53.401  1.00  0.00     0.314 C 
BRANCH  15  16
HETATM   16  O1  UNL     1      28.754  -3.550  53.429  1.00  0.00    -0.380 OA
HETATM   17  H7  UNL     1      27.815  -3.378  53.738  1.00  0.00     0.211 HD
ENDBRANCH  15  16
ENDBRANCH  14  15
ENDBRANCH  12  13
ENDBRANCH   8  10
ENDBRANCH   1   8
BRANCH   4  18
HETATM   18  C9  UNL     1      21.725   1.328  49.854  1.00  0.00     0.078 C 
BRANCH  18  19
HETATM   19  C10 UNL     1      20.385   1.482  50.429  1.00  0.00    -0.051 A 
HETATM   20  C11 UNL     1      19.986   2.810  50.634  1.00  0.00     0.007 A 
HETATM   21  C12 UNL     1      18.741   3.118  51.180  1.00  0.00     0.004 A 
HETATM   22  C13 UNL     1      17.855   2.138  51.540  1.00  0.00     0.042 A 
HETATM   23  C14 UNL     1      18.228   0.831  51.346  1.00  0.00     0.116 A 
HETATM   24  F1  UNL     1      17.435  -0.216  51.662  1.00  0.00    -0.206 F 
HETATM   25  C15 UNL     1      19.451   0.543  50.810  1.00  0.00     0.049 A 
ENDBRANCH  18  19
ENDBRANCH   4  18
TORSDOF 7
ENDMDL
MODEL 5
REMARK VINA RESULT:      -7.4      5.054      6.088
REMARK  7 active torsions:
REMARK  status: ('A' for Active; 'I' for Inactive)
REMARK    1  A    between atoms: C2_2  and  N3_8 
REMARK    2  A    between atoms: N1_3  and  C3_4 
REMARK    3  A    between atoms: N2_5  and  C4_6 
REMARK    4  A    between atoms: C4_6  and  O1_7 
REMARK    5  A    between atoms: N3_8  and  C5_9 
REMARK    6  A    between atoms: C8_12  and  C9_13 
REMARK    7  A    between atoms: C9_13  and  C10_14 
ROOT
HETATM    1  C5  UNL     1      21.605   1.048  51.669  1.00  0.00     0.035 A 
HETATM    2  C6  UNL     1      22.832   1.539  51.956  1.00  0.00     0.030 A 
HETATM    3  C7  UNL     1      23.641   0.962  52.905  1.00  0.00     0.011 A 
HETATM    4  C8  UNL     1      23.279  -0.167  53.649  1.00  0.00    -0.032 A 
HETATM    5  C16 UNL     1      22.032  -0.656  53.348  1.00  0.00     0.042 A 
HETATM    6 CL1  UNL     1      21.496  -2.071  54.221  1.00  0.00    -0.084 Cl
HETATM    7  C17 UNL     1      21.234  -0.066  52.396  1.00  0.00     0.053 A 
ENDROOT
BRANCH   1   8
HETATM    8  N3  UNL     1      20.677   1.547  50.724  1.00  0.00    -0.345 N 
HETATM    9  H8  UNL     1      21.028   1.971  49.813  1.00  0.00     0.167 HD
BRANCH   8  10
HETATM   10  C2  UNL     1      19.273   1.555  50.844  1.00  0.00     0.101 C 
HETATM   11  C1  UNL     1      18.459   0.395  50.373  1.00  0.00     0.091 C 
HETATM   12  N1  UNL     1      18.734   2.591  51.371  1.00  0.00    -0.229 NA
BRANCH  12  13
HETATM   13  C3  UNL     1      17.366   2.812  51.585  1.00  0.00     0.231 C 
HETATM   14  N2  UNL     1      17.037   3.937  52.071  1.00  0.00    -0.257 NA
BRANCH  14  15
HETATM   15  C4  UNL     1      15.725   4.410  52.383  1.00  0.00     0.314 C 
BRANCH  15  16
HETATM   16  O1  UNL     1      15.558   4.383  53.778  1.00  0.00    -0.380 OA
HETATM   17  H7  UNL     1      14.572   4.271  53.918  1.00  0.00     0.211 HD
ENDBRANCH  15  16
ENDBRANCH  14  15
ENDBRANCH  12  13
ENDBRANCH   8  10
ENDBRANCH   1   8
BRANCH   4  18
HETATM   18  C9  UNL     1      24.252  -0.678  54.645  1.00  0.00     0.078 C 
BRANCH  18  19
HETATM   19  C10 UNL     1      25.660  -0.521  54.269  1.00  0.00    -0.051 A 
HETATM   20  C11 UNL     1      26.022  -1.165  53.079  1.00  0.00     0.007 A 
HETATM   21  C12 UNL     1      27.329  -1.114  52.595  1.00  0.00     0.004 A 
HETATM   22  C13 UNL     1      28.312  -0.433  53.260  1.00  0.00     0.042 A 
HETATM   23  C14 UNL     1      27.976   0.205  54.428  1.00  0.00     0.116 A 
HETATM   24  F1  UNL     1      28.864   0.907  55.166  1.00  0.00    -0.206 F 
HETATM   25  C15 UNL     1      26.693   0.147  54.892  1.00  0.00     0.049 A 
ENDBRANCH  18  19
ENDBRANCH   4  18
TORSDOF 7
ENDMDL
MODEL 6
REMARK VINA RESULT:      -7.3      3.037      3.391
REMARK  7 active torsions:
REMARK  status: ('A' for Active; 'I' for Inactive)
REMARK    1  A    between atoms: C2_2  and  N3_8 
REMARK    2  A    between atoms: N1_3  and  C3_4 
REMARK    3  A    between atoms: N2_5  and  C4_6 
REMARK    4  A    between atoms: C4_6  and  O1_7 
REMARK    5  A    between atoms: N3_8  and  C5_9 
REMARK    6  A    between atoms: C8_12  and  C9_13 
REMARK    7  A    between atoms: C9_13  and  C10_14 
ROOT
HETATM    1  C5  UNL     1      25.951   4.587  49.532  1.00  0.00     0.035 A 
HETATM    2  C6  UNL     1      26.607   3.406  49.488  1.00  0.00     0.030 A 
HETATM    3  C7  UNL     1      26.329   2.389  50.369  1.00  0.00     0.011 A 
HETATM    4  C8  UNL     1      25.360   2.478  51.376  1.00  0.00    -0.032 A 
HETATM    5  C16 UNL     1      24.701   3.682  51.409  1.00  0.00     0.042 A 
HETATM    6 CL1  UNL     1      23.465   3.883  52.627  1.00  0.00    -0.084 Cl
HETATM    7  C17 UNL     1      24.991   4.691  50.520  1.00  0.00     0.053 A 
ENDROOT
BRANCH   1   8
HETATM    8  N3  UNL     1      26.141   5.710  48.692  1.00  0.00    -0.345 N 
HETATM    9  H8  UNL     1      25.296   6.213  48.283  1.00  0.00     0.167 HD
BRANCH   8  10
HETATM   10  C2  UNL     1      27.372   6.276  48.305  1.00  0.00     0.101 C 
HETATM   11  C1  UNL     1      27.449   7.692  47.836  1.00  0.00     0.091 C 
HETATM   12  N1  UNL     1      28.410   5.528  48.373  1.00  0.00    -0.229 NA
BRANCH  12  13
HETATM   13  C3  UNL     1      29.726   5.881  48.040  1.00  0.00     0.231 C 
HETATM   14  N2  UNL     1      30.653   5.173  48.541  1.00  0.00    -0.257 NA
BRANCH  14  15
HETATM   15  C4  UNL     1      32.063   5.318  48.363  1.00  0.00     0.314 C 
BRANCH  15  16
HETATM   16  O1  UNL     1      32.688   4.116  48.738  1.00  0.00    -0.380 OA
HETATM   17  H7  UNL     1      32.016   3.400  48.536  1.00  0.00     0.211 HD
ENDBRANCH  15  16
ENDBRANCH  14  15
ENDBRANCH  12  13
ENDBRANCH   8  10
ENDBRANCH   1   8
BRANCH   4  18
HETATM   18  C9  UNL     1      25.172   1.302  52.259  1.00  0.00     0.078 C 
BRANCH  18  19
HETATM   19  C10 UNL     1      26.409   0.745  52.816  1.00  0.00    -0.051 A 
HETATM   20  C11 UNL     1      26.680  -0.575  52.432  1.00  0.00     0.007 A 
HETATM   21  C12 UNL     1      27.816  -1.244  52.887  1.00  0.00     0.004 A 
HETATM   22  C13 UNL     1      28.714  -0.641  53.726  1.00  0.00     0.042 A 
HETATM   23  C14 UNL     1      28.465   0.652  54.112  1.00  0.00     0.116 A 
HETATM   24  F1  UNL     1      29.282   1.345  54.936  1.00  0.00    -0.206 F 
HETATM   25  C15 UNL     1      27.348   1.296  53.661  1.00  0.00     0.049 A 
ENDBRANCH  18  19
ENDBRANCH   4  18
TORSDOF 7
ENDMDL
MODEL 7
REMARK VINA RESULT:      -7.2      3.402      4.244
REMARK  7 active torsions:
REMARK  status: ('A' for Active; 'I' for Inactive)
REMARK    1  A    between atoms: C2_2  and  N3_8 
REMARK    2  A    between atoms: N1_3  and  C3_4 
REMARK    3  A    between atoms: N2_5  and  C4_6 
REMARK    4  A    between atoms: C4_6  and  O1_7 
REMARK    5  A    between atoms: N3_8  and  C5_9 
REMARK    6  A    between atoms: C8_12  and  C9_13 
REMARK    7  A    between atoms: C9_13  and  C10_14 
ROOT
HETATM    1  C5  UNL     1      22.949   4.026  49.471  1.00  0.00     0.035 A 
HETATM    2  C6  UNL     1      23.070   2.779  48.964  1.00  0.00     0.030 A 
HETATM    3  C7  UNL     1      22.438   1.700  49.533  1.00  0.00     0.011 A 
HETATM    4  C8  UNL     1      21.626   1.788  50.670  1.00  0.00    -0.032 A 
HETATM    5  C16 UNL     1      21.512   3.059  51.175  1.00  0.00     0.042 A 
HETATM    6 CL1  UNL     1      20.509   3.269  52.590  1.00  0.00    -0.084 Cl
HETATM    7  C17 UNL     1      22.151   4.129  50.594  1.00  0.00     0.053 A 
ENDROOT
BRANCH   1   8
HETATM    8  N3  UNL     1      23.545   5.215  48.988  1.00  0.00    -0.345 N 
HETATM    9  H8  UNL     1      23.046   5.792  48.244  1.00  0.00     0.167 HD
BRANCH   8  10
HETATM   10  C2  UNL     1      24.783   5.760  49.384  1.00  0.00     0.101 C 
HETATM   11  C1  UNL     1      26.055   5.012  49.156  1.00  0.00     0.091 C 
HETATM   12  N1  UNL     1      24.766   6.914  49.941  1.00  0.00    -0.229 NA
BRANCH  12  13
HETATM   13  C3  UNL     1      25.871   7.638  50.411  1.00  0.00     0.231 C 
HETATM   14  N2  UNL     1      26.333   8.538  49.644  1.00  0.00    -0.257 NA
BRANCH  14  15
HETATM   15  C4  UNL     1      27.440   9.410  49.880  1.00  0.00     0.314 C 
BRANCH  15  16
HETATM   16  O1  UNL     1      27.616   9.547  51.268  1.00  0.00    -0.380 OA
HETATM   17  H7  UNL     1      27.935   8.649  51.578  1.00  0.00     0.211 HD
ENDBRANCH  15  16
ENDBRANCH  14  15
ENDBRANCH  12  13
ENDBRANCH   8  10
ENDBRANCH   1   8
BRANCH   4  18
HETATM   18  C9  UNL     1      21.012   0.537  51.178  1.00  0.00     0.078 C 
BRANCH  18  19
HETATM   19  C10 UNL     1      21.644  -0.016  52.380  1.00  0.00    -0.051 A 
HETATM   20  C11 UNL     1      20.750  -0.559  53.313  1.00  0.00     0.007 A 
HETATM   21  C12 UNL     1      21.199  -1.116  54.509  1.00  0.00     0.004 A 
HETATM   22  C13 UNL     1      22.530  -1.156  54.825  1.00  0.00     0.042 A 
HETATM   23  C14 UNL     1      23.421  -0.629  53.923  1.00  0.00     0.116 A 
HETATM   24  F1  UNL     1      24.756  -0.615  54.129  1.00  0.00    -0.206 F 
HETATM   25  C15 UNL     1      22.968  -0.086  52.755  1.00  0.00     0.049 A 
ENDBRANCH  18  19
ENDBRANCH   4  18
TORSDOF 7
ENDMDL
MODEL 8
REMARK VINA RESULT:      -7.0      4.553      5.394
REMARK  7 active torsions:
REMARK  status: ('A' for Active; 'I' for Inactive)
REMARK    1  A    between atoms: C2_2  and  N3_8 
REMARK    2  A    between atoms: N1_3  and  C3_4 
REMARK    3  A    between atoms: N2_5  and  C4_6 
REMARK    4  A    between atoms: C4_6  and  O1_7 
REMARK    5  A    between atoms: N3_8  and  C5_9 
REMARK    6  A    between atoms: C8_12  and  C9_13 
REMARK    7  A    between atoms: C9_13  and  C10_14 
ROOT
HETATM    1  C5  UNL     1      22.232   1.033  51.461  1.00  0.00     0.035 A 
HETATM    2  C6  UNL     1      22.365   0.462  52.679  1.00  0.00     0.030 A 
HETATM    3  C7  UNL     1      23.548   0.510  53.378  1.00  0.00     0.011 A 
HETATM    4  C8  UNL     1      24.703   1.143  52.904  1.00  0.00    -0.032 A 
HETATM    5  C16 UNL     1      24.554   1.718  51.667  1.00  0.00     0.042 A 
HETATM    6 CL1  UNL     1      25.943   2.540  50.996  1.00  0.00    -0.084 Cl
HETATM    7  C17 UNL     1      23.364   1.661  50.980  1.00  0.00     0.053 A 
ENDROOT
BRANCH   1   8
HETATM    8  N3  UNL     1      21.080   1.052  50.640  1.00  0.00    -0.345 N 
HETATM    9  H8  UNL     1      20.808   0.182  50.090  1.00  0.00     0.167 HD
BRANCH   8  10
HETATM   10  C2  UNL     1      20.201   2.136  50.445  1.00  0.00     0.101 C 
HETATM   11  C1  UNL     1      20.064   2.777  49.103  1.00  0.00     0.091 C 
HETATM   12  N1  UNL     1      19.532   2.541  51.460  1.00  0.00    -0.229 NA
BRANCH  12  13
HETATM   13  C3  UNL     1      18.608   3.596  51.493  1.00  0.00     0.231 C 
HETATM   14  N2  UNL     1      17.399   3.290  51.727  1.00  0.00    -0.257 NA
BRANCH  14  15
HETATM   15  C4  UNL     1      16.272   4.164  51.814  1.00  0.00     0.314 C 
BRANCH  15  16
HETATM   16  O1  UNL     1      16.176   4.642  53.132  1.00  0.00    -0.380 OA
HETATM   17  H7  UNL     1      16.604   3.933  53.696  1.00  0.00     0.211 HD
ENDBRANCH  15  16
ENDBRANCH  14  15
ENDBRANCH  12  13
ENDBRANCH   8  10
ENDBRANCH   1   8
BRANCH   4  18
HETATM   18  C9  UNL     1      25.910   1.109  53.764  1.00  0.00     0.078 C 
BRANCH  18  19
HETATM   19  C10 UNL     1      26.847   0.020  53.472  1.00  0.00    -0.051 A 
HETATM   20  C11 UNL     1      26.264  -1.108  52.879  1.00  0.00     0.007 A 
HETATM   21  C12 UNL     1      27.026  -2.228  52.549  1.00  0.00     0.004 A 
HETATM   22  C13 UNL     1      28.373  -2.275  52.789  1.00  0.00     0.042 A 
HETATM   23  C14 UNL     1      28.961  -1.178  53.369  1.00  0.00     0.116 A 
HETATM   24  F1  UNL     1      30.281  -1.113  53.649  1.00  0.00    -0.206 F 
HETATM   25  C15 UNL     1      28.204  -0.087  53.688  1.00  0.00     0.049 A 
ENDBRANCH  18  19
ENDBRANCH   4  18
TORSDOF 7
ENDMDL
MODEL 9
REMARK VINA RESULT:      -7.0      3.484      4.523
REMARK  7 active torsions:
REMARK  status: ('A' for Active; 'I' for Inactive)
REMARK    1  A    between atoms: C2_2  and  N3_8 
REMARK    2  A    between atoms: N1_3  and  C3_4 
REMARK    3  A    between atoms: N2_5  and  C4_6 
REMARK    4  A    between atoms: C4_6  and  O1_7 
REMARK    5  A    between atoms: N3_8  and  C5_9 
REMARK    6  A    between atoms: C8_12  and  C9_13 
REMARK    7  A    between atoms: C9_13  and  C10_14 
ROOT
HETATM    1  C5  UNL     1      24.535   2.969  49.891  1.00  0.00     0.035 A 
HETATM    2  C6  UNL     1      25.860   3.232  49.855  1.00  0.00     0.030 A 
HETATM    3  C7  UNL     1      26.692   2.912  50.901  1.00  0.00     0.011 A 
HETATM    4  C8  UNL     1      26.254   2.296  52.079  1.00  0.00    -0.032 A 
HETATM    5  C16 UNL     1      24.907   2.034  52.102  1.00  0.00     0.042 A 
HETATM    6 CL1  UNL     1      24.269   1.256  53.531  1.00  0.00    -0.084 Cl
HETATM    7  C17 UNL     1      24.087   2.361  51.047  1.00  0.00     0.053 A 
ENDROOT
BRANCH   1   8
HETATM    8  N3  UNL     1      23.574   3.249  48.890  1.00  0.00    -0.345 N 
HETATM    9  H8  UNL     1      23.850   3.827  48.040  1.00  0.00     0.167 HD
BRANCH   8  10
HETATM   10  C2  UNL     1      22.226   2.840  48.878  1.00  0.00     0.101 C 
HETATM   11  C1  UNL     1      21.826   1.545  48.250  1.00  0.00     0.091 C 
HETATM   12  N1  UNL     1      21.369   3.621  49.424  1.00  0.00    -0.229 NA
BRANCH  12  13
HETATM   13  C3  UNL     1      19.985   3.414  49.524  1.00  0.00     0.231 C 
HETATM   14  N2  UNL     1      19.535   3.100  50.668  1.00  0.00    -0.257 NA
BRANCH  14  15
HETATM   15  C4  UNL     1      18.180   2.838  51.038  1.00  0.00     0.314 C 
BRANCH  15  16
HETATM   16  O1  UNL     1      17.802   3.752  52.037  1.00  0.00    -0.380 OA
HETATM   17  H7  UNL     1      16.834   3.558  52.212  1.00  0.00     0.211 HD
ENDBRANCH  15  16
ENDBRANCH  14  15
ENDBRANCH  12  13
ENDBRANCH   8  10
ENDBRANCH   1   8
BRANCH   4  18
HETATM   18  C9  UNL     1      27.264   2.015  53.128  1.00  0.00     0.078 C 
BRANCH  18  19
HETATM   19  C10 UNL     1      27.801   0.651  53.118  1.00  0.00    -0.051 A 
HETATM   20  C11 UNL     1      29.112   0.535  53.603  1.00  0.00     0.007 A 
HETATM   21  C12 UNL     1      29.761  -0.697  53.649  1.00  0.00     0.004 A 
HETATM   22  C13 UNL     1      29.150  -1.846  53.224  1.00  0.00     0.042 A 
HETATM   23  C14 UNL     1      27.866  -1.752  52.747  1.00  0.00     0.116 A 
HETATM   24  F1  UNL     1      27.166  -2.819  52.303  1.00  0.00    -0.206 F 
HETATM   25  C15 UNL     1      27.240  -0.539  52.706  1.00  0.00     0.049 A 
ENDBRANCH  18  19
ENDBRANCH   4  18
TORSDOF 7
ENDMDL
