MODEL 1
REMARK VINA RESULT:      -8.8      0.000      0.000
REMARK  5 active torsions:
REMARK  status: ('A' for Active; 'I' for Inactive)
REMARK    1  A    between atoms: C7_7  and  N1_8 
REMARK    2  A    between atoms: N1_8  and  C8_9 
REMARK    3  A    between atoms: C13_16  and  C14_17 
REMARK    4  A    between atoms: C14_17  and  C15_18 
REMARK    5  A    between atoms: C15_18  and  O1_19 
ROOT
HETATM    1  C1  UNL     1      30.379   5.451  47.808  1.00  0.00     0.018 C 
HETATM    2  C2  UNL     1      29.208   5.496  48.150  1.00  0.00    -0.078 C 
HETATM    3  C3  UNL     1      27.830   5.569  48.540  1.00  0.00     0.019 A 
HETATM    4  C4  UNL     1      27.196   6.765  48.454  1.00  0.00     0.021 A 
HETATM    5  C5  UNL     1      25.855   6.837  48.832  1.00  0.00     0.004 A 
HETATM    6  C6  UNL     1      25.210   5.712  49.276  1.00  0.00     0.029 A 
HETATM    7  C7  UNL     1      25.827   4.461  49.380  1.00  0.00     0.035 A 
HETATM    8  C22 UNL     1      27.155   4.466  48.989  1.00  0.00     0.050 A 
ENDROOT
BRANCH   7   9
HETATM    9  N1  UNL     1      25.055   3.359  49.825  1.00  0.00    -0.340 N 
HETATM   10  H5  UNL     1      24.243   3.413  49.174  1.00  0.00     0.167 HD
BRANCH   9  11
HETATM   11  C8  UNL     1      25.545   2.564  50.919  1.00  0.00     0.142 A 
HETATM   12  N2  UNL     1      26.822   2.794  51.232  1.00  0.00    -0.224 NA
HETATM   13  C9  UNL     1      27.331   2.086  52.246  1.00  0.00     0.235 A 
HETATM   14  N3  UNL     1      26.548   1.178  52.911  1.00  0.00    -0.241 NA
HETATM   15  C10 UNL     1      25.266   1.001  52.539  1.00  0.00     0.070 A 
HETATM   16  C11 UNL     1      24.684   1.688  51.514  1.00  0.00     0.039 A 
HETATM   17  C21 UNL     1      25.049   0.099  53.452  1.00  0.00     0.032 C 
HETATM   18  C12 UNL     1      23.459   1.501  51.163  1.00  0.00     0.026 C 
HETATM   19  C13 UNL     1      22.186   0.912  51.245  1.00  0.00    -0.033 C 
HETATM   20  C17 UNL     1      21.655  -0.017  52.065  1.00  0.00     0.141 C 
HETATM   21  O2  UNL     1      21.957  -0.834  53.146  1.00  0.00    -0.360 OA
HETATM   22  C18 UNL     1      21.682  -0.610  54.478  1.00  0.00     0.200 C 
HETATM   23  C19 UNL     1      22.673  -1.343  55.346  1.00  0.00     0.194 C 
HETATM   24  O3  UNL     1      23.894  -1.028  55.248  1.00  0.00    -0.385 OA
HETATM   25  C20 UNL     1      24.957  -0.890  54.519  1.00  0.00     0.197 C 
BRANCH  19  26
HETATM   26  C14 UNL     1      21.105   1.315  50.251  1.00  0.00     0.066 C 
BRANCH  26  27
HETATM   27  C15 UNL     1      21.413   2.642  49.658  1.00  0.00     0.171 C 
BRANCH  27  28
HETATM   28  O1  UNL     1      20.907   3.668  50.405  1.00  0.00    -0.396 OA
HETATM   29  C16 UNL     1      21.696   4.790  50.382  1.00  0.00     0.201 C 
ENDBRANCH  27  28
ENDBRANCH  26  27
ENDBRANCH  19  26
ENDBRANCH   9  11
ENDBRANCH   7   9
TORSDOF 5
ENDMDL
MODEL 2
REMARK VINA RESULT:      -8.6      3.787      5.604
REMARK  5 active torsions:
REMARK  status: ('A' for Active; 'I' for Inactive)
REMARK    1  A    between atoms: C7_7  and  N1_8 
REMARK    2  A    between atoms: N1_8  and  C8_9 
REMARK    3  A    between atoms: C13_16  and  C14_17 
REMARK    4  A    between atoms: C14_17  and  C15_18 
REMARK    5  A    between atoms: C15_18  and  O1_19 
ROOT
HETATM    1  C1  UNL     1      28.826  -2.702  53.085  1.00  0.00     0.018 C 
HETATM    2  C2  UNL     1      28.148  -1.687  53.112  1.00  0.00    -0.078 C 
HETATM    3  C3  UNL     1      27.371  -0.483  53.145  1.00  0.00     0.019 A 
HETATM    4  C4  UNL     1      27.972   0.664  53.552  1.00  0.00     0.021 A 
HETATM    5  C5  UNL     1      27.217   1.837  53.582  1.00  0.00     0.004 A 
HETATM    6  C6  UNL     1      25.899   1.810  53.206  1.00  0.00     0.029 A 
HETATM    7  C7  UNL     1      25.243   0.650  52.781  1.00  0.00     0.035 A 
HETATM    8  C22 UNL     1      26.052  -0.472  52.777  1.00  0.00     0.050 A 
ENDROOT
BRANCH   7   9
HETATM    9  N1  UNL     1      23.885   0.747  52.388  1.00  0.00    -0.340 N 
HETATM   10  H5  UNL     1      23.961   1.392  51.573  1.00  0.00     0.167 HD
BRANCH   9  11
HETATM   11  C8  UNL     1      22.893   0.015  53.129  1.00  0.00     0.142 A 
HETATM   12  N2  UNL     1      23.346  -0.522  54.265  1.00  0.00    -0.224 NA
HETATM   13  C9  UNL     1      22.466  -1.210  54.999  1.00  0.00     0.235 A 
HETATM   14  N3  UNL     1      21.168  -1.338  54.575  1.00  0.00    -0.241 NA
HETATM   15  C10 UNL     1      20.784  -0.767  53.418  1.00  0.00     0.070 A 
HETATM   16  C11 UNL     1      21.629  -0.053  52.620  1.00  0.00     0.039 A 
HETATM   17  C21 UNL     1      19.557  -1.188  53.533  1.00  0.00     0.032 C 
HETATM   18  C12 UNL     1      21.249   0.479  51.511  1.00  0.00     0.026 C 
HETATM   19  C13 UNL     1      20.325   0.798  50.501  1.00  0.00    -0.033 C 
HETATM   20  C17 UNL     1      19.014   0.529  50.338  1.00  0.00     0.141 C 
HETATM   21  O2  UNL     1      17.937  -0.110  50.938  1.00  0.00    -0.360 OA
HETATM   22  C18 UNL     1      16.940   0.455  51.705  1.00  0.00     0.200 C 
HETATM   23  C19 UNL     1      16.371  -0.568  52.654  1.00  0.00     0.194 C 
HETATM   24  O3  UNL     1      17.146  -1.074  53.517  1.00  0.00    -0.385 OA
HETATM   25  C20 UNL     1      18.229  -1.726  53.799  1.00  0.00     0.197 C 
BRANCH  19  26
HETATM   26  C14 UNL     1      20.782   1.596  49.287  1.00  0.00     0.066 C 
BRANCH  26  27
HETATM   27  C15 UNL     1      22.143   2.149  49.511  1.00  0.00     0.171 C 
BRANCH  27  28
HETATM   28  O1  UNL     1      22.121   3.500  49.713  1.00  0.00    -0.396 OA
HETATM   29  C16 UNL     1      22.284   3.850  51.029  1.00  0.00     0.201 C 
ENDBRANCH  27  28
ENDBRANCH  26  27
ENDBRANCH  19  26
ENDBRANCH   9  11
ENDBRANCH   7   9
TORSDOF 5
ENDMDL
MODEL 3
REMARK VINA RESULT:      -8.5      1.822      4.104
REMARK  5 active torsions:
REMARK  status: ('A' for Active; 'I' for Inactive)
REMARK    1  A    between atoms: C7_7  and  N1_8 
REMARK    2  A    between atoms: N1_8  and  C8_9 
REMARK    3  A    between atoms: C13_16  and  C14_17 
REMARK    4  A    between atoms: C14_17  and  C15_18 
REMARK    5  A    between atoms: C15_18  and  O1_19 
ROOT
HETATM    1  C1  UNL     1      29.124   7.113  47.364  1.00  0.00     0.018 C 
HETATM    2  C2  UNL     1      28.172   6.755  48.038  1.00  0.00    -0.078 C 
HETATM    3  C3  UNL     1      27.048   6.357  48.834  1.00  0.00     0.019 A 
HETATM    4  C4  UNL     1      26.460   7.283  49.632  1.00  0.00     0.021 A 
HETATM    5  C5  UNL     1      25.364   6.897  50.406  1.00  0.00     0.004 A 
HETATM    6  C6  UNL     1      24.908   5.606  50.346  1.00  0.00     0.029 A 
HETATM    7  C7  UNL     1      25.486   4.622  49.537  1.00  0.00     0.035 A 
HETATM    8  C22 UNL     1      26.566   5.076  48.800  1.00  0.00     0.050 A 
ENDROOT
BRANCH   7   9
HETATM    9  N1  UNL     1      24.912   3.326  49.533  1.00  0.00    -0.340 N 
HETATM   10  H5  UNL     1      25.687   2.769  49.116  1.00  0.00     0.167 HD
BRANCH   9  11
HETATM   11  C8  UNL     1      23.579   3.155  50.046  1.00  0.00     0.142 A 
HETATM   12  N2  UNL     1      22.661   3.917  49.445  1.00  0.00    -0.224 NA
HETATM   13  C9  UNL     1      21.402   3.796  49.878  1.00  0.00     0.235 A 
HETATM   14  N3  UNL     1      21.104   2.922  50.891  1.00  0.00    -0.241 NA
HETATM   15  C10 UNL     1      22.084   2.186  51.449  1.00  0.00     0.070 A 
HETATM   16  C11 UNL     1      23.389   2.259  51.058  1.00  0.00     0.039 A 
HETATM   17  C21 UNL     1      21.269   1.595  52.276  1.00  0.00     0.032 C 
HETATM   18  C12 UNL     1      24.316   1.556  51.607  1.00  0.00     0.026 C 
HETATM   19  C13 UNL     1      24.834   0.611  52.509  1.00  0.00    -0.033 C 
HETATM   20  C17 UNL     1      24.265  -0.160  53.458  1.00  0.00     0.141 C 
HETATM   21  O2  UNL     1      23.045  -0.465  54.044  1.00  0.00    -0.360 OA
HETATM   22  C18 UNL     1      22.216  -1.531  53.767  1.00  0.00     0.200 C 
HETATM   23  C19 UNL     1      20.789  -1.184  54.107  1.00  0.00     0.194 C 
HETATM   24  O3  UNL     1      20.245  -0.227  53.483  1.00  0.00    -0.385 OA
HETATM   25  C20 UNL     1      20.243   1.021  53.136  1.00  0.00     0.197 C 
BRANCH  19  26
HETATM   26  C14 UNL     1      26.329   0.323  52.523  1.00  0.00     0.066 C 
BRANCH  26  27
HETATM   27  C15 UNL     1      26.609  -0.941  53.252  1.00  0.00     0.171 C 
BRANCH  27  28
HETATM   28  O1  UNL     1      27.749  -0.861  54.000  1.00  0.00    -0.396 OA
HETATM   29  C16 UNL     1      27.780   0.240  54.818  1.00  0.00     0.201 C 
ENDBRANCH  27  28
ENDBRANCH  26  27
ENDBRANCH  19  26
ENDBRANCH   9  11
ENDBRANCH   7   9
TORSDOF 5
ENDMDL
MODEL 4
REMARK VINA RESULT:      -8.2      3.077      6.753
REMARK  5 active torsions:
REMARK  status: ('A' for Active; 'I' for Inactive)
REMARK    1  A    between atoms: C7_7  and  N1_8 
REMARK    2  A    between atoms: N1_8  and  C8_9 
REMARK    3  A    between atoms: C13_16  and  C14_17 
REMARK    4  A    between atoms: C14_17  and  C15_18 
REMARK    5  A    between atoms: C15_18  and  O1_19 
ROOT
HETATM    1  C1  UNL     1      15.967  -0.255  51.249  1.00  0.00     0.018 C 
HETATM    2  C2  UNL     1      17.006   0.386  51.287  1.00  0.00    -0.078 C 
HETATM    3  C3  UNL     1      18.214   1.155  51.342  1.00  0.00     0.019 A 
HETATM    4  C4  UNL     1      18.120   2.492  51.557  1.00  0.00     0.021 A 
HETATM    5  C5  UNL     1      19.296   3.242  51.612  1.00  0.00     0.004 A 
HETATM    6  C6  UNL     1      20.508   2.623  51.451  1.00  0.00     0.029 A 
HETATM    7  C7  UNL     1      20.648   1.249  51.227  1.00  0.00     0.035 A 
HETATM    8  C22 UNL     1      19.442   0.571  51.184  1.00  0.00     0.050 A 
ENDROOT
BRANCH   7   9
HETATM    9  N1  UNL     1      21.954   0.713  51.103  1.00  0.00    -0.340 N 
HETATM   10  H5  UNL     1      22.123   0.841  50.083  1.00  0.00     0.167 HD
BRANCH   9  11
HETATM   11  C8  UNL     1      22.609   0.203  52.278  1.00  0.00     0.142 A 
HETATM   12  N2  UNL     1      21.866  -0.645  52.994  1.00  0.00    -0.224 NA
HETATM   13  C9  UNL     1      22.426  -1.155  54.095  1.00  0.00     0.235 A 
HETATM   14  N3  UNL     1      23.705  -0.803  54.442  1.00  0.00    -0.241 NA
HETATM   15  C10 UNL     1      24.394   0.058  53.669  1.00  0.00     0.070 A 
HETATM   16  C11 UNL     1      23.884   0.617  52.534  1.00  0.00     0.039 A 
HETATM   17  C21 UNL     1      25.449   0.011  54.432  1.00  0.00     0.032 C 
HETATM   18  C12 UNL     1      24.551   1.447  51.811  1.00  0.00     0.026 C 
HETATM   19  C13 UNL     1      25.673   2.219  51.464  1.00  0.00    -0.033 C 
HETATM   20  C17 UNL     1      26.889   2.375  52.025  1.00  0.00     0.141 C 
HETATM   21  O2  UNL     1      27.671   1.960  53.094  1.00  0.00    -0.360 OA
HETATM   22  C18 UNL     1      28.640   0.980  53.102  1.00  0.00     0.200 C 
HETATM   23  C19 UNL     1      28.789   0.405  54.488  1.00  0.00     0.194 C 
HETATM   24  O3  UNL     1      27.788  -0.177  54.999  1.00  0.00    -0.385 OA
HETATM   25  C20 UNL     1      26.548  -0.143  55.376  1.00  0.00     0.197 C 
BRANCH  19  26
HETATM   26  C14 UNL     1      25.620   3.112  50.232  1.00  0.00     0.066 C 
BRANCH  26  27
HETATM   27  C15 UNL     1      24.379   3.929  50.235  1.00  0.00     0.171 C 
BRANCH  27  28
HETATM   28  O1  UNL     1      24.434   4.943  51.150  1.00  0.00    -0.396 OA
HETATM   29  C16 UNL     1      23.268   5.092  51.859  1.00  0.00     0.201 C 
ENDBRANCH  27  28
ENDBRANCH  26  27
ENDBRANCH  19  26
ENDBRANCH   9  11
ENDBRANCH   7   9
TORSDOF 5
ENDMDL
MODEL 5
REMARK VINA RESULT:      -8.1      2.991      6.598
REMARK  5 active torsions:
REMARK  status: ('A' for Active; 'I' for Inactive)
REMARK    1  A    between atoms: C7_7  and  N1_8 
REMARK    2  A    between atoms: N1_8  and  C8_9 
REMARK    3  A    between atoms: C13_16  and  C14_17 
REMARK    4  A    between atoms: C14_17  and  C15_18 
REMARK    5  A    between atoms: C15_18  and  O1_19 
ROOT
HETATM    1  C1  UNL     1      28.886  -2.124  53.057  1.00  0.00     0.018 C 
HETATM    2  C2  UNL     1      28.146  -1.153  53.054  1.00  0.00    -0.078 C 
HETATM    3  C3  UNL     1      27.286  -0.006  53.070  1.00  0.00     0.019 A 
HETATM    4  C4  UNL     1      27.128   0.668  54.237  1.00  0.00     0.021 A 
HETATM    5  C5  UNL     1      26.293   1.785  54.254  1.00  0.00     0.004 A 
HETATM    6  C6  UNL     1      25.655   2.177  53.106  1.00  0.00     0.029 A 
HETATM    7  C7  UNL     1      25.790   1.510  51.884  1.00  0.00     0.035 A 
HETATM    8  C22 UNL     1      26.632   0.413  51.943  1.00  0.00     0.050 A 
ENDROOT
BRANCH   7   9
HETATM    9  N1  UNL     1      25.105   2.023  50.754  1.00  0.00    -0.340 N 
HETATM   10  H5  UNL     1      24.398   1.274  50.597  1.00  0.00     0.167 HD
BRANCH   9  11
HETATM   11  C8  UNL     1      25.521   3.284  50.202  1.00  0.00     0.142 A 
HETATM   12  N2  UNL     1      26.727   3.258  49.629  1.00  0.00    -0.224 NA
HETATM   13  C9  UNL     1      27.164   4.403  49.094  1.00  0.00     0.235 A 
HETATM   14  N3  UNL     1      26.384   5.529  49.149  1.00  0.00    -0.241 NA
HETATM   15  C10 UNL     1      25.178   5.478  49.744  1.00  0.00     0.070 A 
HETATM   16  C11 UNL     1      24.670   4.346  50.310  1.00  0.00     0.039 A 
HETATM   17  C21 UNL     1      24.926   6.733  49.505  1.00  0.00     0.032 C 
HETATM   18  C12 UNL     1      23.519   4.315  50.884  1.00  0.00     0.026 C 
HETATM   19  C13 UNL     1      22.298   4.857  51.323  1.00  0.00    -0.033 C 
HETATM   20  C17 UNL     1      21.751   6.085  51.223  1.00  0.00     0.141 C 
HETATM   21  O2  UNL     1      21.985   7.358  50.722  1.00  0.00    -0.360 OA
HETATM   22  C18 UNL     1      21.530   7.898  49.538  1.00  0.00     0.200 C 
HETATM   23  C19 UNL     1      22.464   8.983  49.066  1.00  0.00     0.194 C 
HETATM   24  O3  UNL     1      23.658   8.661  48.796  1.00  0.00    -0.385 OA
HETATM   25  C20 UNL     1      24.787   8.144  49.167  1.00  0.00     0.197 C 
BRANCH  19  26
HETATM   26  C14 UNL     1      21.318   3.981  52.091  1.00  0.00     0.066 C 
BRANCH  26  27
HETATM   27  C15 UNL     1      20.008   3.930  51.392  1.00  0.00     0.171 C 
BRANCH  27  28
HETATM   28  O1  UNL     1      19.004   3.502  52.213  1.00  0.00    -0.396 OA
HETATM   29  C16 UNL     1      18.110   2.673  51.583  1.00  0.00     0.201 C 
ENDBRANCH  27  28
ENDBRANCH  26  27
ENDBRANCH  19  26
ENDBRANCH   9  11
ENDBRANCH   7   9
TORSDOF 5
ENDMDL
MODEL 6
REMARK VINA RESULT:      -8.1      2.749      5.845
REMARK  5 active torsions:
REMARK  status: ('A' for Active; 'I' for Inactive)
REMARK    1  A    between atoms: C7_7  and  N1_8 
REMARK    2  A    between atoms: N1_8  and  C8_9 
REMARK    3  A    between atoms: C13_16  and  C14_17 
REMARK    4  A    between atoms: C14_17  and  C15_18 
REMARK    5  A    between atoms: C15_18  and  O1_19 
ROOT
HETATM    1  C1  UNL     1      27.012  -0.622  52.722  1.00  0.00     0.018 C 
HETATM    2  C2  UNL     1      26.543   0.422  52.295  1.00  0.00    -0.078 C 
HETATM    3  C3  UNL     1      26.001   1.642  51.774  1.00  0.00     0.019 A 
HETATM    4  C4  UNL     1      26.468   2.102  50.586  1.00  0.00     0.021 A 
HETATM    5  C5  UNL     1      25.939   3.288  50.076  1.00  0.00     0.004 A 
HETATM    6  C6  UNL     1      24.969   3.958  50.775  1.00  0.00     0.029 A 
HETATM    7  C7  UNL     1      24.461   3.519  52.002  1.00  0.00     0.035 A 
HETATM    8  C22 UNL     1      25.032   2.338  52.445  1.00  0.00     0.050 A 
ENDROOT
BRANCH   7   9
HETATM    9  N1  UNL     1      23.438   4.278  52.623  1.00  0.00    -0.340 N 
HETATM   10  H5  UNL     1      23.889   4.510  53.532  1.00  0.00     0.167 HD
BRANCH   9  11
HETATM   11  C8  UNL     1      22.207   4.495  51.912  1.00  0.00     0.142 A 
HETATM   12  N2  UNL     1      22.127   5.683  51.307  1.00  0.00    -0.224 NA
HETATM   13  C9  UNL     1      21.006   5.938  50.626  1.00  0.00     0.235 A 
HETATM   14  N3  UNL     1      20.006   5.001  50.571  1.00  0.00    -0.241 NA
HETATM   15  C10 UNL     1      20.158   3.824  51.207  1.00  0.00     0.070 A 
HETATM   16  C11 UNL     1      21.274   3.498  51.920  1.00  0.00     0.039 A 
HETATM   17  C21 UNL     1      18.992   3.386  50.828  1.00  0.00     0.032 C 
HETATM   18  C12 UNL     1      21.402   2.372  52.530  1.00  0.00     0.026 C 
HETATM   19  C13 UNL     1      20.992   1.092  52.941  1.00  0.00    -0.033 C 
HETATM   20  C17 UNL     1      19.878   0.367  52.713  1.00  0.00     0.141 C 
HETATM   21  O2  UNL     1      18.656   0.403  52.057  1.00  0.00    -0.360 OA
HETATM   22  C18 UNL     1      18.337  -0.144  50.833  1.00  0.00     0.200 C 
HETATM   23  C19 UNL     1      17.194   0.613  50.205  1.00  0.00     0.194 C 
HETATM   24  O3  UNL     1      17.370   1.837  49.936  1.00  0.00    -0.385 OA
HETATM   25  C20 UNL     1      17.668   3.035  50.330  1.00  0.00     0.197 C 
BRANCH  19  26
HETATM   26  C14 UNL     1      21.901   0.263  53.839  1.00  0.00     0.066 C 
BRANCH  26  27
HETATM   27  C15 UNL     1      21.111  -0.754  54.581  1.00  0.00     0.171 C 
BRANCH  27  28
HETATM   28  O1  UNL     1      21.910  -1.666  55.209  1.00  0.00    -0.396 OA
HETATM   29  C16 UNL     1      23.220  -1.267  55.293  1.00  0.00     0.201 C 
ENDBRANCH  27  28
ENDBRANCH  26  27
ENDBRANCH  19  26
ENDBRANCH   9  11
ENDBRANCH   7   9
TORSDOF 5
ENDMDL
MODEL 7
REMARK VINA RESULT:      -8.0      2.279      4.885
REMARK  5 active torsions:
REMARK  status: ('A' for Active; 'I' for Inactive)
REMARK    1  A    between atoms: C7_7  and  N1_8 
REMARK    2  A    between atoms: N1_8  and  C8_9 
REMARK    3  A    between atoms: C13_16  and  C14_17 
REMARK    4  A    between atoms: C14_17  and  C15_18 
REMARK    5  A    between atoms: C15_18  and  O1_19 
ROOT
HETATM    1  C1  UNL     1      27.921   7.923  47.230  1.00  0.00     0.018 C 
HETATM    2  C2  UNL     1      27.412   7.070  47.940  1.00  0.00    -0.078 C 
HETATM    3  C3  UNL     1      26.830   6.055  48.769  1.00  0.00     0.019 A 
HETATM    4  C4  UNL     1      27.242   4.773  48.606  1.00  0.00     0.021 A 
HETATM    5  C5  UNL     1      26.679   3.784  49.413  1.00  0.00     0.004 A 
HETATM    6  C6  UNL     1      25.731   4.122  50.345  1.00  0.00     0.029 A 
HETATM    7  C7  UNL     1      25.280   5.431  50.544  1.00  0.00     0.035 A 
HETATM    8  C22 UNL     1      25.882   6.356  49.709  1.00  0.00     0.050 A 
ENDROOT
BRANCH   7   9
HETATM    9  N1  UNL     1      24.317   5.668  51.557  1.00  0.00    -0.340 N 
HETATM   10  H5  UNL     1      24.934   5.851  52.376  1.00  0.00     0.167 HD
BRANCH   9  11
HETATM   11  C8  UNL     1      22.921   5.603  51.217  1.00  0.00     0.142 A 
HETATM   12  N2  UNL     1      22.446   6.711  50.644  1.00  0.00    -0.224 NA
HETATM   13  C9  UNL     1      21.153   6.705  50.301  1.00  0.00     0.235 A 
HETATM   14  N3  UNL     1      20.384   5.596  50.541  1.00  0.00    -0.241 NA
HETATM   15  C10 UNL     1      20.934   4.514  51.123  1.00  0.00     0.070 A 
HETATM   16  C11 UNL     1      22.244   4.452  51.499  1.00  0.00     0.039 A 
HETATM   17  C21 UNL     1      19.820   3.840  51.092  1.00  0.00     0.032 C 
HETATM   18  C12 UNL     1      22.754   3.413  52.063  1.00  0.00     0.026 C 
HETATM   19  C13 UNL     1      22.735   2.110  52.589  1.00  0.00    -0.033 C 
HETATM   20  C17 UNL     1      21.768   1.175  52.691  1.00  0.00     0.141 C 
HETATM   21  O2  UNL     1      20.431   0.937  52.404  1.00  0.00    -0.360 OA
HETATM   22  C18 UNL     1      19.906   0.259  51.325  1.00  0.00     0.200 C 
HETATM   23  C19 UNL     1      18.509   0.744  51.034  1.00  0.00     0.194 C 
HETATM   24  O3  UNL     1      18.357   1.958  50.711  1.00  0.00    -0.385 OA
HETATM   25  C20 UNL     1      18.508   3.215  50.990  1.00  0.00     0.197 C 
BRANCH  19  26
HETATM   26  C14 UNL     1      23.999   1.529  53.207  1.00  0.00     0.066 C 
BRANCH  26  27
HETATM   27  C15 UNL     1      23.976   0.044  53.138  1.00  0.00     0.171 C 
BRANCH  27  28
HETATM   28  O1  UNL     1      25.178  -0.504  53.485  1.00  0.00    -0.396 OA
HETATM   29  C16 UNL     1      25.952   0.333  54.249  1.00  0.00     0.201 C 
ENDBRANCH  27  28
ENDBRANCH  26  27
ENDBRANCH  19  26
ENDBRANCH   9  11
ENDBRANCH   7   9
TORSDOF 5
ENDMDL
MODEL 8
REMARK VINA RESULT:      -8.0      2.527      5.156
REMARK  5 active torsions:
REMARK  status: ('A' for Active; 'I' for Inactive)
REMARK    1  A    between atoms: C7_7  and  N1_8 
REMARK    2  A    between atoms: N1_8  and  C8_9 
REMARK    3  A    between atoms: C13_16  and  C14_17 
REMARK    4  A    between atoms: C14_17  and  C15_18 
REMARK    5  A    between atoms: C15_18  and  O1_19 
ROOT
HETATM    1  C1  UNL     1      19.354   5.874  46.409  1.00  0.00     0.018 C 
HETATM    2  C2  UNL     1      19.976   5.662  47.438  1.00  0.00    -0.078 C 
HETATM    3  C3  UNL     1      20.695   5.432  48.657  1.00  0.00     0.019 A 
HETATM    4  C4  UNL     1      20.734   6.423  49.582  1.00  0.00     0.021 A 
HETATM    5  C5  UNL     1      21.432   6.199  50.769  1.00  0.00     0.004 A 
HETATM    6  C6  UNL     1      22.058   4.997  50.976  1.00  0.00     0.029 A 
HETATM    7  C7  UNL     1      22.042   3.951  50.048  1.00  0.00     0.035 A 
HETATM    8  C22 UNL     1      21.333   4.245  48.897  1.00  0.00     0.050 A 
ENDROOT
BRANCH   7   9
HETATM    9  N1  UNL     1      22.701   2.741  50.381  1.00  0.00    -0.340 N 
HETATM   10  H5  UNL     1      21.894   2.083  50.421  1.00  0.00     0.167 HD
BRANCH   9  11
HETATM   11  C8  UNL     1      24.129   2.751  50.550  1.00  0.00     0.142 A 
HETATM   12  N2  UNL     1      24.769   3.596  49.739  1.00  0.00    -0.224 NA
HETATM   13  C9  UNL     1      26.100   3.652  49.855  1.00  0.00     0.235 A 
HETATM   14  N3  UNL     1      26.743   2.864  50.775  1.00  0.00    -0.241 NA
HETATM   15  C10 UNL     1      26.029   2.035  51.560  1.00  0.00     0.070 A 
HETATM   16  C11 UNL     1      24.671   1.927  51.494  1.00  0.00     0.039 A 
HETATM   17  C21 UNL     1      27.087   1.590  52.176  1.00  0.00     0.032 C 
HETATM   18  C12 UNL     1      24.003   1.123  52.244  1.00  0.00     0.026 C 
HETATM   19  C13 UNL     1      23.845   0.150  53.246  1.00  0.00    -0.033 C 
HETATM   20  C17 UNL     1      24.717  -0.486  54.054  1.00  0.00     0.141 C 
HETATM   21  O2  UNL     1      26.067  -0.578  54.363  1.00  0.00    -0.360 OA
HETATM   22  C18 UNL     1      26.742   0.039  55.395  1.00  0.00     0.200 C 
HETATM   23  C19 UNL     1      28.196   0.213  55.037  1.00  0.00     0.194 C 
HETATM   24  O3  UNL     1      28.478   0.936  54.037  1.00  0.00    -0.385 OA
HETATM   25  C20 UNL     1      28.355   1.189  52.772  1.00  0.00     0.197 C 
BRANCH  19  26
HETATM   26  C14 UNL     1      22.455  -0.383  53.566  1.00  0.00     0.066 C 
BRANCH  26  27
HETATM   27  C15 UNL     1      22.504  -1.295  54.738  1.00  0.00     0.171 C 
BRANCH  27  28
HETATM   28  O1  UNL     1      21.287  -1.854  55.005  1.00  0.00    -0.396 OA
HETATM   29  C16 UNL     1      20.330  -1.531  54.076  1.00  0.00     0.201 C 
ENDBRANCH  27  28
ENDBRANCH  26  27
ENDBRANCH  19  26
ENDBRANCH   9  11
ENDBRANCH   7   9
TORSDOF 5
ENDMDL
MODEL 9
REMARK VINA RESULT:      -7.9      1.508      2.856
REMARK  5 active torsions:
REMARK  status: ('A' for Active; 'I' for Inactive)
REMARK    1  A    between atoms: C7_7  and  N1_8 
REMARK    2  A    between atoms: N1_8  and  C8_9 
REMARK    3  A    between atoms: C13_16  and  C14_17 
REMARK    4  A    between atoms: C14_17  and  C15_18 
REMARK    5  A    between atoms: C15_18  and  O1_19 
ROOT
HETATM    1  C1  UNL     1      21.167   7.761  50.815  1.00  0.00     0.018 C 
HETATM    2  C2  UNL     1      22.261   7.291  50.548  1.00  0.00    -0.078 C 
HETATM    3  C3  UNL     1      23.556   6.759  50.240  1.00  0.00     0.019 A 
HETATM    4  C4  UNL     1      24.602   7.618  50.142  1.00  0.00     0.021 A 
HETATM    5  C5  UNL     1      25.863   7.100  49.845  1.00  0.00     0.004 A 
HETATM    6  C6  UNL     1      26.021   5.751  49.660  1.00  0.00     0.029 A 
HETATM    7  C7  UNL     1      24.970   4.833  49.751  1.00  0.00     0.035 A 
HETATM    8  C22 UNL     1      23.750   5.417  50.048  1.00  0.00     0.050 A 
ENDROOT
BRANCH   7   9
HETATM    9  N1  UNL     1      25.255   3.457  49.569  1.00  0.00    -0.340 N 
HETATM   10  H5  UNL     1      25.142   3.368  48.537  1.00  0.00     0.167 HD
BRANCH   9  11
HETATM   11  C8  UNL     1      25.584   2.658  50.719  1.00  0.00     0.142 A 
HETATM   12  N2  UNL     1      26.832   2.826  51.162  1.00  0.00    -0.224 NA
HETATM   13  C9  UNL     1      27.192   2.111  52.233  1.00  0.00     0.235 A 
HETATM   14  N3  UNL     1      26.296   1.258  52.823  1.00  0.00    -0.241 NA
HETATM   15  C10 UNL     1      25.053   1.142  52.320  1.00  0.00     0.070 A 
HETATM   16  C11 UNL     1      24.619   1.838  51.230  1.00  0.00     0.039 A 
HETATM   17  C21 UNL     1      24.693   0.269  53.217  1.00  0.00     0.032 C 
HETATM   18  C12 UNL     1      23.430   1.710  50.754  1.00  0.00     0.026 C 
HETATM   19  C13 UNL     1      22.125   1.190  50.709  1.00  0.00    -0.033 C 
HETATM   20  C17 UNL     1      21.462   0.305  51.481  1.00  0.00     0.141 C 
HETATM   21  O2  UNL     1      21.604  -0.506  52.598  1.00  0.00    -0.360 OA
HETATM   22  C18 UNL     1      21.203  -0.243  53.890  1.00  0.00     0.200 C 
HETATM   23  C19 UNL     1      22.056  -1.011  54.867  1.00  0.00     0.194 C 
HETATM   24  O3  UNL     1      23.297  -0.763  54.895  1.00  0.00    -0.385 OA
HETATM   25  C20 UNL     1      24.436  -0.693  54.281  1.00  0.00     0.197 C 
BRANCH  19  26
HETATM   26  C14 UNL     1      21.178   1.630  49.601  1.00  0.00     0.066 C 
BRANCH  26  27
HETATM   27  C15 UNL     1      21.130   3.113  49.517  1.00  0.00     0.171 C 
BRANCH  27  28
HETATM   28  O1  UNL     1      21.159   3.555  48.225  1.00  0.00    -0.396 OA
HETATM   29  C16 UNL     1      22.113   2.929  47.463  1.00  0.00     0.201 C 
ENDBRANCH  27  28
ENDBRANCH  26  27
ENDBRANCH  19  26
ENDBRANCH   9  11
ENDBRANCH   7   9
TORSDOF 5
ENDMDL
