MODEL 1
REMARK VINA RESULT:      -9.2      0.000      0.000
REMARK  2 active torsions:
REMARK  status: ('A' for Active; 'I' for Inactive)
REMARK    1  A    between atoms: C2_2  and  O1_4 
REMARK    2  A    between atoms: O1_4  and  C4_5 
ROOT
HETATM    1  C4  UNL     1      26.271   0.108  52.900  1.00  0.00     0.107 A 
HETATM    2  C5  UNL     1      25.592  -0.645  53.865  1.00  0.00     0.072 A 
HETATM    3  C6  UNL     1      24.235  -0.534  54.088  1.00  0.00     0.076 A 
HETATM    4  N1  UNL     1      23.546  -1.256  54.988  1.00  0.00    -0.241 NA
HETATM    5  C7  UNL     1      22.203  -1.096  55.124  1.00  0.00     0.234 A 
HETATM    6  N2  UNL     1      21.514  -0.222  54.378  1.00  0.00    -0.240 NA
HETATM    7  C8  UNL     1      22.143   0.553  53.442  1.00  0.00     0.084 A 
HETATM    8  C9  UNL     1      21.248   1.443  52.734  1.00  0.00    -0.005 A 
HETATM    9  C10 UNL     1      21.148   2.807  52.556  1.00  0.00     0.017 A 
HETATM   10  C11 UNL     1      20.200   3.403  51.769  1.00  0.00     0.045 A 
HETATM   11  C12 UNL     1      19.269   2.647  51.093  1.00  0.00     0.137 A 
HETATM   12  F1  UNL     1      18.395   3.373  50.354  1.00  0.00    -0.204 F 
HETATM   13  C13 UNL     1      19.318   1.277  51.232  1.00  0.00     0.084 A 
HETATM   14  C14 UNL     1      18.323   0.542  50.507  1.00  0.00     0.102 C 
HETATM   15  N3  UNL     1      17.527  -0.067  49.928  1.00  0.00    -0.191 NA
HETATM   16  C15 UNL     1      20.283   0.702  52.031  1.00  0.00     0.039 A 
HETATM   17  C16 UNL     1      23.495   0.341  53.351  1.00  0.00     0.059 A 
HETATM   18  C17 UNL     1      24.121   1.098  52.391  1.00  0.00     0.119 A 
HETATM   19  C18 UNL     1      25.472   0.968  52.190  1.00  0.00     0.136 A 
HETATM   20  O2  UNL     1      26.101   1.735  51.223  1.00  0.00    -0.344 OA
HETATM   21  C19 UNL     1      25.564   3.032  50.907  1.00  0.00     0.202 C 
HETATM   22  C20 UNL     1      24.076   2.881  50.682  1.00  0.00     0.202 C 
HETATM   23  O3  UNL     1      23.481   2.005  51.581  1.00  0.00    -0.345 OA
ENDROOT
BRANCH   1  24
HETATM   24  O1  UNL     1      27.590  -0.170  52.864  1.00  0.00    -0.344 OA
BRANCH  24  25
HETATM   25  C2  UNL     1      28.574  -0.177  53.828  1.00  0.00     0.121 C 
HETATM   26  C1  UNL     1      29.045   1.267  54.053  1.00  0.00     0.040 C 
HETATM   27  C3  UNL     1      29.776  -1.026  53.459  1.00  0.00     0.040 C 
ENDBRANCH  24  25
ENDBRANCH   1  24
TORSDOF 2
ENDMDL
MODEL 2
REMARK VINA RESULT:      -8.4      2.874      4.064
REMARK  2 active torsions:
REMARK  status: ('A' for Active; 'I' for Inactive)
REMARK    1  A    between atoms: C2_2  and  O1_4 
REMARK    2  A    between atoms: O1_4  and  C4_5 
ROOT
HETATM    1  C4  UNL     1      26.490   1.132  53.186  1.00  0.00     0.107 A 
HETATM    2  C5  UNL     1      27.079   2.013  52.272  1.00  0.00     0.072 A 
HETATM    3  C6  UNL     1      26.385   2.586  51.226  1.00  0.00     0.076 A 
HETATM    4  N1  UNL     1      26.909   3.454  50.343  1.00  0.00    -0.241 NA
HETATM    5  C7  UNL     1      26.143   3.989  49.356  1.00  0.00     0.234 A 
HETATM    6  N2  UNL     1      24.847   3.677  49.217  1.00  0.00    -0.240 NA
HETATM    7  C8  UNL     1      24.239   2.800  50.074  1.00  0.00     0.084 A 
HETATM    8  C9  UNL     1      22.842   2.576  49.774  1.00  0.00    -0.005 A 
HETATM    9  C10 UNL     1      22.062   1.483  49.456  1.00  0.00     0.017 A 
HETATM   10  C11 UNL     1      20.708   1.546  49.263  1.00  0.00     0.045 A 
HETATM   11  C12 UNL     1      20.034   2.741  49.381  1.00  0.00     0.137 A 
HETATM   12  F1  UNL     1      18.701   2.650  49.163  1.00  0.00    -0.204 F 
HETATM   13  C13 UNL     1      20.760   3.869  49.697  1.00  0.00     0.084 A 
HETATM   14  C14 UNL     1      20.007   5.083  49.805  1.00  0.00     0.102 C 
HETATM   15  N3  UNL     1      19.414   6.073  49.896  1.00  0.00    -0.191 NA
HETATM   16  C15 UNL     1      22.123   3.777  49.886  1.00  0.00     0.039 A 
HETATM   17  C16 UNL     1      25.065   2.300  51.048  1.00  0.00     0.059 A 
HETATM   18  C17 UNL     1      24.446   1.442  51.925  1.00  0.00     0.119 A 
HETATM   19  C18 UNL     1      25.161   0.885  52.956  1.00  0.00     0.136 A 
HETATM   20  O2  UNL     1      24.536   0.018  53.837  1.00  0.00    -0.344 OA
HETATM   21  C19 UNL     1      23.435  -0.779  53.363  1.00  0.00     0.202 C 
HETATM   22  C20 UNL     1      22.474   0.134  52.633  1.00  0.00     0.202 C 
HETATM   23  O3  UNL     1      23.122   1.085  51.855  1.00  0.00    -0.345 OA
ENDROOT
BRANCH   1  24
HETATM   24  O1  UNL     1      27.363   0.700  54.119  1.00  0.00    -0.344 OA
BRANCH  24  25
HETATM   25  C2  UNL     1      28.254  -0.350  54.155  1.00  0.00     0.121 C 
HETATM   26  C1  UNL     1      29.665   0.203  53.903  1.00  0.00     0.040 C 
HETATM   27  C3  UNL     1      27.965  -1.423  53.122  1.00  0.00     0.040 C 
ENDBRANCH  24  25
ENDBRANCH   1  24
TORSDOF 2
ENDMDL
MODEL 3
REMARK VINA RESULT:      -8.4      2.480      3.950
REMARK  2 active torsions:
REMARK  status: ('A' for Active; 'I' for Inactive)
REMARK    1  A    between atoms: C2_2  and  O1_4 
REMARK    2  A    between atoms: O1_4  and  C4_5 
ROOT
HETATM    1  C4  UNL     1      24.483   0.395  53.212  1.00  0.00     0.107 A 
HETATM    2  C5  UNL     1      24.677   1.270  52.138  1.00  0.00     0.072 A 
HETATM    3  C6  UNL     1      23.646   1.720  51.339  1.00  0.00     0.076 A 
HETATM    4  N1  UNL     1      23.789   2.579  50.315  1.00  0.00    -0.241 NA
HETATM    5  C7  UNL     1      22.712   2.986  49.593  1.00  0.00     0.234 A 
HETATM    6  N2  UNL     1      21.473   2.554  49.866  1.00  0.00    -0.240 NA
HETATM    7  C8  UNL     1      21.243   1.677  50.891  1.00  0.00     0.084 A 
HETATM    8  C9  UNL     1      19.850   1.314  51.039  1.00  0.00    -0.005 A 
HETATM    9  C10 UNL     1      19.125   0.141  51.004  1.00  0.00     0.017 A 
HETATM   10  C11 UNL     1      17.778   0.074  51.232  1.00  0.00     0.045 A 
HETATM   11  C12 UNL     1      17.053   1.209  51.517  1.00  0.00     0.137 A 
HETATM   12  F1  UNL     1      15.732   0.989  51.719  1.00  0.00    -0.204 F 
HETATM   13  C13 UNL     1      17.722   2.413  51.565  1.00  0.00     0.084 A 
HETATM   14  C14 UNL     1      16.918   3.560  51.864  1.00  0.00     0.102 C 
HETATM   15  N3  UNL     1      16.283   4.498  52.104  1.00  0.00    -0.191 NA
HETATM   16  C15 UNL     1      19.081   2.453  51.331  1.00  0.00     0.039 A 
HETATM   17  C16 UNL     1      22.370   1.308  51.580  1.00  0.00     0.059 A 
HETATM   18  C17 UNL     1      22.134   0.451  52.627  1.00  0.00     0.119 A 
HETATM   19  C18 UNL     1      23.179   0.019  53.407  1.00  0.00     0.136 A 
HETATM   20  O2  UNL     1      22.939  -0.848  54.460  1.00  0.00    -0.344 OA
HETATM   21  C19 UNL     1      21.833  -1.765  54.367  1.00  0.00     0.202 C 
HETATM   22  C20 UNL     1      20.610  -0.983  53.940  1.00  0.00     0.202 C 
HETATM   23  O3  UNL     1      20.894  -0.025  52.975  1.00  0.00    -0.345 OA
ENDROOT
BRANCH   1  24
HETATM   24  O1  UNL     1      25.635   0.095  53.846  1.00  0.00    -0.344 OA
BRANCH  24  25
HETATM   25  C2  UNL     1      26.930  -0.076  53.408  1.00  0.00     0.121 C 
HETATM   26  C1  UNL     1      27.059  -1.486  52.812  1.00  0.00     0.040 C 
HETATM   27  C3  UNL     1      27.965   0.080  54.506  1.00  0.00     0.040 C 
ENDBRANCH  24  25
ENDBRANCH   1  24
TORSDOF 2
ENDMDL
MODEL 4
REMARK VINA RESULT:      -8.4      1.282      1.634
REMARK  2 active torsions:
REMARK  status: ('A' for Active; 'I' for Inactive)
REMARK    1  A    between atoms: C2_2  and  O1_4 
REMARK    2  A    between atoms: O1_4  and  C4_5 
ROOT
HETATM    1  C4  UNL     1      24.934   0.700  52.347  1.00  0.00     0.107 A 
HETATM    2  C5  UNL     1      24.397  -0.220  53.254  1.00  0.00     0.072 A 
HETATM    3  C6  UNL     1      23.041  -0.364  53.465  1.00  0.00     0.076 A 
HETATM    4  N1  UNL     1      22.487  -1.252  54.308  1.00  0.00    -0.241 NA
HETATM    5  C7  UNL     1      21.137  -1.340  54.436  1.00  0.00     0.234 A 
HETATM    6  N2  UNL     1      20.306  -0.554  53.737  1.00  0.00    -0.240 NA
HETATM    7  C8  UNL     1      20.791   0.377  52.860  1.00  0.00     0.084 A 
HETATM    8  C9  UNL     1      19.756   1.140  52.197  1.00  0.00    -0.005 A 
HETATM    9  C10 UNL     1      19.417   2.473  52.103  1.00  0.00     0.017 A 
HETATM   10  C11 UNL     1      18.381   2.942  51.342  1.00  0.00     0.045 A 
HETATM   11  C12 UNL     1      17.599   2.080  50.607  1.00  0.00     0.137 A 
HETATM   12  F1  UNL     1      16.613   2.687  49.904  1.00  0.00    -0.204 F 
HETATM   13  C13 UNL     1      17.888   0.733  50.661  1.00  0.00     0.084 A 
HETATM   14  C14 UNL     1      17.040  -0.116  49.878  1.00  0.00     0.102 C 
HETATM   15  N3  UNL     1      16.365  -0.818  49.252  1.00  0.00    -0.191 NA
HETATM   16  C15 UNL     1      18.938   0.288  51.436  1.00  0.00     0.039 A 
HETATM   17  C16 UNL     1      22.160   0.413  52.775  1.00  0.00     0.059 A 
HETATM   18  C17 UNL     1      22.644   1.328  51.872  1.00  0.00     0.119 A 
HETATM   19  C18 UNL     1      23.998   1.450  51.682  1.00  0.00     0.136 A 
HETATM   20  O2  UNL     1      24.485   2.376  50.773  1.00  0.00    -0.344 OA
HETATM   21  C19 UNL     1      23.728   3.576  50.531  1.00  0.00     0.202 C 
HETATM   22  C20 UNL     1      22.290   3.181  50.277  1.00  0.00     0.202 C 
HETATM   23  O3  UNL     1      21.857   2.158  51.112  1.00  0.00    -0.345 OA
ENDROOT
BRANCH   1  24
HETATM   24  O1  UNL     1      26.282   0.661  52.312  1.00  0.00    -0.344 OA
BRANCH  24  25
HETATM   25  C2  UNL     1      27.249   0.760  53.288  1.00  0.00     0.121 C 
HETATM   26  C1  UNL     1      27.931   2.130  53.160  1.00  0.00     0.040 C 
HETATM   27  C3  UNL     1      28.312  -0.318  53.196  1.00  0.00     0.040 C 
ENDBRANCH  24  25
ENDBRANCH   1  24
TORSDOF 2
ENDMDL
MODEL 5
REMARK VINA RESULT:      -7.8      3.409      6.646
REMARK  2 active torsions:
REMARK  status: ('A' for Active; 'I' for Inactive)
REMARK    1  A    between atoms: C2_2  and  O1_4 
REMARK    2  A    between atoms: O1_4  and  C4_5 
ROOT
HETATM    1  C4  UNL     1      19.355  -0.501  52.878  1.00  0.00     0.107 A 
HETATM    2  C5  UNL     1      20.580  -0.799  53.485  1.00  0.00     0.072 A 
HETATM    3  C6  UNL     1      21.773  -0.228  53.092  1.00  0.00     0.076 A 
HETATM    4  N1  UNL     1      22.964  -0.470  53.666  1.00  0.00    -0.241 NA
HETATM    5  C7  UNL     1      24.087   0.156  53.226  1.00  0.00     0.234 A 
HETATM    6  N2  UNL     1      24.059   1.032  52.212  1.00  0.00    -0.240 NA
HETATM    7  C8  UNL     1      22.887   1.331  51.573  1.00  0.00     0.084 A 
HETATM    8  C9  UNL     1      23.042   2.290  50.501  1.00  0.00    -0.005 A 
HETATM    9  C10 UNL     1      22.795   2.303  49.144  1.00  0.00     0.017 A 
HETATM   10  C11 UNL     1      22.995   3.398  48.346  1.00  0.00     0.045 A 
HETATM   11  C12 UNL     1      23.467   4.578  48.874  1.00  0.00     0.137 A 
HETATM   12  F1  UNL     1      23.615   5.572  47.966  1.00  0.00    -0.204 F 
HETATM   13  C13 UNL     1      23.733   4.626  50.225  1.00  0.00     0.084 A 
HETATM   14  C14 UNL     1      24.223   5.879  50.719  1.00  0.00     0.102 C 
HETATM   15  N3  UNL     1      24.621   6.884  51.134  1.00  0.00    -0.191 NA
HETATM   16  C15 UNL     1      23.523   3.509  51.006  1.00  0.00     0.039 A 
HETATM   17  C16 UNL     1      21.791   0.669  52.066  1.00  0.00     0.059 A 
HETATM   18  C17 UNL     1      20.610   0.992  51.443  1.00  0.00     0.119 A 
HETATM   19  C18 UNL     1      19.438   0.409  51.855  1.00  0.00     0.136 A 
HETATM   20  O2  UNL     1      18.249   0.734  51.223  1.00  0.00    -0.344 OA
HETATM   21  C19 UNL     1      18.280   1.116  49.836  1.00  0.00     0.202 C 
HETATM   22  C20 UNL     1      19.360   2.161  49.662  1.00  0.00     0.202 C 
HETATM   23  O3  UNL     1      20.500   1.887  50.407  1.00  0.00    -0.345 OA
ENDROOT
BRANCH   1  24
HETATM   24  O1  UNL     1      18.328  -1.180  53.430  1.00  0.00    -0.344 OA
BRANCH  24  25
HETATM   25  C2  UNL     1      17.465  -2.136  52.940  1.00  0.00     0.121 C 
HETATM   26  C1  UNL     1      16.064  -1.517  52.834  1.00  0.00     0.040 C 
HETATM   27  C3  UNL     1      17.380  -3.375  53.812  1.00  0.00     0.040 C 
ENDBRANCH  24  25
ENDBRANCH   1  24
TORSDOF 2
ENDMDL
MODEL 6
REMARK VINA RESULT:      -7.7      1.736      2.229
REMARK  2 active torsions:
REMARK  status: ('A' for Active; 'I' for Inactive)
REMARK    1  A    between atoms: C2_2  and  O1_4 
REMARK    2  A    between atoms: O1_4  and  C4_5 
ROOT
HETATM    1  C4  UNL     1      25.405   0.756  52.252  1.00  0.00     0.107 A 
HETATM    2  C5  UNL     1      24.421   0.178  53.062  1.00  0.00     0.072 A 
HETATM    3  C6  UNL     1      23.119   0.632  53.103  1.00  0.00     0.076 A 
HETATM    4  N1  UNL     1      22.142   0.089  53.849  1.00  0.00    -0.241 NA
HETATM    5  C7  UNL     1      20.878   0.588  53.809  1.00  0.00     0.234 A 
HETATM    6  N2  UNL     1      20.554   1.633  53.036  1.00  0.00    -0.240 NA
HETATM    7  C8  UNL     1      21.491   2.244  52.249  1.00  0.00     0.084 A 
HETATM    8  C9  UNL     1      20.969   3.356  51.485  1.00  0.00    -0.005 A 
HETATM    9  C10 UNL     1      21.245   4.704  51.387  1.00  0.00     0.017 A 
HETATM   10  C11 UNL     1      20.608   5.549  50.518  1.00  0.00     0.045 A 
HETATM   11  C12 UNL     1      19.628   5.081  49.671  1.00  0.00     0.137 A 
HETATM   12  F1  UNL     1      19.089   6.031  48.870  1.00  0.00    -0.204 F 
HETATM   13  C13 UNL     1      19.307   3.742  49.724  1.00  0.00     0.084 A 
HETATM   14  C14 UNL     1      18.280   3.314  48.821  1.00  0.00     0.102 C 
HETATM   15  N3  UNL     1      17.452   2.950  48.099  1.00  0.00    -0.191 NA
HETATM   16  C15 UNL     1      19.964   2.914  50.609  1.00  0.00     0.039 A 
HETATM   17  C16 UNL     1      22.744   1.691  52.331  1.00  0.00     0.059 A 
HETATM   18  C17 UNL     1      23.678   2.286  51.519  1.00  0.00     0.119 A 
HETATM   19  C18 UNL     1      24.967   1.814  51.498  1.00  0.00     0.136 A 
HETATM   20  O2  UNL     1      25.907   2.419  50.680  1.00  0.00    -0.344 OA
HETATM   21  C19 UNL     1      25.770   3.819  50.380  1.00  0.00     0.202 C 
HETATM   22  C20 UNL     1      24.343   4.068  49.943  1.00  0.00     0.202 C 
HETATM   23  O3  UNL     1      23.418   3.351  50.691  1.00  0.00    -0.345 OA
ENDROOT
BRANCH   1  24
HETATM   24  O1  UNL     1      26.601   0.145  52.379  1.00  0.00    -0.344 OA
BRANCH  24  25
HETATM   25  C2  UNL     1      27.053  -0.871  53.192  1.00  0.00     0.121 C 
HETATM   26  C1  UNL     1      28.464  -0.510  53.682  1.00  0.00     0.040 C 
HETATM   27  C3  UNL     1      27.113  -2.218  52.498  1.00  0.00     0.040 C 
ENDBRANCH  24  25
ENDBRANCH   1  24
TORSDOF 2
ENDMDL
MODEL 7
REMARK VINA RESULT:      -7.6      3.674      7.480
REMARK  2 active torsions:
REMARK  status: ('A' for Active; 'I' for Inactive)
REMARK    1  A    between atoms: C2_2  and  O1_4 
REMARK    2  A    between atoms: O1_4  and  C4_5 
ROOT
HETATM    1  C4  UNL     1      21.704   3.076  47.995  1.00  0.00     0.107 A 
HETATM    2  C5  UNL     1      22.869   3.847  48.059  1.00  0.00     0.072 A 
HETATM    3  C6  UNL     1      23.813   3.704  49.056  1.00  0.00     0.076 A 
HETATM    4  N1  UNL     1      24.954   4.408  49.137  1.00  0.00    -0.241 NA
HETATM    5  C7  UNL     1      25.839   4.184  50.144  1.00  0.00     0.234 A 
HETATM    6  N2  UNL     1      25.616   3.263  51.091  1.00  0.00    -0.240 NA
HETATM    7  C8  UNL     1      24.476   2.505  51.080  1.00  0.00     0.084 A 
HETATM    8  C9  UNL     1      24.397   1.566  52.178  1.00  0.00    -0.005 A 
HETATM    9  C10 UNL     1      23.524   1.335  53.220  1.00  0.00     0.017 A 
HETATM   10  C11 UNL     1      23.667   0.313  54.119  1.00  0.00     0.045 A 
HETATM   11  C12 UNL     1      24.723  -0.566  54.025  1.00  0.00     0.137 A 
HETATM   12  F1  UNL     1      24.733  -1.525  54.982  1.00  0.00    -0.204 F 
HETATM   13  C13 UNL     1      25.630  -0.385  53.004  1.00  0.00     0.084 A 
HETATM   14  C14 UNL     1      26.709  -1.328  52.958  1.00  0.00     0.102 C 
HETATM   15  N3  UNL     1      27.587  -2.080  52.905  1.00  0.00    -0.191 NA
HETATM   16  C15 UNL     1      25.463   0.653  52.113  1.00  0.00     0.039 A 
HETATM   17  C16 UNL     1      23.628   2.778  50.038  1.00  0.00     0.059 A 
HETATM   18  C17 UNL     1      22.498   1.997  50.012  1.00  0.00     0.119 A 
HETATM   19  C18 UNL     1      21.576   2.161  49.009  1.00  0.00     0.136 A 
HETATM   20  O2  UNL     1      20.435   1.374  48.987  1.00  0.00    -0.344 OA
HETATM   21  C19 UNL     1      19.896   0.897  50.233  1.00  0.00     0.202 C 
HETATM   22  C20 UNL     1      21.029   0.293  51.034  1.00  0.00     0.202 C 
HETATM   23  O3  UNL     1      22.206   1.026  50.939  1.00  0.00    -0.345 OA
ENDROOT
BRANCH   1  24
HETATM   24  O1  UNL     1      20.933   3.394  46.935  1.00  0.00    -0.344 OA
BRANCH  24  25
HETATM   25  C2  UNL     1      19.777   4.133  46.804  1.00  0.00     0.121 C 
HETATM   26  C1  UNL     1      19.459   4.783  48.158  1.00  0.00     0.040 C 
HETATM   27  C3  UNL     1      18.580   3.308  46.371  1.00  0.00     0.040 C 
ENDBRANCH  24  25
ENDBRANCH   1  24
TORSDOF 2
ENDMDL
MODEL 8
REMARK VINA RESULT:      -7.5     10.549     12.933
REMARK  2 active torsions:
REMARK  status: ('A' for Active; 'I' for Inactive)
REMARK    1  A    between atoms: C2_2  and  O1_4 
REMARK    2  A    between atoms: O1_4  and  C4_5 
ROOT
HETATM    1  C4  UNL     1      34.296   5.468  43.272  1.00  0.00     0.107 A 
HETATM    2  C5  UNL     1      34.698   4.516  44.215  1.00  0.00     0.072 A 
HETATM    3  C6  UNL     1      34.135   4.416  45.471  1.00  0.00     0.076 A 
HETATM    4  N1  UNL     1      34.477   3.501  46.393  1.00  0.00    -0.241 NA
HETATM    5  C7  UNL     1      33.851   3.462  47.599  1.00  0.00     0.234 A 
HETATM    6  N2  UNL     1      32.877   4.326  47.920  1.00  0.00    -0.240 NA
HETATM    7  C8  UNL     1      32.473   5.289  47.037  1.00  0.00     0.084 A 
HETATM    8  C9  UNL     1      31.417   6.136  47.550  1.00  0.00    -0.005 A 
HETATM    9  C10 UNL     1      31.258   7.486  47.782  1.00  0.00     0.017 A 
HETATM   10  C11 UNL     1      30.098   8.046  48.243  1.00  0.00     0.045 A 
HETATM   11  C12 UNL     1      28.994   7.266  48.506  1.00  0.00     0.137 A 
HETATM   12  F1  UNL     1      27.920   7.958  48.955  1.00  0.00    -0.204 F 
HETATM   13  C13 UNL     1      29.092   5.908  48.293  1.00  0.00     0.084 A 
HETATM   14  C14 UNL     1      27.914   5.147  48.586  1.00  0.00     0.102 C 
HETATM   15  N3  UNL     1      26.972   4.516  48.817  1.00  0.00    -0.191 NA
HETATM   16  C15 UNL     1      30.274   5.370  47.829  1.00  0.00     0.039 A 
HETATM   17  C16 UNL     1      33.140   5.272  45.839  1.00  0.00     0.059 A 
HETATM   18  C17 UNL     1      32.713   6.221  44.942  1.00  0.00     0.119 A 
HETATM   19  C18 UNL     1      33.291   6.298  43.699  1.00  0.00     0.136 A 
HETATM   20  O2  UNL     1      32.861   7.258  42.798  1.00  0.00    -0.344 OA
HETATM   21  C19 UNL     1      32.343   8.502  43.302  1.00  0.00     0.202 C 
HETATM   22  C20 UNL     1      31.326   8.185  44.377  1.00  0.00     0.202 C 
HETATM   23  O3  UNL     1      31.715   7.131  45.193  1.00  0.00    -0.345 OA
ENDROOT
BRANCH   1  24
HETATM   24  O1  UNL     1      34.989   5.374  42.118  1.00  0.00    -0.344 OA
BRANCH  24  25
HETATM   25  C2  UNL     1      35.780   6.263  41.424  1.00  0.00     0.121 C 
HETATM   26  C1  UNL     1      36.174   5.621  40.086  1.00  0.00     0.040 C 
HETATM   27  C3  UNL     1      37.046   6.650  42.165  1.00  0.00     0.040 C 
ENDBRANCH  24  25
ENDBRANCH   1  24
TORSDOF 2
ENDMDL
MODEL 9
REMARK VINA RESULT:      -7.5      4.472      9.077
REMARK  2 active torsions:
REMARK  status: ('A' for Active; 'I' for Inactive)
REMARK    1  A    between atoms: C2_2  and  O1_4 
REMARK    2  A    between atoms: O1_4  and  C4_5 
ROOT
HETATM    1  C4  UNL     1      14.519   2.548  51.994  1.00  0.00     0.107 A 
HETATM    2  C5  UNL     1      14.203   1.199  52.193  1.00  0.00     0.072 A 
HETATM    3  C6  UNL     1      15.155   0.201  52.232  1.00  0.00     0.076 A 
HETATM    4  N1  UNL     1      14.892  -1.100  52.445  1.00  0.00    -0.241 NA
HETATM    5  C7  UNL     1      15.897  -2.013  52.489  1.00  0.00     0.234 A 
HETATM    6  N2  UNL     1      17.180  -1.663  52.324  1.00  0.00    -0.240 NA
HETATM    7  C8  UNL     1      17.530  -0.359  52.100  1.00  0.00     0.084 A 
HETATM    8  C9  UNL     1      18.955  -0.164  51.939  1.00  0.00    -0.005 A 
HETATM    9  C10 UNL     1      19.779   0.335  50.952  1.00  0.00     0.017 A 
HETATM   10  C11 UNL     1      21.136   0.455  51.084  1.00  0.00     0.045 A 
HETATM   11  C12 UNL     1      21.768   0.072  52.245  1.00  0.00     0.137 A 
HETATM   12  F1  UNL     1      23.111   0.249  52.230  1.00  0.00    -0.204 F 
HETATM   13  C13 UNL     1      20.998  -0.436  53.268  1.00  0.00     0.084 A 
HETATM   14  C14 UNL     1      21.710  -0.819  54.451  1.00  0.00     0.102 C 
HETATM   15  N3  UNL     1      22.268  -1.135  55.415  1.00  0.00    -0.191 NA
HETATM   16  C15 UNL     1      19.632  -0.546  53.109  1.00  0.00     0.039 A 
HETATM   17  C16 UNL     1      16.471   0.512  52.070  1.00  0.00     0.059 A 
HETATM   18  C17 UNL     1      16.827   1.824  51.875  1.00  0.00     0.119 A 
HETATM   19  C18 UNL     1      15.859   2.797  51.841  1.00  0.00     0.136 A 
HETATM   20  O2  UNL     1      16.220   4.120  51.641  1.00  0.00    -0.344 OA
HETATM   21  C19 UNL     1      17.397   4.409  50.866  1.00  0.00     0.202 C 
HETATM   22  C20 UNL     1      18.527   3.549  51.390  1.00  0.00     0.202 C 
HETATM   23  O3  UNL     1      18.118   2.260  51.710  1.00  0.00    -0.345 OA
ENDROOT
BRANCH   1  24
HETATM   24  O1  UNL     1      13.426   3.339  51.994  1.00  0.00    -0.344 OA
BRANCH  24  25
HETATM   25  C2  UNL     1      12.694   3.926  53.002  1.00  0.00     0.121 C 
HETATM   26  C1  UNL     1      13.669   4.484  54.050  1.00  0.00     0.040 C 
HETATM   27  C3  UNL     1      11.739   2.970  53.691  1.00  0.00     0.040 C 
ENDBRANCH  24  25
ENDBRANCH   1  24
TORSDOF 2
ENDMDL
