MODEL 1
REMARK VINA RESULT:      -8.5      0.000      0.000
REMARK  3 active torsions:
REMARK  status: ('A' for Active; 'I' for Inactive)
REMARK    1  A    between atoms: C6_7  and  N2_8 
REMARK    2  A    between atoms: N5_16  and  C12_17 
REMARK    3  A    between atoms: C12_17  and  C13_18 
ROOT
HETATM    1  N1  UNL     1      30.521  -1.570  53.865  1.00  0.00    -0.096 N 
HETATM    2  C1  UNL     1      29.657  -0.496  53.925  1.00  0.00     0.018 C 
HETATM    3  C2  UNL     1      28.916   0.439  53.949  1.00  0.00     0.041 A 
HETATM    4  C3  UNL     1      27.667   0.315  53.556  1.00  0.00     0.010 A 
HETATM    5  C4  UNL     1      26.733  -0.551  53.081  1.00  0.00     0.017 A 
HETATM    6  C5  UNL     1      25.423  -0.361  52.759  1.00  0.00     0.030 A 
HETATM    7  C6  UNL     1      25.086   0.942  52.987  1.00  0.00     0.034 A 
HETATM    8  C15 UNL     1      25.799   2.075  53.459  1.00  0.00     0.061 A 
HETATM    9  C16 UNL     1      27.092   1.622  53.712  1.00  0.00     0.065 A 
HETATM   10  N6  UNL     1      27.913   2.522  54.138  1.00  0.00    -0.284 NA
HETATM   11  C17 UNL     1      29.186   1.883  54.268  1.00  0.00     0.199 A 
ENDROOT
BRANCH   7  12
HETATM   12  N2  UNL     1      23.692   1.096  52.857  1.00  0.00    -0.357 N 
HETATM   13  C7  UNL     1      22.619   1.015  52.017  1.00  0.00     0.043 C 
HETATM   14  C8  UNL     1      22.788   1.604  50.864  1.00  0.00     0.028 C 
HETATM   15  C14 UNL     1      21.504   0.053  51.919  1.00  0.00     0.296 A 
HETATM   16  C9  UNL     1      22.891   2.234  49.572  1.00  0.00    -0.000 C 
HETATM   17  C10 UNL     1      21.808   2.437  48.726  1.00  0.00    -0.004 C 
HETATM   18  C11 UNL     1      20.597   1.976  49.418  1.00  0.00     0.194 C 
HETATM   19  N3  UNL     1      20.796   1.513  50.735  1.00  0.00    -0.216 NA
HETATM   20  N4  UNL     1      20.097   0.689  51.383  1.00  0.00    -0.101 NA
HETATM   21  N5  UNL     1      20.351   0.285  52.625  1.00  0.00    -0.304 N 
HETATM   22  H3  UNL     1      23.141   1.439  53.672  1.00  0.00     0.166 HD
BRANCH  21  23
HETATM   23  C12 UNL     1      20.315  -0.017  54.013  1.00  0.00     0.172 C 
BRANCH  23  24
HETATM   24  C13 UNL     1      21.109  -1.245  54.341  1.00  0.00     0.243 C 
HETATM   25  F1  UNL     1      22.163  -0.834  55.189  1.00  0.00    -0.254 F 
ENDBRANCH  23  24
ENDBRANCH  21  23
ENDBRANCH   7  12
TORSDOF 3
ENDMDL
MODEL 2
REMARK VINA RESULT:      -8.2      3.609      6.550
REMARK  3 active torsions:
REMARK  status: ('A' for Active; 'I' for Inactive)
REMARK    1  A    between atoms: C6_7  and  N2_8 
REMARK    2  A    between atoms: N5_16  and  C12_17 
REMARK    3  A    between atoms: C12_17  and  C13_18 
ROOT
HETATM    1  N1  UNL     1      26.886   7.743  47.265  1.00  0.00    -0.096 N 
HETATM    2  C1  UNL     1      26.116   7.154  48.247  1.00  0.00     0.018 C 
HETATM    3  C2  UNL     1      25.435   6.633  49.077  1.00  0.00     0.041 A 
HETATM    4  C3  UNL     1      25.675   5.400  49.464  1.00  0.00     0.010 A 
HETATM    5  C4  UNL     1      26.493   4.326  49.307  1.00  0.00     0.017 A 
HETATM    6  C5  UNL     1      26.486   3.104  49.910  1.00  0.00     0.030 A 
HETATM    7  C6  UNL     1      25.456   3.047  50.804  1.00  0.00     0.034 A 
HETATM    8  C15 UNL     1      24.441   3.959  51.196  1.00  0.00     0.061 A 
HETATM    9  C16 UNL     1      24.666   5.110  50.445  1.00  0.00     0.065 A 
HETATM   10  N6  UNL     1      23.824   6.068  50.647  1.00  0.00    -0.284 NA
HETATM   11  C17 UNL     1      24.177   7.118  49.744  1.00  0.00     0.199 A 
ENDROOT
BRANCH   7  12
HETATM   12  N2  UNL     1      25.569   1.874  51.576  1.00  0.00    -0.357 N 
HETATM   13  C7  UNL     1      26.048   1.321  52.728  1.00  0.00     0.043 C 
HETATM   14  C8  UNL     1      27.295   1.609  52.989  1.00  0.00     0.028 C 
HETATM   15  C14 UNL     1      25.381   0.859  53.961  1.00  0.00     0.296 A 
HETATM   16  C9  UNL     1      28.665   1.871  53.348  1.00  0.00    -0.000 C 
HETATM   17  C10 UNL     1      29.345   1.187  54.347  1.00  0.00    -0.004 C 
HETATM   18  C11 UNL     1      28.453   0.147  54.874  1.00  0.00     0.194 C 
HETATM   19  N3  UNL     1      27.199   0.049  54.236  1.00  0.00    -0.216 NA
HETATM   20  N4  UNL     1      26.118  -0.394  54.709  1.00  0.00    -0.101 NA
HETATM   21  N5  UNL     1      24.963  -0.445  54.052  1.00  0.00    -0.304 N 
HETATM   22  H3  UNL     1      25.187   0.981  51.200  1.00  0.00     0.166 HD
BRANCH  21  23
HETATM   23  C12 UNL     1      23.755  -0.832  53.412  1.00  0.00     0.172 C 
BRANCH  23  24
HETATM   24  C13 UNL     1      22.606  -0.896  54.372  1.00  0.00     0.243 C 
HETATM   25  F1  UNL     1      23.057  -1.619  55.500  1.00  0.00    -0.254 F 
ENDBRANCH  23  24
ENDBRANCH  21  23
ENDBRANCH   7  12
TORSDOF 3
ENDMDL
MODEL 3
REMARK VINA RESULT:      -8.1      1.611      3.157
REMARK  3 active torsions:
REMARK  status: ('A' for Active; 'I' for Inactive)
REMARK    1  A    between atoms: C6_7  and  N2_8 
REMARK    2  A    between atoms: N5_16  and  C12_17 
REMARK    3  A    between atoms: C12_17  and  C13_18 
ROOT
HETATM    1  N1  UNL     1      30.658  -1.729  54.053  1.00  0.00    -0.096 N 
HETATM    2  C1  UNL     1      29.808  -0.643  53.998  1.00  0.00     0.018 C 
HETATM    3  C2  UNL     1      29.083   0.301  53.925  1.00  0.00     0.041 A 
HETATM    4  C3  UNL     1      27.921   0.209  53.316  1.00  0.00     0.010 A 
HETATM    5  C4  UNL     1      27.076  -0.626  52.656  1.00  0.00     0.017 A 
HETATM    6  C5  UNL     1      25.844  -0.405  52.117  1.00  0.00     0.030 A 
HETATM    7  C6  UNL     1      25.486   0.895  52.328  1.00  0.00     0.034 A 
HETATM    8  C15 UNL     1      26.116   2.001  52.956  1.00  0.00     0.061 A 
HETATM    9  C16 UNL     1      27.340   1.520  53.414  1.00  0.00     0.065 A 
HETATM   10  N6  UNL     1      28.083   2.392  54.008  1.00  0.00    -0.284 NA
HETATM   11  C17 UNL     1      29.307   1.730  54.335  1.00  0.00     0.199 A 
ENDROOT
BRANCH   7  12
HETATM   12  N2  UNL     1      24.137   1.076  51.962  1.00  0.00    -0.357 N 
HETATM   13  C7  UNL     1      22.840   1.080  52.390  1.00  0.00     0.043 C 
HETATM   14  C8  UNL     1      22.504   0.043  53.108  1.00  0.00     0.028 C 
HETATM   15  C14 UNL     1      21.873   2.171  52.616  1.00  0.00     0.296 A 
HETATM   16  C9  UNL     1      22.048  -1.070  53.902  1.00  0.00    -0.000 C 
HETATM   17  C10 UNL     1      20.712  -1.312  54.194  1.00  0.00    -0.004 C 
HETATM   18  C11 UNL     1      19.904  -0.303  53.498  1.00  0.00     0.194 C 
HETATM   19  N3  UNL     1      20.629   0.595  52.688  1.00  0.00    -0.216 NA
HETATM   20  N4  UNL     1      20.311   1.767  52.350  1.00  0.00    -0.101 NA
HETATM   21  N5  UNL     1      21.053   2.568  51.590  1.00  0.00    -0.304 N 
HETATM   22  H3  UNL     1      23.903   1.262  50.965  1.00  0.00     0.166 HD
BRANCH  21  23
HETATM   23  C12 UNL     1      21.573   3.418  50.577  1.00  0.00     0.172 C 
BRANCH  23  24
HETATM   24  C13 UNL     1      21.515   2.779  49.222  1.00  0.00     0.243 C 
HETATM   25  F1  UNL     1      22.578   1.848  49.164  1.00  0.00    -0.254 F 
ENDBRANCH  23  24
ENDBRANCH  21  23
ENDBRANCH   7  12
TORSDOF 3
ENDMDL
MODEL 4
REMARK VINA RESULT:      -7.9      2.382      2.639
REMARK  3 active torsions:
REMARK  status: ('A' for Active; 'I' for Inactive)
REMARK    1  A    between atoms: C6_7  and  N2_8 
REMARK    2  A    between atoms: N5_16  and  C12_17 
REMARK    3  A    between atoms: C12_17  and  C13_18 
ROOT
HETATM    1  N1  UNL     1      29.326  -2.413  53.189  1.00  0.00    -0.096 N 
HETATM    2  C1  UNL     1      28.846  -1.147  53.455  1.00  0.00     0.018 C 
HETATM    3  C2  UNL     1      28.437  -0.045  53.659  1.00  0.00     0.041 A 
HETATM    4  C3  UNL     1      27.221   0.297  53.296  1.00  0.00     0.010 A 
HETATM    5  C4  UNL     1      26.070  -0.139  52.718  1.00  0.00     0.017 A 
HETATM    6  C5  UNL     1      24.893   0.505  52.478  1.00  0.00     0.030 A 
HETATM    7  C6  UNL     1      24.981   1.790  52.930  1.00  0.00     0.034 A 
HETATM    8  C15 UNL     1      26.006   2.546  53.556  1.00  0.00     0.061 A 
HETATM    9  C16 UNL     1      27.085   1.674  53.684  1.00  0.00     0.065 A 
HETATM   10  N6  UNL     1      28.140   2.185  54.224  1.00  0.00    -0.284 NA
HETATM   11  C17 UNL     1      29.143   1.167  54.201  1.00  0.00     0.199 A 
ENDROOT
BRANCH   7  12
HETATM   12  N2  UNL     1      23.709   2.395  52.876  1.00  0.00    -0.357 N 
HETATM   13  C7  UNL     1      22.887   3.240  52.188  1.00  0.00     0.043 C 
HETATM   14  C8  UNL     1      23.437   4.375  51.851  1.00  0.00     0.028 C 
HETATM   15  C14 UNL     1      21.695   3.004  51.351  1.00  0.00     0.296 A 
HETATM   16  C9  UNL     1      23.965   5.653  51.447  1.00  0.00    -0.000 C 
HETATM   17  C10 UNL     1      23.181   6.693  50.964  1.00  0.00    -0.004 C 
HETATM   18  C11 UNL     1      21.776   6.269  51.023  1.00  0.00     0.194 C 
HETATM   19  N3  UNL     1      21.556   4.994  51.585  1.00  0.00    -0.216 NA
HETATM   20  N4  UNL     1      20.592   4.210  51.377  1.00  0.00    -0.101 NA
HETATM   21  N5  UNL     1      20.452   3.010  51.934  1.00  0.00    -0.304 N 
HETATM   22  H3  UNL     1      23.032   2.220  53.647  1.00  0.00     0.166 HD
BRANCH  21  23
HETATM   23  C12 UNL     1      20.016   1.861  52.647  1.00  0.00     0.172 C 
BRANCH  23  24
HETATM   24  C13 UNL     1      19.473   0.804  51.733  1.00  0.00     0.243 C 
HETATM   25  F1  UNL     1      20.539  -0.083  51.457  1.00  0.00    -0.254 F 
ENDBRANCH  23  24
ENDBRANCH  21  23
ENDBRANCH   7  12
TORSDOF 3
ENDMDL
MODEL 5
REMARK VINA RESULT:      -7.9      4.132      5.930
REMARK  3 active torsions:
REMARK  status: ('A' for Active; 'I' for Inactive)
REMARK    1  A    between atoms: C6_7  and  N2_8 
REMARK    2  A    between atoms: N5_16  and  C12_17 
REMARK    3  A    between atoms: C12_17  and  C13_18 
ROOT
HETATM    1  N1  UNL     1      29.633   7.005  47.407  1.00  0.00    -0.096 N 
HETATM    2  C1  UNL     1      28.421   6.893  48.057  1.00  0.00     0.018 C 
HETATM    3  C2  UNL     1      27.361   6.790  48.596  1.00  0.00     0.041 A 
HETATM    4  C3  UNL     1      26.896   5.610  48.941  1.00  0.00     0.010 A 
HETATM    5  C4  UNL     1      27.154   4.276  48.958  1.00  0.00     0.017 A 
HETATM    6  C5  UNL     1      26.419   3.231  49.432  1.00  0.00     0.030 A 
HETATM    7  C6  UNL     1      25.252   3.703  49.961  1.00  0.00     0.034 A 
HETATM    8  C15 UNL     1      24.684   4.996  50.094  1.00  0.00     0.061 A 
HETATM    9  C16 UNL     1      25.616   5.870  49.541  1.00  0.00     0.065 A 
HETATM   10  N6  UNL     1      25.272   7.115  49.550  1.00  0.00    -0.284 NA
HETATM   11  C17 UNL     1      26.314   7.831  48.883  1.00  0.00     0.199 A 
ENDROOT
BRANCH   7  12
HETATM   12  N2  UNL     1      24.588   2.660  50.637  1.00  0.00    -0.357 N 
HETATM   13  C7  UNL     1      24.609   1.812  51.707  1.00  0.00     0.043 C 
HETATM   14  C8  UNL     1      25.748   1.202  51.892  1.00  0.00     0.028 C 
HETATM   15  C14 UNL     1      23.816   1.763  52.951  1.00  0.00     0.296 A 
HETATM   16  C9  UNL     1      26.967   0.483  52.163  1.00  0.00    -0.000 C 
HETATM   17  C10 UNL     1      27.053  -0.577  53.057  1.00  0.00    -0.004 C 
HETATM   18  C11 UNL     1      25.706  -0.847  53.574  1.00  0.00     0.194 C 
HETATM   19  N3  UNL     1      24.680  -0.048  53.028  1.00  0.00    -0.216 NA
HETATM   20  N4  UNL     1      23.576   0.261  53.549  1.00  0.00    -0.101 NA
HETATM   21  N5  UNL     1      22.654   1.034  52.980  1.00  0.00    -0.304 N 
HETATM   22  H3  UNL     1      23.715   2.267  50.228  1.00  0.00     0.166 HD
BRANCH  21  23
HETATM   23  C12 UNL     1      21.476   1.583  52.407  1.00  0.00     0.172 C 
BRANCH  23  24
HETATM   24  C13 UNL     1      20.870   0.671  51.384  1.00  0.00     0.243 C 
HETATM   25  F1  UNL     1      21.906   0.313  50.491  1.00  0.00    -0.254 F 
ENDBRANCH  23  24
ENDBRANCH  21  23
ENDBRANCH   7  12
TORSDOF 3
ENDMDL
MODEL 6
REMARK VINA RESULT:      -7.8      2.736      7.074
REMARK  3 active torsions:
REMARK  status: ('A' for Active; 'I' for Inactive)
REMARK    1  A    between atoms: C6_7  and  N2_8 
REMARK    2  A    between atoms: N5_16  and  C12_17 
REMARK    3  A    between atoms: C12_17  and  C13_18 
ROOT
HETATM    1  N1  UNL     1      22.764   6.302  46.605  1.00  0.00    -0.096 N 
HETATM    2  C1  UNL     1      22.444   5.186  47.350  1.00  0.00     0.018 C 
HETATM    3  C2  UNL     1      22.184   4.204  47.978  1.00  0.00     0.041 A 
HETATM    4  C3  UNL     1      23.000   3.770  48.912  1.00  0.00     0.010 A 
HETATM    5  C4  UNL     1      24.169   4.006  49.563  1.00  0.00     0.017 A 
HETATM    6  C5  UNL     1      24.783   3.323  50.571  1.00  0.00     0.030 A 
HETATM    7  C6  UNL     1      24.021   2.245  50.915  1.00  0.00     0.034 A 
HETATM    8  C15 UNL     1      22.788   1.720  50.446  1.00  0.00     0.061 A 
HETATM    9  C16 UNL     1      22.377   2.585  49.435  1.00  0.00     0.065 A 
HETATM   10  N6  UNL     1      21.267   2.265  48.859  1.00  0.00    -0.284 NA
HETATM   11  C17 UNL     1      21.057   3.222  47.818  1.00  0.00     0.199 A 
ENDROOT
BRANCH   7  12
HETATM   12  N2  UNL     1      24.540   1.658  52.086  1.00  0.00    -0.357 N 
HETATM   13  C7  UNL     1      24.495   0.585  52.929  1.00  0.00     0.043 C 
HETATM   14  C8  UNL     1      23.291   0.226  53.285  1.00  0.00     0.028 C 
HETATM   15  C14 UNL     1      25.432  -0.531  53.167  1.00  0.00     0.296 A 
HETATM   16  C9  UNL     1      22.001  -0.230  53.733  1.00  0.00    -0.000 C 
HETATM   17  C10 UNL     1      21.821  -1.142  54.766  1.00  0.00    -0.004 C 
HETATM   18  C11 UNL     1      23.141  -1.461  55.326  1.00  0.00     0.194 C 
HETATM   19  N3  UNL     1      24.223  -0.759  54.754  1.00  0.00    -0.216 NA
HETATM   20  N4  UNL     1      25.431  -1.109  54.695  1.00  0.00    -0.101 NA
HETATM   21  N5  UNL     1      26.403  -0.400  54.127  1.00  0.00    -0.304 N 
HETATM   22  H3  UNL     1      25.240   2.184  52.650  1.00  0.00     0.166 HD
BRANCH  21  23
HETATM   23  C12 UNL     1      27.575   0.346  53.831  1.00  0.00     0.172 C 
BRANCH  23  24
HETATM   24  C13 UNL     1      28.639   0.158  54.870  1.00  0.00     0.243 C 
HETATM   25  F1  UNL     1      29.615  -0.693  54.305  1.00  0.00    -0.254 F 
ENDBRANCH  23  24
ENDBRANCH  21  23
ENDBRANCH   7  12
TORSDOF 3
ENDMDL
MODEL 7
REMARK VINA RESULT:      -7.7      4.158      6.992
REMARK  3 active torsions:
REMARK  status: ('A' for Active; 'I' for Inactive)
REMARK    1  A    between atoms: C6_7  and  N2_8 
REMARK    2  A    between atoms: N5_16  and  C12_17 
REMARK    3  A    between atoms: C12_17  and  C13_18 
ROOT
HETATM    1  N1  UNL     1      26.017   8.138  46.322  1.00  0.00    -0.096 N 
HETATM    2  C1  UNL     1      25.365   7.623  47.424  1.00  0.00     0.018 C 
HETATM    3  C2  UNL     1      24.788   7.159  48.360  1.00  0.00     0.041 A 
HETATM    4  C3  UNL     1      25.232   6.071  48.949  1.00  0.00     0.010 A 
HETATM    5  C4  UNL     1      26.213   5.130  48.951  1.00  0.00     0.017 A 
HETATM    6  C5  UNL     1      26.413   4.052  49.760  1.00  0.00     0.030 A 
HETATM    7  C6  UNL     1      25.417   3.995  50.691  1.00  0.00     0.034 A 
HETATM    8  C15 UNL     1      24.272   4.790  50.958  1.00  0.00     0.061 A 
HETATM    9  C16 UNL     1      24.296   5.807  50.007  1.00  0.00     0.065 A 
HETATM   10  N6  UNL     1      23.311   6.639  50.071  1.00  0.00    -0.284 NA
HETATM   11  C17 UNL     1      23.477   7.551  48.982  1.00  0.00     0.199 A 
ENDROOT
BRANCH   7  12
HETATM   12  N2  UNL     1      25.730   3.015  51.654  1.00  0.00    -0.357 N 
HETATM   13  C7  UNL     1      25.492   1.743  52.090  1.00  0.00     0.043 C 
HETATM   14  C8  UNL     1      24.228   1.431  52.187  1.00  0.00     0.028 C 
HETATM   15  C14 UNL     1      26.302   0.510  52.045  1.00  0.00     0.296 A 
HETATM   16  C9  UNL     1      22.859   1.008  52.329  1.00  0.00    -0.000 C 
HETATM   17  C10 UNL     1      22.475  -0.155  52.984  1.00  0.00    -0.004 C 
HETATM   18  C11 UNL     1      23.681  -0.783  53.539  1.00  0.00     0.194 C 
HETATM   19  N3  UNL     1      24.879  -0.066  53.340  1.00  0.00    -0.216 NA
HETATM   20  N4  UNL     1      26.055  -0.517  53.293  1.00  0.00    -0.101 NA
HETATM   21  N5  UNL     1      27.144   0.219  53.088  1.00  0.00    -0.304 N 
HETATM   22  H3  UNL     1      26.387   3.253  52.425  1.00  0.00     0.166 HD
BRANCH  21  23
HETATM   23  C12 UNL     1      28.398   0.881  53.172  1.00  0.00     0.172 C 
BRANCH  23  24
HETATM   24  C13 UNL     1      29.439   0.032  53.837  1.00  0.00     0.243 C 
HETATM   25  F1  UNL     1      29.639  -1.094  53.005  1.00  0.00    -0.254 F 
ENDBRANCH  23  24
ENDBRANCH  21  23
ENDBRANCH   7  12
TORSDOF 3
ENDMDL
MODEL 8
REMARK VINA RESULT:      -7.7      2.934      6.898
REMARK  3 active torsions:
REMARK  status: ('A' for Active; 'I' for Inactive)
REMARK    1  A    between atoms: C6_7  and  N2_8 
REMARK    2  A    between atoms: N5_16  and  C12_17 
REMARK    3  A    between atoms: C12_17  and  C13_18 
ROOT
HETATM    1  N1  UNL     1      21.314   3.885  45.888  1.00  0.00    -0.096 N 
HETATM    2  C1  UNL     1      22.095   4.244  46.966  1.00  0.00     0.018 C 
HETATM    3  C2  UNL     1      22.748   4.561  47.914  1.00  0.00     0.041 A 
HETATM    4  C3  UNL     1      22.969   3.711  48.891  1.00  0.00     0.010 A 
HETATM    5  C4  UNL     1      22.748   2.444  49.332  1.00  0.00     0.017 A 
HETATM    6  C5  UNL     1      23.152   1.813  50.470  1.00  0.00     0.030 A 
HETATM    7  C6  UNL     1      23.897   2.673  51.224  1.00  0.00     0.034 A 
HETATM    8  C15 UNL     1      24.300   4.025  51.065  1.00  0.00     0.061 A 
HETATM    9  C16 UNL     1      23.766   4.431  49.844  1.00  0.00     0.065 A 
HETATM   10  N6  UNL     1      24.010   5.657  49.521  1.00  0.00    -0.284 NA
HETATM   11  C17 UNL     1      23.327   5.897  48.289  1.00  0.00     0.199 A 
ENDROOT
BRANCH   7  12
HETATM   12  N2  UNL     1      24.489   1.970  52.292  1.00  0.00    -0.357 N 
HETATM   13  C7  UNL     1      24.488   0.820  53.026  1.00  0.00     0.043 C 
HETATM   14  C8  UNL     1      23.307   0.438  53.434  1.00  0.00     0.028 C 
HETATM   15  C14 UNL     1      25.421  -0.322  53.086  1.00  0.00     0.296 A 
HETATM   16  C9  UNL     1      22.044  -0.048  53.928  1.00  0.00    -0.000 C 
HETATM   17  C10 UNL     1      21.925  -1.055  54.878  1.00  0.00    -0.004 C 
HETATM   18  C11 UNL     1      23.276  -1.439  55.306  1.00  0.00     0.194 C 
HETATM   19  N3  UNL     1      24.325  -0.694  54.728  1.00  0.00    -0.216 NA
HETATM   20  N4  UNL     1      25.521  -1.048  54.547  1.00  0.00    -0.101 NA
HETATM   21  N5  UNL     1      26.460  -0.295  53.981  1.00  0.00    -0.304 N 
HETATM   22  H3  UNL     1      25.236   2.432  52.851  1.00  0.00     0.166 HD
BRANCH  21  23
HETATM   23  C12 UNL     1      27.620   0.466  53.674  1.00  0.00     0.172 C 
BRANCH  23  24
HETATM   24  C13 UNL     1      28.734   0.210  54.644  1.00  0.00     0.243 C 
HETATM   25  F1  UNL     1      29.783  -0.391  53.912  1.00  0.00    -0.254 F 
ENDBRANCH  23  24
ENDBRANCH  21  23
ENDBRANCH   7  12
TORSDOF 3
ENDMDL
MODEL 9
REMARK VINA RESULT:      -7.4      2.724      7.486
REMARK  3 active torsions:
REMARK  status: ('A' for Active; 'I' for Inactive)
REMARK    1  A    between atoms: C6_7  and  N2_8 
REMARK    2  A    between atoms: N5_16  and  C12_17 
REMARK    3  A    between atoms: C12_17  and  C13_18 
ROOT
HETATM    1  N1  UNL     1      17.328  -3.772  54.123  1.00  0.00    -0.096 N 
HETATM    2  C1  UNL     1      17.658  -2.596  53.481  1.00  0.00     0.018 C 
HETATM    3  C2  UNL     1      17.936  -1.565  52.948  1.00  0.00     0.041 A 
HETATM    4  C3  UNL     1      19.095  -0.986  53.170  1.00  0.00     0.010 A 
HETATM    5  C4  UNL     1      20.278  -1.087  53.831  1.00  0.00     0.017 A 
HETATM    6  C5  UNL     1      21.364  -0.264  53.846  1.00  0.00     0.030 A 
HETATM    7  C6  UNL     1      21.132   0.806  53.031  1.00  0.00     0.034 A 
HETATM    8  C15 UNL     1      20.035   1.210  52.226  1.00  0.00     0.061 A 
HETATM    9  C16 UNL     1      19.072   0.216  52.384  1.00  0.00     0.065 A 
HETATM   10  N6  UNL     1      17.973   0.411  51.735  1.00  0.00    -0.284 NA
HETATM   11  C17 UNL     1      17.100  -0.666  52.080  1.00  0.00     0.199 A 
ENDROOT
BRANCH   7  12
HETATM   12  N2  UNL     1      22.320   1.547  52.878  1.00  0.00    -0.357 N 
HETATM   13  C7  UNL     1      23.607   1.538  52.423  1.00  0.00     0.043 C 
HETATM   14  C8  UNL     1      24.306   0.500  52.796  1.00  0.00     0.028 C 
HETATM   15  C14 UNL     1      24.254   2.175  51.260  1.00  0.00     0.296 A 
HETATM   16  C9  UNL     1      25.148  -0.609  53.167  1.00  0.00    -0.000 C 
HETATM   17  C10 UNL     1      26.525  -0.627  52.982  1.00  0.00    -0.004 C 
HETATM   18  C11 UNL     1      26.927   0.675  52.436  1.00  0.00     0.194 C 
HETATM   19  N3  UNL     1      25.885   1.615  52.290  1.00  0.00    -0.216 NA
HETATM   20  N4  UNL     1      25.820   2.584  51.487  1.00  0.00    -0.101 NA
HETATM   21  N5  UNL     1      24.796   3.428  51.394  1.00  0.00    -0.304 N 
HETATM   22  H3  UNL     1      22.367   2.515  53.259  1.00  0.00     0.166 HD
BRANCH  21  23
HETATM   23  C12 UNL     1      23.938   4.560  51.369  1.00  0.00     0.172 C 
BRANCH  23  24
HETATM   24  C13 UNL     1      23.505   4.967  52.745  1.00  0.00     0.243 C 
HETATM   25  F1  UNL     1      22.110   4.747  52.815  1.00  0.00    -0.254 F 
ENDBRANCH  23  24
ENDBRANCH  21  23
ENDBRANCH   7  12
TORSDOF 3
ENDMDL
