MODEL 1
REMARK VINA RESULT:      -7.8      0.000      0.000
REMARK  4 active torsions:
REMARK  status: ('A' for Active; 'I' for Inactive)
REMARK    1  A    between atoms: C2_2  and  C3_3 
REMARK    2  A    between atoms: C3_3  and  C4_5 
REMARK    3  A    between atoms: C8_11  and  N3_12 
REMARK    4  A    between atoms: C13_18  and  N4_19 
ROOT
HETATM    1  C4  UNL     1      26.131  -0.167  52.768  1.00  0.00     0.106 C 
HETATM    2  C5  UNL     1      25.633  -0.263  54.138  1.00  0.00     0.009 C 
HETATM    3  C6  UNL     1      24.338   0.067  53.839  1.00  0.00     0.115 C 
HETATM    4  N1  UNL     1      23.516   0.417  52.714  1.00  0.00    -0.254 NA
HETATM    5  C7  UNL     1      23.955   1.125  51.700  1.00  0.00     0.234 C 
HETATM    6  N2  UNL     1      25.264   1.599  51.631  1.00  0.00    -0.224 NA
HETATM    7  C8  UNL     1      25.761   2.611  51.070  1.00  0.00     0.136 C 
HETATM    8  C14 UNL     1      26.918   2.040  51.801  1.00  0.00     0.048 C 
HETATM    9  C15 UNL     1      27.102   0.912  52.514  1.00  0.00    -0.007 C 
ENDROOT
BRANCH   7  10
HETATM   10  N3  UNL     1      25.907   3.806  50.327  1.00  0.00    -0.291 N 
HETATM   11  C9  UNL     1      26.806   3.952  49.237  1.00  0.00     0.113 C 
HETATM   12  C10 UNL     1      27.017   5.157  48.806  1.00  0.00    -0.007 C 
HETATM   13  C11 UNL     1      26.099   6.081  49.011  1.00  0.00     0.036 C 
HETATM   14  C12 UNL     1      25.132   6.037  50.127  1.00  0.00     0.056 C 
HETATM   15 BR1  UNL     1      24.088   7.569  50.570  1.00  0.00    -0.047 Br
HETATM   16  C13 UNL     1      25.068   4.869  50.764  1.00  0.00     0.124 C 
BRANCH  16  17
HETATM   17  N4  UNL     1      24.150   4.777  51.849  1.00  0.00    -0.384 N 
HETATM   18  H10 UNL     1      23.199   4.368  51.988  1.00  0.00     0.157 HD
HETATM   19  H11 UNL     1      24.554   5.236  52.686  1.00  0.00     0.157 HD
ENDBRANCH  16  17
ENDBRANCH   7  10
BRANCH   1  20
HETATM   20  C3  UNL     1      27.094  -1.468  52.646  1.00  0.00     0.159 C 
HETATM   21  O1  UNL     1      27.166  -2.659  52.250  1.00  0.00    -0.292 OA
BRANCH  20  22
HETATM   22  C2  UNL     1      28.401  -1.194  53.204  1.00  0.00     0.041 C 
HETATM   23  C1  UNL     1      29.052  -2.369  53.180  1.00  0.00     0.015 C 
ENDBRANCH  20  22
ENDBRANCH   1  20
TORSDOF 4
ENDMDL
MODEL 2
REMARK VINA RESULT:      -7.5      3.218      5.689
REMARK  4 active torsions:
REMARK  status: ('A' for Active; 'I' for Inactive)
REMARK    1  A    between atoms: C2_2  and  C3_3 
REMARK    2  A    between atoms: C3_3  and  C4_5 
REMARK    3  A    between atoms: C8_11  and  N3_12 
REMARK    4  A    between atoms: C13_18  and  N4_19 
ROOT
HETATM    1  C4  UNL     1      26.434   0.962  53.024  1.00  0.00     0.106 C 
HETATM    2  C5  UNL     1      27.070   1.308  51.755  1.00  0.00     0.009 C 
HETATM    3  C6  UNL     1      26.286   2.401  51.499  1.00  0.00     0.115 C 
HETATM    4  N1  UNL     1      25.197   3.141  52.074  1.00  0.00    -0.254 NA
HETATM    5  C7  UNL     1      24.228   2.576  52.754  1.00  0.00     0.234 C 
HETATM    6  N2  UNL     1      24.175   1.201  52.977  1.00  0.00    -0.224 NA
HETATM    7  C8  UNL     1      23.205   0.417  53.154  1.00  0.00     0.136 C 
HETATM    8  C14 UNL     1      24.367  -0.503  53.108  1.00  0.00     0.048 C 
HETATM    9  C15 UNL     1      25.699  -0.315  53.044  1.00  0.00    -0.007 C 
ENDROOT
BRANCH   7  10
HETATM   10  N3  UNL     1      21.895  -0.096  53.307  1.00  0.00    -0.291 N 
HETATM   11  C9  UNL     1      21.512  -0.981  54.350  1.00  0.00     0.113 C 
HETATM   12  C10 UNL     1      20.358  -1.562  54.234  1.00  0.00    -0.007 C 
HETATM   13  C11 UNL     1      19.425  -0.991  53.498  1.00  0.00     0.036 C 
HETATM   14  C12 UNL     1      19.716  -0.075  52.376  1.00  0.00     0.056 C 
HETATM   15 BR1  UNL     1      18.349   0.417  51.142  1.00  0.00    -0.047 Br
HETATM   16  C13 UNL     1      20.976   0.353  52.318  1.00  0.00     0.124 C 
BRANCH  16  17
HETATM   17  N4  UNL     1      21.306   1.238  51.253  1.00  0.00    -0.384 N 
HETATM   18  H10 UNL     1      20.769   1.854  50.602  1.00  0.00     0.157 HD
HETATM   19  H11 UNL     1      22.333   1.251  51.117  1.00  0.00     0.157 HD
ENDBRANCH  16  17
ENDBRANCH   7  10
BRANCH   1  20
HETATM   20  C3  UNL     1      27.700   0.592  53.969  1.00  0.00     0.159 C 
HETATM   21  O1  UNL     1      28.382   0.954  54.962  1.00  0.00    -0.292 OA
BRANCH  20  22
HETATM   22  C2  UNL     1      28.325  -0.638  53.533  1.00  0.00     0.041 C 
HETATM   23  C1  UNL     1      29.637  -0.477  53.774  1.00  0.00     0.015 C 
ENDBRANCH  20  22
ENDBRANCH   1  20
TORSDOF 4
ENDMDL
MODEL 3
REMARK VINA RESULT:      -7.5      2.327      3.739
REMARK  4 active torsions:
REMARK  status: ('A' for Active; 'I' for Inactive)
REMARK    1  A    between atoms: C2_2  and  C3_3 
REMARK    2  A    between atoms: C3_3  and  C4_5 
REMARK    3  A    between atoms: C8_11  and  N3_12 
REMARK    4  A    between atoms: C13_18  and  N4_19 
ROOT
HETATM    1  C4  UNL     1      24.229   0.016  53.894  1.00  0.00     0.106 C 
HETATM    2  C5  UNL     1      25.321  -0.950  53.987  1.00  0.00     0.009 C 
HETATM    3  C6  UNL     1      26.288  -0.038  54.316  1.00  0.00     0.115 C 
HETATM    4  N1  UNL     1      26.447   1.371  54.545  1.00  0.00    -0.254 NA
HETATM    5  C7  UNL     1      25.777   2.285  53.883  1.00  0.00     0.234 C 
HETATM    6  N2  UNL     1      24.850   1.960  52.895  1.00  0.00    -0.224 NA
HETATM    7  C8  UNL     1      24.467   2.580  51.867  1.00  0.00     0.136 C 
HETATM    8  C14 UNL     1      23.765   1.280  51.745  1.00  0.00     0.048 C 
HETATM    9  C15 UNL     1      23.655   0.205  52.550  1.00  0.00    -0.007 C 
ENDROOT
BRANCH   7  10
HETATM   10  N3  UNL     1      24.321   3.566  50.862  1.00  0.00    -0.291 N 
HETATM   11  C9  UNL     1      23.064   4.036  50.395  1.00  0.00     0.113 C 
HETATM   12  C10 UNL     1      23.069   4.751  49.313  1.00  0.00    -0.007 C 
HETATM   13  C11 UNL     1      24.164   5.406  48.983  1.00  0.00     0.036 C 
HETATM   14  C12 UNL     1      25.521   4.989  49.395  1.00  0.00     0.056 C 
HETATM   15 BR1  UNL     1      27.064   5.764  48.588  1.00  0.00    -0.047 Br
HETATM   16  C13 UNL     1      25.553   4.057  50.347  1.00  0.00     0.124 C 
BRANCH  16  17
HETATM   17  N4  UNL     1      26.838   3.622  50.778  1.00  0.00    -0.384 N 
HETATM   18  H10 UNL     1      27.541   3.953  51.477  1.00  0.00     0.157 HD
HETATM   19  H11 UNL     1      27.111   2.771  50.253  1.00  0.00     0.157 HD
ENDBRANCH  16  17
ENDBRANCH   7  10
BRANCH   1  20
HETATM   20  C3  UNL     1      23.007  -0.753  54.634  1.00  0.00     0.159 C 
HETATM   21  O1  UNL     1      22.710  -1.647  55.467  1.00  0.00    -0.292 OA
BRANCH  20  22
HETATM   22  C2  UNL     1      21.730  -0.237  54.188  1.00  0.00     0.041 C 
HETATM   23  C1  UNL     1      20.890  -1.285  54.224  1.00  0.00     0.015 C 
ENDBRANCH  20  22
ENDBRANCH   1  20
TORSDOF 4
ENDMDL
MODEL 4
REMARK VINA RESULT:      -7.2      4.299      6.380
REMARK  4 active torsions:
REMARK  status: ('A' for Active; 'I' for Inactive)
REMARK    1  A    between atoms: C2_2  and  C3_3 
REMARK    2  A    between atoms: C3_3  and  C4_5 
REMARK    3  A    between atoms: C8_11  and  N3_12 
REMARK    4  A    between atoms: C13_18  and  N4_19 
ROOT
HETATM    1  C4  UNL     1      21.549   0.812  53.040  1.00  0.00     0.106 C 
HETATM    2  C5  UNL     1      20.488  -0.143  52.729  1.00  0.00     0.009 C 
HETATM    3  C6  UNL     1      20.707  -0.951  53.812  1.00  0.00     0.115 C 
HETATM    4  N1  UNL     1      21.568  -1.059  54.958  1.00  0.00    -0.254 NA
HETATM    5  C7  UNL     1      22.830  -0.702  54.940  1.00  0.00     0.234 C 
HETATM    6  N2  UNL     1      23.444  -0.185  53.800  1.00  0.00    -0.224 NA
HETATM    7  C8  UNL     1      24.638  -0.219  53.402  1.00  0.00     0.136 C 
HETATM    8  C14 UNL     1      23.934   0.430  52.270  1.00  0.00     0.048 C 
HETATM    9  C15 UNL     1      22.670   0.856  52.084  1.00  0.00    -0.007 C 
ENDROOT
BRANCH   7  10
HETATM   10  N3  UNL     1      26.028  -0.476  53.324  1.00  0.00    -0.291 N 
HETATM   11  C9  UNL     1      26.582  -1.642  52.733  1.00  0.00     0.113 C 
HETATM   12  C10 UNL     1      27.842  -1.867  52.944  1.00  0.00    -0.007 C 
HETATM   13  C11 UNL     1      28.633  -0.854  53.233  1.00  0.00     0.036 C 
HETATM   14  C12 UNL     1      28.164   0.394  53.870  1.00  0.00     0.056 C 
HETATM   15 BR1  UNL     1      29.408   1.650  54.583  1.00  0.00    -0.047 Br
HETATM   16  C13 UNL     1      26.840   0.544  53.894  1.00  0.00     0.124 C 
BRANCH  16  17
HETATM   17  N4  UNL     1      26.338   1.731  54.499  1.00  0.00    -0.384 N 
HETATM   18  H10 UNL     1      26.261   2.095  55.475  1.00  0.00     0.157 HD
HETATM   19  H11 UNL     1      25.969   2.365  53.767  1.00  0.00     0.157 HD
ENDBRANCH  16  17
ENDBRANCH   7  10
BRANCH   1  20
HETATM   20  C3  UNL     1      20.844   2.242  52.736  1.00  0.00     0.159 C 
HETATM   21  O1  UNL     1      19.751   2.863  52.708  1.00  0.00    -0.292 OA
BRANCH  20  22
HETATM   22  C2  UNL     1      21.827   3.225  52.332  1.00  0.00     0.041 C 
HETATM   23  C1  UNL     1      21.154   4.118  51.589  1.00  0.00     0.015 C 
ENDBRANCH  20  22
ENDBRANCH   1  20
TORSDOF 4
ENDMDL
MODEL 5
REMARK VINA RESULT:      -7.1      3.335      6.537
REMARK  4 active torsions:
REMARK  status: ('A' for Active; 'I' for Inactive)
REMARK    1  A    between atoms: C2_2  and  C3_3 
REMARK    2  A    between atoms: C3_3  and  C4_5 
REMARK    3  A    between atoms: C8_11  and  N3_12 
REMARK    4  A    between atoms: C13_18  and  N4_19 
ROOT
HETATM    1  C4  UNL     1      25.516   5.322  49.484  1.00  0.00     0.106 C 
HETATM    2  C5  UNL     1      24.443   5.691  48.563  1.00  0.00     0.009 C 
HETATM    3  C6  UNL     1      23.464   5.774  49.517  1.00  0.00     0.115 C 
HETATM    4  N1  UNL     1      23.282   5.615  50.933  1.00  0.00    -0.254 NA
HETATM    5  C7  UNL     1      23.928   4.719  51.642  1.00  0.00     0.234 C 
HETATM    6  N2  UNL     1      24.850   3.842  51.074  1.00  0.00    -0.224 NA
HETATM    7  C8  UNL     1      25.211   2.679  51.397  1.00  0.00     0.136 C 
HETATM    8  C14 UNL     1      25.934   2.904  50.122  1.00  0.00     0.048 C 
HETATM    9  C15 UNL     1      26.073   3.968  49.308  1.00  0.00    -0.007 C 
ENDROOT
BRANCH   7  10
HETATM   10  N3  UNL     1      25.328   1.442  52.074  1.00  0.00    -0.291 N 
HETATM   11  C9  UNL     1      26.524   0.677  52.117  1.00  0.00     0.113 C 
HETATM   12  C10 UNL     1      26.428  -0.539  52.558  1.00  0.00    -0.007 C 
HETATM   13  C11 UNL     1      25.435  -0.852  53.366  1.00  0.00     0.036 C 
HETATM   14  C12 UNL     1      24.142  -0.137  53.385  1.00  0.00     0.056 C 
HETATM   15 BR1  UNL     1      22.641  -0.864  54.308  1.00  0.00    -0.047 Br
HETATM   16  C13 UNL     1      24.133   1.018  52.720  1.00  0.00     0.124 C 
BRANCH  16  17
HETATM   17  N4  UNL     1      22.908   1.744  52.708  1.00  0.00    -0.384 N 
HETATM   18  H10 UNL     1      22.243   2.071  51.972  1.00  0.00     0.157 HD
HETATM   19  H11 UNL     1      22.642   1.992  53.679  1.00  0.00     0.157 HD
ENDBRANCH  16  17
ENDBRANCH   7  10
BRANCH   1  20
HETATM   20  C3  UNL     1      26.760   6.224  48.962  1.00  0.00     0.159 C 
HETATM   21  O1  UNL     1      27.183   7.398  48.802  1.00  0.00    -0.292 OA
BRANCH  20  22
HETATM   22  C2  UNL     1      27.836   5.385  48.477  1.00  0.00     0.041 C 
HETATM   23  C1  UNL     1      28.815   6.232  48.118  1.00  0.00     0.015 C 
ENDBRANCH  20  22
ENDBRANCH   1  20
TORSDOF 4
ENDMDL
MODEL 6
REMARK VINA RESULT:      -7.0      4.401      6.428
REMARK  4 active torsions:
REMARK  status: ('A' for Active; 'I' for Inactive)
REMARK    1  A    between atoms: C2_2  and  C3_3 
REMARK    2  A    between atoms: C3_3  and  C4_5 
REMARK    3  A    between atoms: C8_11  and  N3_12 
REMARK    4  A    between atoms: C13_18  and  N4_19 
ROOT
HETATM    1  C4  UNL     1      21.761   0.896  52.731  1.00  0.00     0.106 C 
HETATM    2  C5  UNL     1      21.098  -0.230  52.078  1.00  0.00     0.009 C 
HETATM    3  C6  UNL     1      21.471  -1.168  53.003  1.00  0.00     0.115 C 
HETATM    4  N1  UNL     1      22.216  -1.280  54.227  1.00  0.00    -0.254 NA
HETATM    5  C7  UNL     1      23.291  -0.571  54.478  1.00  0.00     0.234 C 
HETATM    6  N2  UNL     1      23.802   0.356  53.572  1.00  0.00    -0.224 NA
HETATM    7  C8  UNL     1      24.973   0.773  53.368  1.00  0.00     0.136 C 
HETATM    8  C14 UNL     1      24.200   1.429  52.287  1.00  0.00     0.048 C 
HETATM    9  C15 UNL     1      22.887   1.493  51.990  1.00  0.00    -0.007 C 
ENDROOT
BRANCH   7  10
HETATM   10  N3  UNL     1      26.372   0.965  53.461  1.00  0.00    -0.291 N 
HETATM   11  C9  UNL     1      26.985   2.238  53.605  1.00  0.00     0.113 C 
HETATM   12  C10 UNL     1      28.270   2.295  53.433  1.00  0.00    -0.007 C 
HETATM   13  C11 UNL     1      28.990   1.209  53.625  1.00  0.00     0.036 C 
HETATM   14  C12 UNL     1      28.458  -0.161  53.478  1.00  0.00     0.056 C 
HETATM   15 BR1  UNL     1      29.632  -1.661  53.414  1.00  0.00    -0.047 Br
HETATM   16  C13 UNL     1      27.129  -0.238  53.399  1.00  0.00     0.124 C 
BRANCH  16  17
HETATM   17  N4  UNL     1      26.567  -1.538  53.256  1.00  0.00    -0.384 N 
HETATM   18  H10 UNL     1      26.382  -2.344  53.894  1.00  0.00     0.157 HD
HETATM   19  H11 UNL     1      26.285  -1.689  52.270  1.00  0.00     0.157 HD
ENDBRANCH  16  17
ENDBRANCH   7  10
BRANCH   1  20
HETATM   20  C3  UNL     1      20.661   2.082  52.604  1.00  0.00     0.159 C 
HETATM   21  O1  UNL     1      20.401   3.278  52.893  1.00  0.00    -0.292 OA
BRANCH  20  22
HETATM   22  C2  UNL     1      19.496   1.626  51.876  1.00  0.00     0.041 C 
HETATM   23  C1  UNL     1      18.890   2.742  51.436  1.00  0.00     0.015 C 
ENDBRANCH  20  22
ENDBRANCH   1  20
TORSDOF 4
ENDMDL
MODEL 7
REMARK VINA RESULT:      -6.6      3.387      5.759
REMARK  4 active torsions:
REMARK  status: ('A' for Active; 'I' for Inactive)
REMARK    1  A    between atoms: C2_2  and  C3_3 
REMARK    2  A    between atoms: C3_3  and  C4_5 
REMARK    3  A    between atoms: C8_11  and  N3_12 
REMARK    4  A    between atoms: C13_18  and  N4_19 
ROOT
HETATM    1  C4  UNL     1      25.927   2.367  51.883  1.00  0.00     0.106 C 
HETATM    2  C5  UNL     1      26.370   2.794  50.558  1.00  0.00     0.009 C 
HETATM    3  C6  UNL     1      25.445   3.793  50.417  1.00  0.00     0.115 C 
HETATM    4  N1  UNL     1      24.353   4.399  51.128  1.00  0.00    -0.254 NA
HETATM    5  C7  UNL     1      23.538   3.721  51.901  1.00  0.00     0.234 C 
HETATM    6  N2  UNL     1      23.665   2.347  52.097  1.00  0.00    -0.224 NA
HETATM    7  C8  UNL     1      22.817   1.456  52.366  1.00  0.00     0.136 C 
HETATM    8  C14 UNL     1      24.061   0.675  52.167  1.00  0.00     0.048 C 
HETATM    9  C15 UNL     1      25.348   1.014  51.958  1.00  0.00    -0.007 C 
ENDROOT
BRANCH   7  10
HETATM   10  N3  UNL     1      21.599   0.796  52.655  1.00  0.00    -0.291 N 
HETATM   11  C9  UNL     1      21.356   0.081  53.858  1.00  0.00     0.113 C 
HETATM   12  C10 UNL     1      20.302  -0.674  53.890  1.00  0.00    -0.007 C 
HETATM   13  C11 UNL     1      19.291  -0.398  53.091  1.00  0.00     0.036 C 
HETATM   14  C12 UNL     1      19.437   0.318  51.807  1.00  0.00     0.056 C 
HETATM   15 BR1  UNL     1      18.008   0.360  50.547  1.00  0.00    -0.047 Br
HETATM   16  C13 UNL     1      20.619   0.907  51.629  1.00  0.00     0.124 C 
BRANCH  16  17
HETATM   17  N4  UNL     1      20.810   1.611  50.406  1.00  0.00    -0.384 N 
HETATM   18  H10 UNL     1      20.262   1.736  49.525  1.00  0.00     0.157 HD
HETATM   19  H11 UNL     1      21.719   2.107  50.428  1.00  0.00     0.157 HD
ENDBRANCH  16  17
ENDBRANCH   7  10
BRANCH   1  20
HETATM   20  C3  UNL     1      27.327   2.134  52.670  1.00  0.00     0.159 C 
HETATM   21  O1  UNL     1      28.566   2.352  52.651  1.00  0.00    -0.292 OA
BRANCH  20  22
HETATM   22  C2  UNL     1      27.113   1.378  53.886  1.00  0.00     0.041 C 
HETATM   23  C1  UNL     1      28.233   0.656  54.058  1.00  0.00     0.015 C 
ENDBRANCH  20  22
ENDBRANCH   1  20
TORSDOF 4
ENDMDL
MODEL 8
REMARK VINA RESULT:      -6.4      3.498      7.159
REMARK  4 active torsions:
REMARK  status: ('A' for Active; 'I' for Inactive)
REMARK    1  A    between atoms: C2_2  and  C3_3 
REMARK    2  A    between atoms: C3_3  and  C4_5 
REMARK    3  A    between atoms: C8_11  and  N3_12 
REMARK    4  A    between atoms: C13_18  and  N4_19 
ROOT
HETATM    1  C4  UNL     1      26.815   6.785  48.627  1.00  0.00     0.106 C 
HETATM    2  C5  UNL     1      25.975   7.317  47.556  1.00  0.00     0.009 C 
HETATM    3  C6  UNL     1      24.878   7.549  48.342  1.00  0.00     0.115 C 
HETATM    4  N1  UNL     1      24.445   7.417  49.705  1.00  0.00    -0.254 NA
HETATM    5  C7  UNL     1      24.822   6.430  50.484  1.00  0.00     0.234 C 
HETATM    6  N2  UNL     1      25.681   5.423  50.048  1.00  0.00    -0.224 NA
HETATM    7  C8  UNL     1      25.803   4.217  50.393  1.00  0.00     0.136 C 
HETATM    8  C14 UNL     1      26.750   4.331  49.258  1.00  0.00     0.048 C 
HETATM    9  C15 UNL     1      27.180   5.363  48.506  1.00  0.00    -0.007 C 
ENDROOT
BRANCH   7  10
HETATM   10  N3  UNL     1      25.618   2.976  51.046  1.00  0.00    -0.291 N 
HETATM   11  C9  UNL     1      26.685   2.181  51.545  1.00  0.00     0.113 C 
HETATM   12  C10 UNL     1      26.398   0.966  51.897  1.00  0.00    -0.007 C 
HETATM   13  C11 UNL     1      25.161   0.676  52.247  1.00  0.00     0.036 C 
HETATM   14  C12 UNL     1      23.980   1.422  51.767  1.00  0.00     0.056 C 
HETATM   15 BR1  UNL     1      22.222   0.729  52.018  1.00  0.00    -0.047 Br
HETATM   16  C13 UNL     1      24.257   2.579  51.166  1.00  0.00     0.124 C 
BRANCH  16  17
HETATM   17  N4  UNL     1      23.151   3.335  50.685  1.00  0.00    -0.384 N 
HETATM   18  H10 UNL     1      22.953   4.349  50.530  1.00  0.00     0.157 HD
HETATM   19  H11 UNL     1      22.374   2.696  50.437  1.00  0.00     0.157 HD
ENDBRANCH  16  17
ENDBRANCH   7  10
BRANCH   1  20
HETATM   20  C3  UNL     1      28.250   7.486  48.337  1.00  0.00     0.159 C 
HETATM   21  O1  UNL     1      29.275   7.985  48.867  1.00  0.00    -0.292 OA
BRANCH  20  22
HETATM   22  C2  UNL     1      28.486   7.605  46.914  1.00  0.00     0.041 C 
HETATM   23  C1  UNL     1      29.671   8.228  46.800  1.00  0.00     0.015 C 
ENDBRANCH  20  22
ENDBRANCH   1  20
TORSDOF 4
ENDMDL
MODEL 9
REMARK VINA RESULT:      -6.1      4.579      6.829
REMARK  4 active torsions:
REMARK  status: ('A' for Active; 'I' for Inactive)
REMARK    1  A    between atoms: C2_2  and  C3_3 
REMARK    2  A    between atoms: C3_3  and  C4_5 
REMARK    3  A    between atoms: C8_11  and  N3_12 
REMARK    4  A    between atoms: C13_18  and  N4_19 
ROOT
HETATM    1  C4  UNL     1      19.768   1.325  51.968  1.00  0.00     0.106 C 
HETATM    2  C5  UNL     1      19.045   0.057  51.907  1.00  0.00     0.009 C 
HETATM    3  C6  UNL     1      19.547  -0.446  53.078  1.00  0.00     0.115 C 
HETATM    4  N1  UNL     1      20.442  -0.088  54.142  1.00  0.00    -0.254 NA
HETATM    5  C7  UNL     1      21.529   0.623  53.955  1.00  0.00     0.234 C 
HETATM    6  N2  UNL     1      21.907   1.092  52.698  1.00  0.00    -0.224 NA
HETATM    7  C8  UNL     1      23.036   1.350  52.203  1.00  0.00     0.136 C 
HETATM    8  C14 UNL     1      22.122   1.548  51.053  1.00  0.00     0.048 C 
HETATM    9  C15 UNL     1      20.781   1.535  50.918  1.00  0.00    -0.007 C 
ENDROOT
BRANCH   7  10
HETATM   10  N3  UNL     1      24.432   1.512  52.040  1.00  0.00    -0.291 N 
HETATM   11  C9  UNL     1      25.026   2.625  51.385  1.00  0.00     0.113 C 
HETATM   12  C10 UNL     1      26.285   2.530  51.090  1.00  0.00    -0.007 C 
HETATM   13  C11 UNL     1      27.047   1.714  51.790  1.00  0.00     0.036 C 
HETATM   14  C12 UNL     1      26.536   0.517  52.489  1.00  0.00     0.056 C 
HETATM   15 BR1  UNL     1      27.735  -0.801  53.166  1.00  0.00    -0.047 Br
HETATM   16  C13 UNL     1      25.209   0.456  52.592  1.00  0.00     0.124 C 
BRANCH  16  17
HETATM   17  N4  UNL     1      24.667  -0.681  53.258  1.00  0.00    -0.384 N 
HETATM   18  H10 UNL     1      25.014  -1.364  53.968  1.00  0.00     0.157 HD
HETATM   19  H11 UNL     1      23.695  -0.840  52.938  1.00  0.00     0.157 HD
ENDBRANCH  16  17
ENDBRANCH   7  10
BRANCH   1  20
HETATM   20  C3  UNL     1      18.641   2.401  51.512  1.00  0.00     0.159 C 
HETATM   21  O1  UNL     1      17.818   3.261  51.917  1.00  0.00    -0.292 OA
BRANCH  20  22
HETATM   22  C2  UNL     1      18.489   2.407  50.072  1.00  0.00     0.041 C 
HETATM   23  C1  UNL     1      17.174   2.570  49.853  1.00  0.00     0.015 C 
ENDBRANCH  20  22
ENDBRANCH   1  20
TORSDOF 4
ENDMDL
