MODEL 1
REMARK VINA RESULT:      -8.8      0.000      0.000
REMARK  4 active torsions:
REMARK  status: ('A' for Active; 'I' for Inactive)
REMARK    1  A    between atoms: C4_5  and  N1_6 
REMARK    2  A    between atoms: N1_6  and  C5_7 
REMARK    3  A    between atoms: C8_10  and  O1_11 
REMARK    4  A    between atoms: O1_11  and  C9_12 
ROOT
HETATM    1  C5  UNL     1      25.271   3.439  51.027  1.00  0.00     0.136 C 
HETATM    2  C6  UNL     1      24.178   3.638  51.939  1.00  0.00     0.015 C 
HETATM    3  C7  UNL     1      23.161   2.775  52.868  1.00  0.00     0.052 C 
HETATM    4  C8  UNL     1      22.818   2.090  51.719  1.00  0.00     0.103 C 
HETATM    5  C14 UNL     1      22.491   3.293  50.757  1.00  0.00     0.103 C 
HETATM    6  C15 UNL     1      22.250   3.093  49.416  1.00  0.00     0.059 C 
HETATM    7  C16 UNL     1      23.814   3.219  48.911  1.00  0.00     0.122 C 
HETATM    8  N3  UNL     1      25.027   3.448  49.536  1.00  0.00    -0.243 NA
HETATM    9  O2  UNL     1      22.451   4.784  51.035  1.00  0.00    -0.344 OA
HETATM   10  C17 UNL     1      23.612   5.077  51.925  1.00  0.00     0.218 C 
ENDROOT
BRANCH   1  11
HETATM   11  N1  UNL     1      26.674   3.161  51.329  1.00  0.00    -0.340 N 
HETATM   12  H3  UNL     1      27.191   3.894  50.798  1.00  0.00     0.167 HD
BRANCH  11  13
HETATM   13  C4  UNL     1      27.214   2.138  52.152  1.00  0.00     0.035 A 
HETATM   14  C3  UNL     1      28.132   2.476  53.104  1.00  0.00     0.032 A 
HETATM   15  C2  UNL     1      28.611   1.421  53.868  1.00  0.00     0.046 A 
HETATM   16  C1  UNL     1      28.156   0.120  53.643  1.00  0.00     0.138 A 
HETATM   17  F1  UNL     1      28.632  -0.906  54.397  1.00  0.00    -0.204 F 
HETATM   18  C19 UNL     1      27.212  -0.161  52.650  1.00  0.00     0.074 A 
HETATM   19  C18 UNL     1      26.716   0.887  51.868  1.00  0.00     0.056 A 
HETATM   20 CL1  UNL     1      26.641  -1.789  52.367  1.00  0.00    -0.081 Cl
ENDBRANCH  11  13
ENDBRANCH   1  11
BRANCH   4  21
HETATM   21  O1  UNL     1      22.930   0.644  52.037  1.00  0.00    -0.343 OA
BRANCH  21  22
HETATM   22  C9  UNL     1      22.041   0.316  53.099  1.00  0.00     0.132 C 
HETATM   23  C10 UNL     1      22.508  -0.989  53.657  1.00  0.00     0.051 C 
HETATM   24  C11 UNL     1      21.532  -1.640  54.606  1.00  0.00     0.116 C 
HETATM   25  N2  UNL     1      20.194  -1.590  54.226  1.00  0.00    -0.421 N 
HETATM   26  C12 UNL     1      19.710  -0.544  53.441  1.00  0.00     0.116 C 
HETATM   27  H10 UNL     1      19.576  -2.393  54.406  1.00  0.00     0.153 HD
HETATM   28  C13 UNL     1      20.678   0.097  52.479  1.00  0.00     0.051 C 
ENDBRANCH  21  22
ENDBRANCH   4  21
TORSDOF 4
ENDMDL
MODEL 2
REMARK VINA RESULT:      -8.1      3.700      5.506
REMARK  4 active torsions:
REMARK  status: ('A' for Active; 'I' for Inactive)
REMARK    1  A    between atoms: C4_5  and  N1_6 
REMARK    2  A    between atoms: N1_6  and  C5_7 
REMARK    3  A    between atoms: C8_10  and  O1_11 
REMARK    4  A    between atoms: O1_11  and  C9_12 
ROOT
HETATM    1  C5  UNL     1      22.983   3.932  50.165  1.00  0.00     0.136 C 
HETATM    2  C6  UNL     1      23.023   3.728  51.588  1.00  0.00     0.015 C 
HETATM    3  C7  UNL     1      23.989   3.085  52.725  1.00  0.00     0.052 C 
HETATM    4  C8  UNL     1      23.944   1.917  51.991  1.00  0.00     0.103 C 
HETATM    5  C14 UNL     1      22.387   1.753  51.814  1.00  0.00     0.103 C 
HETATM    6  C15 UNL     1      21.858   0.786  50.988  1.00  0.00     0.059 C 
HETATM    7  C16 UNL     1      21.839   1.689  49.609  1.00  0.00     0.122 C 
HETATM    8  N3  UNL     1      22.203   2.983  49.284  1.00  0.00    -0.243 NA
HETATM    9  O2  UNL     1      21.247   2.576  52.380  1.00  0.00    -0.344 OA
HETATM   10  C17 UNL     1      21.674   4.003  52.291  1.00  0.00     0.218 C 
ENDROOT
BRANCH   1  11
HETATM   11  N1  UNL     1      23.663   4.951  49.368  1.00  0.00    -0.340 N 
HETATM   12  H3  UNL     1      22.888   5.566  49.041  1.00  0.00     0.167 HD
BRANCH  11  13
HETATM   13  C4  UNL     1      25.051   5.082  49.099  1.00  0.00     0.035 A 
HETATM   14  C3  UNL     1      25.875   4.027  49.368  1.00  0.00     0.032 A 
HETATM   15  C2  UNL     1      27.216   4.232  49.077  1.00  0.00     0.046 A 
HETATM   16  C1  UNL     1      27.647   5.450  48.546  1.00  0.00     0.138 A 
HETATM   17  F1  UNL     1      28.964   5.640  48.265  1.00  0.00    -0.204 F 
HETATM   18  C19 UNL     1      26.752   6.494  48.292  1.00  0.00     0.074 A 
HETATM   19  C18 UNL     1      25.395   6.309  48.579  1.00  0.00     0.056 A 
HETATM   20 CL1  UNL     1      27.289   8.018  47.628  1.00  0.00    -0.081 Cl
ENDBRANCH  11  13
ENDBRANCH   1  11
BRANCH   4  21
HETATM   21  O1  UNL     1      25.349   1.476  51.804  1.00  0.00    -0.343 OA
BRANCH  21  22
HETATM   22  C9  UNL     1      26.076   1.667  53.013  1.00  0.00     0.132 C 
HETATM   23  C10 UNL     1      27.455   2.089  52.619  1.00  0.00     0.051 C 
HETATM   24  C11 UNL     1      28.454   2.069  53.748  1.00  0.00     0.116 C 
HETATM   25  N2  UNL     1      28.380   0.974  54.603  1.00  0.00    -0.421 N 
HETATM   26  C12 UNL     1      27.171   0.312  54.817  1.00  0.00     0.116 C 
HETATM   27  H10 UNL     1      29.240   0.555  54.982  1.00  0.00     0.153 HD
HETATM   28  C13 UNL     1      26.176   0.314  53.683  1.00  0.00     0.051 C 
ENDBRANCH  21  22
ENDBRANCH   4  21
TORSDOF 4
ENDMDL
MODEL 3
REMARK VINA RESULT:      -8.0      2.467      5.427
REMARK  4 active torsions:
REMARK  status: ('A' for Active; 'I' for Inactive)
REMARK    1  A    between atoms: C4_5  and  N1_6 
REMARK    2  A    between atoms: N1_6  and  C5_7 
REMARK    3  A    between atoms: C8_10  and  O1_11 
REMARK    4  A    between atoms: O1_11  and  C9_12 
ROOT
HETATM    1  C5  UNL     1      24.882   3.084  51.527  1.00  0.00     0.136 C 
HETATM    2  C6  UNL     1      23.995   2.711  50.459  1.00  0.00     0.015 C 
HETATM    3  C7  UNL     1      23.527   3.231  48.992  1.00  0.00     0.052 C 
HETATM    4  C8  UNL     1      23.198   4.423  49.606  1.00  0.00     0.103 C 
HETATM    5  C14 UNL     1      22.308   3.895  50.793  1.00  0.00     0.103 C 
HETATM    6  C15 UNL     1      21.876   4.736  51.794  1.00  0.00     0.059 C 
HETATM    7  C16 UNL     1      23.175   4.546  52.791  1.00  0.00     0.122 C 
HETATM    8  N3  UNL     1      24.348   3.814  52.737  1.00  0.00    -0.243 NA
HETATM    9  O2  UNL     1      21.843   2.488  51.115  1.00  0.00    -0.344 OA
HETATM   10  C17 UNL     1      23.002   1.589  50.840  1.00  0.00     0.218 C 
ENDROOT
BRANCH   1  11
HETATM   11  N1  UNL     1      26.329   2.901  51.619  1.00  0.00    -0.340 N 
HETATM   12  H3  UNL     1      26.714   3.701  51.073  1.00  0.00     0.167 HD
BRANCH  11  13
HETATM   13  C4  UNL     1      27.049   1.879  52.292  1.00  0.00     0.035 A 
HETATM   14  C3  UNL     1      28.064   2.234  53.133  1.00  0.00     0.032 A 
HETATM   15  C2  UNL     1      28.718   1.179  53.754  1.00  0.00     0.046 A 
HETATM   16  C1  UNL     1      28.329  -0.139  53.505  1.00  0.00     0.138 A 
HETATM   17  F1  UNL     1      28.977  -1.166  54.118  1.00  0.00    -0.204 F 
HETATM   18  C19 UNL     1      27.280  -0.438  52.630  1.00  0.00     0.074 A 
HETATM   19  C18 UNL     1      26.607   0.610  51.994  1.00  0.00     0.056 A 
HETATM   20 CL1  UNL     1      26.792  -2.087  52.317  1.00  0.00    -0.081 Cl
ENDBRANCH  11  13
ENDBRANCH   1  11
BRANCH   4  21
HETATM   21  O1  UNL     1      23.837   5.502  48.812  1.00  0.00    -0.343 OA
BRANCH  21  22
HETATM   22  C9  UNL     1      25.047   5.909  49.442  1.00  0.00     0.132 C 
HETATM   23  C10 UNL     1      24.805   7.282  49.982  1.00  0.00     0.051 C 
HETATM   24  C11 UNL     1      26.053   7.995  50.440  1.00  0.00     0.116 C 
HETATM   25  N2  UNL     1      27.165   7.858  49.615  1.00  0.00    -0.421 N 
HETATM   26  C12 UNL     1      27.340   6.719  48.829  1.00  0.00     0.116 C 
HETATM   27  H10 UNL     1      27.802   8.654  49.471  1.00  0.00     0.153 HD
HETATM   28  C13 UNL     1      26.095   6.013  48.355  1.00  0.00     0.051 C 
ENDBRANCH  21  22
ENDBRANCH   4  21
TORSDOF 4
ENDMDL
MODEL 4
REMARK VINA RESULT:      -7.9      2.671      5.545
REMARK  4 active torsions:
REMARK  status: ('A' for Active; 'I' for Inactive)
REMARK    1  A    between atoms: C4_5  and  N1_6 
REMARK    2  A    between atoms: N1_6  and  C5_7 
REMARK    3  A    between atoms: C8_10  and  O1_11 
REMARK    4  A    between atoms: O1_11  and  C9_12 
ROOT
HETATM    1  C5  UNL     1      20.027   1.617  52.109  1.00  0.00     0.136 C 
HETATM    2  C6  UNL     1      20.093   1.030  50.798  1.00  0.00     0.015 C 
HETATM    3  C7  UNL     1      21.173   0.734  49.621  1.00  0.00     0.052 C 
HETATM    4  C8  UNL     1      21.452   2.086  49.646  1.00  0.00     0.103 C 
HETATM    5  C14 UNL     1      19.998   2.679  49.521  1.00  0.00     0.103 C 
HETATM    6  C15 UNL     1      19.759   4.027  49.667  1.00  0.00     0.059 C 
HETATM    7  C16 UNL     1      19.527   4.014  51.299  1.00  0.00     0.122 C 
HETATM    8  N3  UNL     1      19.542   3.038  52.280  1.00  0.00    -0.243 NA
HETATM    9  O2  UNL     1      18.670   1.976  49.317  1.00  0.00    -0.344 OA
HETATM   10  C17 UNL     1      18.706   0.753  50.172  1.00  0.00     0.218 C 
ENDROOT
BRANCH   1  11
HETATM   11  N1  UNL     1      20.427   1.040  53.390  1.00  0.00    -0.340 N 
HETATM   12  H3  UNL     1      19.596   1.193  54.001  1.00  0.00     0.167 HD
BRANCH  11  13
HETATM   13  C4  UNL     1      21.655   0.414  53.732  1.00  0.00     0.035 A 
HETATM   14  C3  UNL     1      21.649  -0.574  54.674  1.00  0.00     0.032 A 
HETATM   15  C2  UNL     1      22.888  -1.137  54.951  1.00  0.00     0.046 A 
HETATM   16  C1  UNL     1      24.032  -0.691  54.287  1.00  0.00     0.138 A 
HETATM   17  F1  UNL     1      25.241  -1.249  54.567  1.00  0.00    -0.204 F 
HETATM   18  C19 UNL     1      23.971   0.327  53.330  1.00  0.00     0.074 A 
HETATM   19  C18 UNL     1      22.734   0.909  53.035  1.00  0.00     0.056 A 
HETATM   20 CL1  UNL     1      25.403   0.887  52.498  1.00  0.00    -0.081 Cl
ENDBRANCH  11  13
ENDBRANCH   1  11
BRANCH   4  21
HETATM   21  O1  UNL     1      22.927   2.214  49.754  1.00  0.00    -0.343 OA
BRANCH  21  22
HETATM   22  C9  UNL     1      23.287   3.591  49.789  1.00  0.00     0.132 C 
HETATM   23  C10 UNL     1      24.738   3.661  49.437  1.00  0.00     0.051 C 
HETATM   24  C11 UNL     1      25.372   5.005  49.693  1.00  0.00     0.116 C 
HETATM   25  N2  UNL     1      25.010   5.629  50.883  1.00  0.00    -0.421 N 
HETATM   26  C12 UNL     1      23.762   5.398  51.463  1.00  0.00     0.116 C 
HETATM   27  H10 UNL     1      25.708   6.161  51.421  1.00  0.00     0.153 HD
HETATM   28  C13 UNL     1      23.133   4.048  51.224  1.00  0.00     0.051 C 
ENDBRANCH  21  22
ENDBRANCH   4  21
TORSDOF 4
ENDMDL
MODEL 5
REMARK VINA RESULT:      -7.9      2.519      5.579
REMARK  4 active torsions:
REMARK  status: ('A' for Active; 'I' for Inactive)
REMARK    1  A    between atoms: C4_5  and  N1_6 
REMARK    2  A    between atoms: N1_6  and  C5_7 
REMARK    3  A    between atoms: C8_10  and  O1_11 
REMARK    4  A    between atoms: O1_11  and  C9_12 
ROOT
HETATM    1  C5  UNL     1      21.894   1.338  51.616  1.00  0.00     0.136 C 
HETATM    2  C6  UNL     1      22.155   1.740  50.260  1.00  0.00     0.015 C 
HETATM    3  C7  UNL     1      23.289   2.512  49.388  1.00  0.00     0.052 C 
HETATM    4  C8  UNL     1      23.137   3.565  50.268  1.00  0.00     0.103 C 
HETATM    5  C14 UNL     1      21.573   3.745  50.228  1.00  0.00     0.103 C 
HETATM    6  C15 UNL     1      20.927   4.599  51.094  1.00  0.00     0.059 C 
HETATM    7  C16 UNL     1      20.689   3.510  52.308  1.00  0.00     0.122 C 
HETATM    8  N3  UNL     1      20.992   2.173  52.495  1.00  0.00    -0.243 NA
HETATM    9  O2  UNL     1      20.529   3.042  49.380  1.00  0.00    -0.344 OA
HETATM   10  C17 UNL     1      20.930   1.606  49.326  1.00  0.00     0.218 C 
ENDROOT
BRANCH   1  11
HETATM   11  N1  UNL     1      22.436   0.197  52.351  1.00  0.00    -0.340 N 
HETATM   12  H3  UNL     1      21.734  -0.556  52.190  1.00  0.00     0.167 HD
BRANCH  11  13
HETATM   13  C4  UNL     1      23.637   0.123  53.106  1.00  0.00     0.035 A 
HETATM   14  C3  UNL     1      23.721  -0.788  54.118  1.00  0.00     0.032 A 
HETATM   15  C2  UNL     1      24.925  -0.800  54.808  1.00  0.00     0.046 A 
HETATM   16  C1  UNL     1      25.952   0.079  54.455  1.00  0.00     0.138 A 
HETATM   17  F1  UNL     1      27.128   0.059  55.138  1.00  0.00    -0.204 F 
HETATM   18  C19 UNL     1      25.803   0.991  53.406  1.00  0.00     0.074 A 
HETATM   19  C18 UNL     1      24.597   1.020  52.697  1.00  0.00     0.056 A 
HETATM   20 CL1  UNL     1      27.086   2.092  52.962  1.00  0.00    -0.081 Cl
ENDBRANCH  11  13
ENDBRANCH   1  11
BRANCH   4  21
HETATM   21  O1  UNL     1      24.498   3.935  50.729  1.00  0.00    -0.343 OA
BRANCH  21  22
HETATM   22  C9  UNL     1      25.184   4.628  49.691  1.00  0.00     0.132 C 
HETATM   23  C10 UNL     1      26.538   4.006  49.586  1.00  0.00     0.051 C 
HETATM   24  C11 UNL     1      27.511   4.783  48.735  1.00  0.00     0.116 C 
HETATM   25  N2  UNL     1      27.494   6.164  48.903  1.00  0.00    -0.421 N 
HETATM   26  C12 UNL     1      26.328   6.824  49.294  1.00  0.00     0.116 C 
HETATM   27  H10 UNL     1      28.372   6.699  48.874  1.00  0.00     0.153 HD
HETATM   28  C13 UNL     1      25.362   6.056  50.160  1.00  0.00     0.051 C 
ENDBRANCH  21  22
ENDBRANCH   4  21
TORSDOF 4
ENDMDL
MODEL 6
REMARK VINA RESULT:      -7.8      2.800      5.782
REMARK  4 active torsions:
REMARK  status: ('A' for Active; 'I' for Inactive)
REMARK    1  A    between atoms: C4_5  and  N1_6 
REMARK    2  A    between atoms: N1_6  and  C5_7 
REMARK    3  A    between atoms: C8_10  and  O1_11 
REMARK    4  A    between atoms: O1_11  and  C9_12 
ROOT
HETATM    1  C5  UNL     1      22.836   3.011  51.890  1.00  0.00     0.136 C 
HETATM    2  C6  UNL     1      22.787   2.691  50.488  1.00  0.00     0.015 C 
HETATM    3  C7  UNL     1      23.752   2.677  49.182  1.00  0.00     0.052 C 
HETATM    4  C8  UNL     1      23.997   4.010  49.446  1.00  0.00     0.103 C 
HETATM    5  C14 UNL     1      22.523   4.549  49.575  1.00  0.00     0.103 C 
HETATM    6  C15 UNL     1      22.264   5.832  50.004  1.00  0.00     0.059 C 
HETATM    7  C16 UNL     1      22.195   5.494  51.616  1.00  0.00     0.122 C 
HETATM    8  N3  UNL     1      22.333   4.349  52.380  1.00  0.00    -0.243 NA
HETATM    9  O2  UNL     1      21.200   3.839  49.360  1.00  0.00    -0.344 OA
HETATM   10  C17 UNL     1      21.353   2.478  49.951  1.00  0.00     0.218 C 
ENDROOT
BRANCH   1  11
HETATM   11  N1  UNL     1      23.376   2.216  52.990  1.00  0.00    -0.340 N 
HETATM   12  H3  UNL     1      22.664   2.320  53.744  1.00  0.00     0.167 HD
BRANCH  11  13
HETATM   13  C4  UNL     1      24.585   1.471  53.032  1.00  0.00     0.035 A 
HETATM   14  C3  UNL     1      24.526   0.114  52.904  1.00  0.00     0.032 A 
HETATM   15  C2  UNL     1      25.748  -0.541  52.953  1.00  0.00     0.046 A 
HETATM   16  C1  UNL     1      26.932   0.181  53.123  1.00  0.00     0.138 A 
HETATM   17  F1  UNL     1      28.124  -0.471  53.171  1.00  0.00    -0.204 F 
HETATM   18  C19 UNL     1      26.925   1.574  53.249  1.00  0.00     0.074 A 
HETATM   19  C18 UNL     1      25.704   2.255  53.202  1.00  0.00     0.056 A 
HETATM   20 CL1  UNL     1      28.405   2.480  53.462  1.00  0.00    -0.081 Cl
ENDBRANCH  11  13
ENDBRANCH   1  11
BRANCH   4  21
HETATM   21  O1  UNL     1      25.472   4.182  49.441  1.00  0.00    -0.343 OA
BRANCH  21  22
HETATM   22  C9  UNL     1      25.800   5.498  49.009  1.00  0.00     0.132 C 
HETATM   23  C10 UNL     1      27.248   5.477  48.641  1.00  0.00     0.051 C 
HETATM   24  C11 UNL     1      27.851   6.842  48.425  1.00  0.00     0.116 C 
HETATM   25  N2  UNL     1      27.475   7.822  49.340  1.00  0.00    -0.421 N 
HETATM   26  C12 UNL     1      26.233   7.772  49.975  1.00  0.00     0.116 C 
HETATM   27  H10 UNL     1      28.160   8.518  49.661  1.00  0.00     0.153 HD
HETATM   28  C13 UNL     1      25.636   6.407  50.208  1.00  0.00     0.051 C 
ENDBRANCH  21  22
ENDBRANCH   4  21
TORSDOF 4
ENDMDL
MODEL 7
REMARK VINA RESULT:      -7.6      3.146      5.961
REMARK  4 active torsions:
REMARK  status: ('A' for Active; 'I' for Inactive)
REMARK    1  A    between atoms: C4_5  and  N1_6 
REMARK    2  A    between atoms: N1_6  and  C5_7 
REMARK    3  A    between atoms: C8_10  and  O1_11 
REMARK    4  A    between atoms: O1_11  and  C9_12 
ROOT
HETATM    1  C5  UNL     1      21.638   2.585  50.539  1.00  0.00     0.136 C 
HETATM    2  C6  UNL     1      23.046   2.659  50.257  1.00  0.00     0.015 C 
HETATM    3  C7  UNL     1      24.464   2.146  50.861  1.00  0.00     0.052 C 
HETATM    4  C8  UNL     1      24.094   2.760  52.041  1.00  0.00     0.103 C 
HETATM    5  C14 UNL     1      23.712   4.192  51.508  1.00  0.00     0.103 C 
HETATM    6  C15 UNL     1      23.117   5.127  52.326  1.00  0.00     0.059 C 
HETATM    7  C16 UNL     1      21.557   4.688  52.029  1.00  0.00     0.122 C 
HETATM    8  N3  UNL     1      20.944   3.728  51.244  1.00  0.00    -0.243 NA
HETATM    9  O2  UNL     1      23.823   4.777  50.113  1.00  0.00    -0.344 OA
HETATM   10  C17 UNL     1      23.407   3.698  49.170  1.00  0.00     0.218 C 
ENDROOT
BRANCH   1  11
HETATM   11  N1  UNL     1      20.711   1.485  50.281  1.00  0.00    -0.340 N 
HETATM   12  H3  UNL     1      20.659   1.445  49.242  1.00  0.00     0.167 HD
BRANCH  11  13
HETATM   13  C4  UNL     1      20.036   0.660  51.220  1.00  0.00     0.035 A 
HETATM   14  C3  UNL     1      18.726   0.349  51.000  1.00  0.00     0.032 A 
HETATM   15  C2  UNL     1      18.139  -0.463  51.961  1.00  0.00     0.046 A 
HETATM   16  C1  UNL     1      18.877  -0.905  53.060  1.00  0.00     0.138 A 
HETATM   17  F1  UNL     1      18.291  -1.699  53.996  1.00  0.00    -0.204 F 
HETATM   18  C19 UNL     1      20.219  -0.550  53.230  1.00  0.00     0.074 A 
HETATM   19  C18 UNL     1      20.831   0.267  52.273  1.00  0.00     0.056 A 
HETATM   20 CL1  UNL     1      21.145  -1.103  54.605  1.00  0.00    -0.081 Cl
ENDBRANCH  11  13
ENDBRANCH   1  11
BRANCH   4  21
HETATM   21  O1  UNL     1      24.278   1.757  53.120  1.00  0.00    -0.343 OA
BRANCH  21  22
HETATM   22  C9  UNL     1      25.497   1.051  52.915  1.00  0.00     0.132 C 
HETATM   23  C10 UNL     1      25.198  -0.394  53.153  1.00  0.00     0.051 C 
HETATM   24  C11 UNL     1      26.421  -1.269  53.258  1.00  0.00     0.116 C 
HETATM   25  N2  UNL     1      27.480  -0.745  53.992  1.00  0.00    -0.421 N 
HETATM   26  C12 UNL     1      27.680   0.633  54.078  1.00  0.00     0.116 C 
HETATM   27  H10 UNL     1      28.047  -1.359  54.591  1.00  0.00     0.153 HD
HETATM   28  C13 UNL     1      26.457   1.511  53.991  1.00  0.00     0.051 C 
ENDBRANCH  21  22
ENDBRANCH   4  21
TORSDOF 4
ENDMDL
MODEL 8
REMARK VINA RESULT:      -7.3      2.102      2.823
REMARK  4 active torsions:
REMARK  status: ('A' for Active; 'I' for Inactive)
REMARK    1  A    between atoms: C4_5  and  N1_6 
REMARK    2  A    between atoms: N1_6  and  C5_7 
REMARK    3  A    between atoms: C8_10  and  O1_11 
REMARK    4  A    between atoms: O1_11  and  C9_12 
ROOT
HETATM    1  C5  UNL     1      24.130   4.059  50.756  1.00  0.00     0.136 C 
HETATM    2  C6  UNL     1      23.278   5.215  50.826  1.00  0.00     0.015 C 
HETATM    3  C7  UNL     1      21.871   5.685  51.490  1.00  0.00     0.052 C 
HETATM    4  C8  UNL     1      21.299   4.603  50.851  1.00  0.00     0.103 C 
HETATM    5  C14 UNL     1      21.820   4.832  49.382  1.00  0.00     0.103 C 
HETATM    6  C15 UNL     1      21.630   3.887  48.398  1.00  0.00     0.059 C 
HETATM    7  C16 UNL     1      23.014   3.034  48.670  1.00  0.00     0.122 C 
HETATM    8  N3  UNL     1      24.072   3.145  49.554  1.00  0.00    -0.243 NA
HETATM    9  O2  UNL     1      22.628   5.976  48.799  1.00  0.00    -0.344 OA
HETATM   10  C17 UNL     1      23.658   6.327  49.821  1.00  0.00     0.218 C 
ENDROOT
BRANCH   1  11
HETATM   11  N1  UNL     1      25.077   3.559  51.752  1.00  0.00    -0.340 N 
HETATM   12  H3  UNL     1      25.479   4.426  52.167  1.00  0.00     0.167 HD
BRANCH  11  13
HETATM   13  C4  UNL     1      25.381   2.212  52.083  1.00  0.00     0.035 A 
HETATM   14  C3  UNL     1      26.572   1.687  51.671  1.00  0.00     0.032 A 
HETATM   15  C2  UNL     1      26.796   0.367  52.035  1.00  0.00     0.046 A 
HETATM   16  C1  UNL     1      25.840  -0.336  52.772  1.00  0.00     0.138 A 
HETATM   17  F1  UNL     1      26.070  -1.630  53.123  1.00  0.00    -0.204 F 
HETATM   18  C19 UNL     1      24.637   0.260  53.164  1.00  0.00     0.074 A 
HETATM   19  C18 UNL     1      24.391   1.590  52.808  1.00  0.00     0.056 A 
HETATM   20 CL1  UNL     1      23.440  -0.619  54.086  1.00  0.00    -0.081 Cl
ENDBRANCH  11  13
ENDBRANCH   1  11
BRANCH   4  21
HETATM   21  O1  UNL     1      20.522   3.864  51.877  1.00  0.00    -0.343 OA
BRANCH  21  22
HETATM   22  C9  UNL     1      20.517   2.475  51.567  1.00  0.00     0.132 C 
HETATM   23  C10 UNL     1      19.240   2.206  50.838  1.00  0.00     0.051 C 
HETATM   24  C11 UNL     1      18.921   0.741  50.670  1.00  0.00     0.116 C 
HETATM   25  N2  UNL     1      19.162  -0.062  51.780  1.00  0.00    -0.421 N 
HETATM   26  C12 UNL     1      20.158   0.266  52.700  1.00  0.00     0.116 C 
HETATM   27  H10 UNL     1      18.520  -0.833  52.009  1.00  0.00     0.153 HD
HETATM   28  C13 UNL     1      20.467   1.731  52.884  1.00  0.00     0.051 C 
ENDBRANCH  21  22
ENDBRANCH   4  21
TORSDOF 4
ENDMDL
MODEL 9
REMARK VINA RESULT:      -7.2      2.957      6.066
REMARK  4 active torsions:
REMARK  status: ('A' for Active; 'I' for Inactive)
REMARK    1  A    between atoms: C4_5  and  N1_6 
REMARK    2  A    between atoms: N1_6  and  C5_7 
REMARK    3  A    between atoms: C8_10  and  O1_11 
REMARK    4  A    between atoms: O1_11  and  C9_12 
ROOT
HETATM    1  C5  UNL     1      21.017   2.558  50.424  1.00  0.00     0.136 C 
HETATM    2  C6  UNL     1      21.521   2.557  49.077  1.00  0.00     0.015 C 
HETATM    3  C7  UNL     1      22.922   2.735  48.274  1.00  0.00     0.052 C 
HETATM    4  C8  UNL     1      23.048   3.948  48.921  1.00  0.00     0.103 C 
HETATM    5  C14 UNL     1      21.644   4.586  48.603  1.00  0.00     0.103 C 
HETATM    6  C15 UNL     1      21.241   5.764  49.194  1.00  0.00     0.059 C 
HETATM    7  C16 UNL     1      20.544   5.090  50.527  1.00  0.00     0.122 C 
HETATM    8  N3  UNL     1      20.367   3.798  50.990  1.00  0.00    -0.243 NA
HETATM    9  O2  UNL     1      20.509   4.072  47.738  1.00  0.00    -0.344 OA
HETATM   10  C17 UNL     1      20.413   2.606  48.000  1.00  0.00     0.218 C 
ENDROOT
BRANCH   1  11
HETATM   11  N1  UNL     1      21.079   1.493  51.423  1.00  0.00    -0.340 N 
HETATM   12  H3  UNL     1      20.092   1.170  51.502  1.00  0.00     0.167 HD
BRANCH  11  13
HETATM   13  C4  UNL     1      22.214   1.006  52.126  1.00  0.00     0.035 A 
HETATM   14  C3  UNL     1      23.453   1.438  51.752  1.00  0.00     0.032 A 
HETATM   15  C2  UNL     1      24.510   0.918  52.487  1.00  0.00     0.046 A 
HETATM   16  C1  UNL     1      24.272   0.018  53.528  1.00  0.00     0.138 A 
HETATM   17  F1  UNL     1      25.314  -0.486  54.242  1.00  0.00    -0.204 F 
HETATM   18  C19 UNL     1      22.975  -0.387  53.862  1.00  0.00     0.074 A 
HETATM   19  C18 UNL     1      21.896   0.125  53.134  1.00  0.00     0.056 A 
HETATM   20 CL1  UNL     1      22.676  -1.513  55.164  1.00  0.00    -0.081 Cl
ENDBRANCH  11  13
ENDBRANCH   1  11
BRANCH   4  21
HETATM   21  O1  UNL     1      24.407   3.974  49.519  1.00  0.00    -0.343 OA
BRANCH  21  22
HETATM   22  C9  UNL     1      25.110   5.124  49.062  1.00  0.00     0.132 C 
HETATM   23  C10 UNL     1      26.540   4.717  48.909  1.00  0.00     0.051 C 
HETATM   24  C11 UNL     1      27.492   5.868  48.702  1.00  0.00     0.116 C 
HETATM   25  N2  UNL     1      27.267   6.989  49.495  1.00  0.00    -0.421 N 
HETATM   26  C12 UNL     1      25.984   7.303  49.946  1.00  0.00     0.116 C 
HETATM   27  H10 UNL     1      28.062   7.524  49.870  1.00  0.00     0.153 HD
HETATM   28  C13 UNL     1      25.035   6.153  50.170  1.00  0.00     0.051 C 
ENDBRANCH  21  22
ENDBRANCH   4  21
TORSDOF 4
ENDMDL
