MODEL 1
REMARK VINA RESULT:      -8.3      0.000      0.000
REMARK  5 active torsions:
REMARK  status: ('A' for Active; 'I' for Inactive)
REMARK    1  A    between atoms: C2_2  and  C3_3 
REMARK    2  A    between atoms: C7_8  and  N1_9 
REMARK    3  A    between atoms: N1_9  and  C8_10 
REMARK    4  A    between atoms: C18_24  and  C19_25 
REMARK    5  A    between atoms: C19_25  and  O3_26 
ROOT
HETATM    1  C3  UNL     1      20.911   0.503  53.314  1.00  0.00     0.160 C 
HETATM    2  O1  UNL     1      22.055   1.320  53.669  1.00  0.00    -0.340 OA
HETATM    3  C4  UNL     1      22.822   1.817  52.648  1.00  0.00     0.103 A 
HETATM    4  C5  UNL     1      24.185   2.025  52.655  1.00  0.00     0.057 A 
HETATM    5  C6  UNL     1      24.936   2.525  51.617  1.00  0.00     0.042 A 
HETATM    6  C7  UNL     1      26.284   2.714  51.669  1.00  0.00     0.142 A 
HETATM    7  N2  UNL     1      26.792   3.209  50.543  1.00  0.00    -0.224 NA
HETATM    8  C14 UNL     1      26.133   3.522  49.425  1.00  0.00     0.236 A 
HETATM    9  N3  UNL     1      24.798   3.323  49.407  1.00  0.00    -0.241 NA
HETATM   10  C15 UNL     1      24.171   2.818  50.510  1.00  0.00     0.075 A 
HETATM   11  C16 UNL     1      22.809   2.641  50.423  1.00  0.00     0.072 A 
HETATM   12  C17 UNL     1      22.114   2.128  51.516  1.00  0.00     0.105 A 
HETATM   13  O2  UNL     1      20.763   1.966  51.392  1.00  0.00    -0.338 OA
HETATM   14  C18 UNL     1      20.040   1.314  52.446  1.00  0.00     0.182 C 
ENDROOT
BRANCH   6  15
HETATM   15  N1  UNL     1      27.002   2.388  52.840  1.00  0.00    -0.340 N 
HETATM   16  H8  UNL     1      27.001   3.016  53.661  1.00  0.00     0.167 HD
BRANCH  15  17
HETATM   17  C8  UNL     1      27.793   1.243  53.091  1.00  0.00     0.035 A 
HETATM   18  C9  UNL     1      29.050   1.314  53.641  1.00  0.00     0.029 A 
HETATM   19  C10 UNL     1      29.839   0.212  53.894  1.00  0.00     0.004 A 
HETATM   20  C11 UNL     1      29.399  -1.055  53.600  1.00  0.00     0.024 A 
HETATM   21  C12 UNL     1      28.144  -1.164  53.047  1.00  0.00     0.036 A 
HETATM   22 CL1  UNL     1      27.521  -2.736  52.650  1.00  0.00    -0.084 Cl
HETATM   23  C13 UNL     1      27.391  -0.044  52.813  1.00  0.00     0.053 A 
ENDBRANCH  15  17
ENDBRANCH   6  15
BRANCH   1  24
HETATM   24  C2  UNL     1      21.490  -0.740  52.729  1.00  0.00     0.031 C 
HETATM   25  C1  UNL     1      21.912  -1.638  53.898  1.00  0.00     0.007 C 
ENDBRANCH   1  24
BRANCH  14  26
HETATM   26  C19 UNL     1      18.839   0.734  51.815  1.00  0.00     0.202 C 
BRANCH  26  27
HETATM   27  O3  UNL     1      18.443  -0.515  51.947  1.00  0.00    -0.393 OA
HETATM   28  C20 UNL     1      17.458  -0.902  52.757  1.00  0.00     0.201 C 
ENDBRANCH  26  27
ENDBRANCH  14  26
TORSDOF 5
ENDMDL
MODEL 2
REMARK VINA RESULT:      -8.2      2.384      4.083
REMARK  5 active torsions:
REMARK  status: ('A' for Active; 'I' for Inactive)
REMARK    1  A    between atoms: C2_2  and  C3_3 
REMARK    2  A    between atoms: C7_8  and  N1_9 
REMARK    3  A    between atoms: N1_9  and  C8_10 
REMARK    4  A    between atoms: C18_24  and  C19_25 
REMARK    5  A    between atoms: C19_25  and  O3_26 
ROOT
HETATM    1  C3  UNL     1      19.204   1.715  50.909  1.00  0.00     0.160 C 
HETATM    2  O1  UNL     1      20.530   1.140  50.782  1.00  0.00    -0.340 OA
HETATM    3  C4  UNL     1      21.056   0.511  51.880  1.00  0.00     0.103 A 
HETATM    4  C5  UNL     1      22.380   0.468  52.261  1.00  0.00     0.057 A 
HETATM    5  C6  UNL     1      22.887  -0.171  53.369  1.00  0.00     0.042 A 
HETATM    6  C7  UNL     1      24.206  -0.186  53.707  1.00  0.00     0.142 A 
HETATM    7  N2  UNL     1      24.458  -0.869  54.822  1.00  0.00    -0.224 NA
HETATM    8  C14 UNL     1      23.579  -1.507  55.597  1.00  0.00     0.236 A 
HETATM    9  N3  UNL     1      22.280  -1.472  55.234  1.00  0.00    -0.241 NA
HETATM   10  C15 UNL     1      21.907  -0.799  54.105  1.00  0.00     0.075 A 
HETATM   11  C16 UNL     1      20.567  -0.805  53.793  1.00  0.00     0.072 A 
HETATM   12  C17 UNL     1      20.126  -0.136  52.654  1.00  0.00     0.105 A 
HETATM   13  O2  UNL     1      18.789  -0.163  52.376  1.00  0.00    -0.338 OA
HETATM   14  C18 UNL     1      18.286   0.629  51.291  1.00  0.00     0.182 C 
ENDROOT
BRANCH   6  15
HETATM   15  N1  UNL     1      25.153   0.484  52.903  1.00  0.00    -0.340 N 
HETATM   16  H8  UNL     1      24.893   0.878  51.983  1.00  0.00     0.167 HD
BRANCH  15  17
HETATM   17  C8  UNL     1      26.520   0.723  53.176  1.00  0.00     0.035 A 
HETATM   18  C9  UNL     1      27.037   1.987  53.332  1.00  0.00     0.029 A 
HETATM   19  C10 UNL     1      28.366   2.244  53.597  1.00  0.00     0.004 A 
HETATM   20  C11 UNL     1      29.272   1.220  53.721  1.00  0.00     0.024 A 
HETATM   21  C12 UNL     1      28.790  -0.059  53.571  1.00  0.00     0.036 A 
HETATM   22 CL1  UNL     1      29.880  -1.404  53.716  1.00  0.00    -0.084 Cl
HETATM   23  C13 UNL     1      27.462  -0.272  53.309  1.00  0.00     0.053 A 
ENDBRANCH  15  17
ENDBRANCH   6  15
BRANCH   1  24
HETATM   24  C2  UNL     1      19.363   2.845  51.867  1.00  0.00     0.031 C 
HETATM   25  C1  UNL     1      20.243   3.899  51.185  1.00  0.00     0.007 C 
ENDBRANCH   1  24
BRANCH  14  26
HETATM   26  C19 UNL     1      16.873   0.904  51.612  1.00  0.00     0.202 C 
BRANCH  26  27
HETATM   27  O3  UNL     1      16.088   1.721  50.939  1.00  0.00    -0.393 OA
HETATM   28  C20 UNL     1      15.293   2.627  51.507  1.00  0.00     0.201 C 
ENDBRANCH  26  27
ENDBRANCH  14  26
TORSDOF 5
ENDMDL
MODEL 3
REMARK VINA RESULT:      -8.0      3.767      7.570
REMARK  5 active torsions:
REMARK  status: ('A' for Active; 'I' for Inactive)
REMARK    1  A    between atoms: C2_2  and  C3_3 
REMARK    2  A    between atoms: C7_8  and  N1_9 
REMARK    3  A    between atoms: N1_9  and  C8_10 
REMARK    4  A    between atoms: C18_24  and  C19_25 
REMARK    5  A    between atoms: C19_25  and  O3_26 
ROOT
HETATM    1  C3  UNL     1      26.954   1.432  53.288  1.00  0.00     0.160 C 
HETATM    2  O1  UNL     1      25.611   1.952  53.463  1.00  0.00    -0.340 OA
HETATM    3  C4  UNL     1      24.609   1.052  53.711  1.00  0.00     0.103 A 
HETATM    4  C5  UNL     1      23.296   1.131  53.298  1.00  0.00     0.057 A 
HETATM    5  C6  UNL     1      22.305   0.213  53.560  1.00  0.00     0.042 A 
HETATM    6  C7  UNL     1      21.018   0.333  53.129  1.00  0.00     0.142 A 
HETATM    7  N2  UNL     1      20.239  -0.678  53.506  1.00  0.00    -0.224 NA
HETATM    8  C14 UNL     1      20.587  -1.744  54.230  1.00  0.00     0.236 A 
HETATM    9  N3  UNL     1      21.870  -1.832  54.641  1.00  0.00    -0.241 NA
HETATM   10  C15 UNL     1      22.758  -0.848  54.311  1.00  0.00     0.075 A 
HETATM   11  C16 UNL     1      24.049  -1.000  54.763  1.00  0.00     0.072 A 
HETATM   12  C17 UNL     1      25.001  -0.030  54.459  1.00  0.00     0.105 A 
HETATM   13  O2  UNL     1      26.272  -0.215  54.924  1.00  0.00    -0.338 OA
HETATM   14  C18 UNL     1      27.304   0.692  54.513  1.00  0.00     0.182 C 
ENDROOT
BRANCH   6  15
HETATM   15  N1  UNL     1      20.628   1.450  52.360  1.00  0.00    -0.340 N 
HETATM   16  H8  UNL     1      19.994   2.171  52.745  1.00  0.00     0.167 HD
BRANCH  15  17
HETATM   17  C8  UNL     1      20.993   1.769  51.032  1.00  0.00     0.035 A 
HETATM   18  C9  UNL     1      21.115   0.820  50.046  1.00  0.00     0.029 A 
HETATM   19  C10 UNL     1      21.472   1.108  48.745  1.00  0.00     0.004 A 
HETATM   20  C11 UNL     1      21.734   2.397  48.353  1.00  0.00     0.024 A 
HETATM   21  C12 UNL     1      21.623   3.374  49.314  1.00  0.00     0.036 A 
HETATM   22 CL1  UNL     1      21.940   5.029  48.890  1.00  0.00    -0.084 Cl
HETATM   23  C13 UNL     1      21.265   3.047  50.596  1.00  0.00     0.053 A 
ENDBRANCH  15  17
ENDBRANCH   6  15
BRANCH   1  24
HETATM   24  C2  UNL     1      26.907   0.660  52.014  1.00  0.00     0.031 C 
HETATM   25  C1  UNL     1      26.557   1.650  50.897  1.00  0.00     0.007 C 
ENDBRANCH   1  24
BRANCH  14  26
HETATM   26  C19 UNL     1      28.568  -0.061  54.614  1.00  0.00     0.202 C 
BRANCH  26  27
HETATM   27  O3  UNL     1      28.749  -1.297  54.196  1.00  0.00    -0.393 OA
HETATM   28  C20 UNL     1      29.669  -1.654  53.301  1.00  0.00     0.201 C 
ENDBRANCH  26  27
ENDBRANCH  14  26
TORSDOF 5
ENDMDL
MODEL 4
REMARK VINA RESULT:      -7.7      1.682      2.145
REMARK  5 active torsions:
REMARK  status: ('A' for Active; 'I' for Inactive)
REMARK    1  A    between atoms: C2_2  and  C3_3 
REMARK    2  A    between atoms: C7_8  and  N1_9 
REMARK    3  A    between atoms: N1_9  and  C8_10 
REMARK    4  A    between atoms: C18_24  and  C19_25 
REMARK    5  A    between atoms: C19_25  and  O3_26 
ROOT
HETATM    1  C3  UNL     1      19.578   2.143  52.090  1.00  0.00     0.160 C 
HETATM    2  O1  UNL     1      20.859   2.319  52.749  1.00  0.00    -0.340 OA
HETATM    3  C4  UNL     1      21.938   2.627  51.964  1.00  0.00     0.103 A 
HETATM    4  C5  UNL     1      23.247   2.236  52.155  1.00  0.00     0.057 A 
HETATM    5  C6  UNL     1      24.317   2.558  51.354  1.00  0.00     0.042 A 
HETATM    6  C7  UNL     1      25.596   2.147  51.582  1.00  0.00     0.142 A 
HETATM    7  N2  UNL     1      26.462   2.583  50.671  1.00  0.00    -0.224 NA
HETATM    8  C14 UNL     1      26.204   3.349  49.608  1.00  0.00     0.236 A 
HETATM    9  N3  UNL     1      24.927   3.738  49.411  1.00  0.00    -0.241 NA
HETATM   10  C15 UNL     1      23.953   3.348  50.286  1.00  0.00     0.075 A 
HETATM   11  C16 UNL     1      22.674   3.781  50.025  1.00  0.00     0.072 A 
HETATM   12  C17 UNL     1      21.639   3.415  50.882  1.00  0.00     0.105 A 
HETATM   13  O2  UNL     1      20.381   3.864  50.591  1.00  0.00    -0.338 OA
HETATM   14  C18 UNL     1      19.275   3.393  51.373  1.00  0.00     0.182 C 
ENDROOT
BRANCH   6  15
HETATM   15  N1  UNL     1      25.892   1.335  52.698  1.00  0.00    -0.340 N 
HETATM   16  H8  UNL     1      25.163   1.080  53.385  1.00  0.00     0.167 HD
BRANCH  15  17
HETATM   17  C8  UNL     1      27.135   0.766  53.061  1.00  0.00     0.035 A 
HETATM   18  C9  UNL     1      28.174   1.510  53.565  1.00  0.00     0.029 A 
HETATM   19  C10 UNL     1      29.394   0.977  53.924  1.00  0.00     0.004 A 
HETATM   20  C11 UNL     1      29.645  -0.366  53.792  1.00  0.00     0.024 A 
HETATM   21  C12 UNL     1      28.627  -1.142  53.290  1.00  0.00     0.036 A 
HETATM   22 CL1  UNL     1      28.873  -2.851  53.095  1.00  0.00    -0.084 Cl
HETATM   23  C13 UNL     1      27.429  -0.574  52.946  1.00  0.00     0.053 A 
ENDBRANCH  15  17
ENDBRANCH   6  15
BRANCH   1  24
HETATM   24  C2  UNL     1      19.731   0.906  51.273  1.00  0.00     0.031 C 
HETATM   25  C1  UNL     1      18.771  -0.141  51.851  1.00  0.00     0.007 C 
ENDBRANCH   1  24
BRANCH  14  26
HETATM   26  C19 UNL     1      18.089   3.503  50.503  1.00  0.00     0.202 C 
BRANCH  26  27
HETATM   27  O3  UNL     1      17.002   4.192  50.787  1.00  0.00    -0.393 OA
HETATM   28  C20 UNL     1      16.416   4.197  51.984  1.00  0.00     0.201 C 
ENDBRANCH  26  27
ENDBRANCH  14  26
TORSDOF 5
ENDMDL
MODEL 5
REMARK VINA RESULT:      -7.7      3.792      7.459
REMARK  5 active torsions:
REMARK  status: ('A' for Active; 'I' for Inactive)
REMARK    1  A    between atoms: C2_2  and  C3_3 
REMARK    2  A    between atoms: C7_8  and  N1_9 
REMARK    3  A    between atoms: N1_9  and  C8_10 
REMARK    4  A    between atoms: C18_24  and  C19_25 
REMARK    5  A    between atoms: C19_25  and  O3_26 
ROOT
HETATM    1  C3  UNL     1      26.579   1.549  52.857  1.00  0.00     0.160 C 
HETATM    2  O1  UNL     1      25.426   2.335  53.254  1.00  0.00    -0.340 OA
HETATM    3  C4  UNL     1      24.187   1.786  53.056  1.00  0.00     0.103 A 
HETATM    4  C5  UNL     1      23.024   2.451  52.728  1.00  0.00     0.057 A 
HETATM    5  C6  UNL     1      21.787   1.879  52.534  1.00  0.00     0.042 A 
HETATM    6  C7  UNL     1      20.664   2.578  52.210  1.00  0.00     0.142 A 
HETATM    7  N2  UNL     1      19.586   1.809  52.073  1.00  0.00    -0.224 NA
HETATM    8  C14 UNL     1      19.510   0.485  52.220  1.00  0.00     0.236 A 
HETATM    9  N3  UNL     1      20.642  -0.177  52.541  1.00  0.00    -0.241 NA
HETATM   10  C15 UNL     1      21.809   0.513  52.706  1.00  0.00     0.075 A 
HETATM   11  C16 UNL     1      22.924  -0.223  53.034  1.00  0.00     0.072 A 
HETATM   12  C17 UNL     1      24.144   0.424  53.215  1.00  0.00     0.105 A 
HETATM   13  O2  UNL     1      25.229  -0.340  53.540  1.00  0.00    -0.338 OA
HETATM   14  C18 UNL     1      26.524   0.277  53.597  1.00  0.00     0.182 C 
ENDROOT
BRANCH   6  15
HETATM   15  N1  UNL     1      20.720   3.979  52.048  1.00  0.00    -0.340 N 
HETATM   16  H8  UNL     1      20.256   4.615  52.718  1.00  0.00     0.167 HD
BRANCH  15  17
HETATM   17  C8  UNL     1      21.364   4.717  51.028  1.00  0.00     0.035 A 
HETATM   18  C9  UNL     1      21.285   4.374  49.700  1.00  0.00     0.029 A 
HETATM   19  C10 UNL     1      21.905   5.078  48.689  1.00  0.00     0.004 A 
HETATM   20  C11 UNL     1      22.659   6.192  48.963  1.00  0.00     0.024 A 
HETATM   21  C12 UNL     1      22.761   6.565  50.283  1.00  0.00     0.036 A 
HETATM   22 CL1  UNL     1      23.698   7.965  50.704  1.00  0.00    -0.084 Cl
HETATM   23  C13 UNL     1      22.128   5.839  51.258  1.00  0.00     0.053 A 
ENDBRANCH  15  17
ENDBRANCH   6  15
BRANCH   1  24
HETATM   24  C2  UNL     1      26.505   1.478  51.370  1.00  0.00     0.031 C 
HETATM   25  C1  UNL     1      26.646   2.909  50.839  1.00  0.00     0.007 C 
ENDBRANCH   1  24
BRANCH  14  26
HETATM   26  C19 UNL     1      27.497  -0.801  53.335  1.00  0.00     0.202 C 
BRANCH  26  27
HETATM   27  O3  UNL     1      28.610  -0.997  54.011  1.00  0.00    -0.393 OA
HETATM   28  C20 UNL     1      29.824  -0.708  53.546  1.00  0.00     0.201 C 
ENDBRANCH  26  27
ENDBRANCH  14  26
TORSDOF 5
ENDMDL
MODEL 6
REMARK VINA RESULT:      -7.6      3.661      7.799
REMARK  5 active torsions:
REMARK  status: ('A' for Active; 'I' for Inactive)
REMARK    1  A    between atoms: C2_2  and  C3_3 
REMARK    2  A    between atoms: C7_8  and  N1_9 
REMARK    3  A    between atoms: N1_9  and  C8_10 
REMARK    4  A    between atoms: C18_24  and  C19_25 
REMARK    5  A    between atoms: C19_25  and  O3_26 
ROOT
HETATM    1  C3  UNL     1      26.362  -0.495  53.861  1.00  0.00     0.160 C 
HETATM    2  O1  UNL     1      25.122  -0.619  53.119  1.00  0.00    -0.340 OA
HETATM    3  C4  UNL     1      24.386   0.519  52.919  1.00  0.00     0.103 A 
HETATM    4  C5  UNL     1      23.012   0.624  52.864  1.00  0.00     0.057 A 
HETATM    5  C6  UNL     1      22.293   1.779  52.662  1.00  0.00     0.042 A 
HETATM    6  C7  UNL     1      20.932   1.835  52.615  1.00  0.00     0.142 A 
HETATM    7  N2  UNL     1      20.461   3.063  52.408  1.00  0.00    -0.224 NA
HETATM    8  C14 UNL     1      21.166   4.186  52.250  1.00  0.00     0.236 A 
HETATM    9  N3  UNL     1      22.511   4.095  52.302  1.00  0.00    -0.241 NA
HETATM   10  C15 UNL     1      23.104   2.882  52.510  1.00  0.00     0.075 A 
HETATM   11  C16 UNL     1      24.479   2.862  52.551  1.00  0.00     0.072 A 
HETATM   12  C17 UNL     1      25.140   1.654  52.760  1.00  0.00     0.105 A 
HETATM   13  O2  UNL     1      26.506   1.672  52.795  1.00  0.00    -0.338 OA
HETATM   14  C18 UNL     1      27.211   0.473  53.145  1.00  0.00     0.182 C 
ENDROOT
BRANCH   6  15
HETATM   15  N1  UNL     1      20.167   0.661  52.781  1.00  0.00    -0.340 N 
HETATM   16  H8  UNL     1      20.419  -0.047  53.491  1.00  0.00     0.167 HD
BRANCH  15  17
HETATM   17  C8  UNL     1      19.011   0.262  52.071  1.00  0.00     0.035 A 
HETATM   18  C9  UNL     1      18.741   0.685  50.792  1.00  0.00     0.029 A 
HETATM   19  C10 UNL     1      17.620   0.310  50.081  1.00  0.00     0.004 A 
HETATM   20  C11 UNL     1      16.684  -0.529  50.630  1.00  0.00     0.024 A 
HETATM   21  C12 UNL     1      16.920  -0.973  51.911  1.00  0.00     0.036 A 
HETATM   22 CL1  UNL     1      15.777  -2.039  52.670  1.00  0.00    -0.084 Cl
HETATM   23  C13 UNL     1      18.047  -0.578  52.583  1.00  0.00     0.053 A 
ENDBRANCH  15  17
ENDBRANCH   6  15
BRANCH   1  24
HETATM   24  C2  UNL     1      25.950  -0.145  55.249  1.00  0.00     0.031 C 
HETATM   25  C1  UNL     1      24.956  -1.218  55.712  1.00  0.00     0.007 C 
ENDBRANCH   1  24
BRANCH  14  26
HETATM   26  C19 UNL     1      28.504   0.912  53.703  1.00  0.00     0.202 C 
BRANCH  26  27
HETATM   27  O3  UNL     1      29.436   0.110  54.175  1.00  0.00    -0.393 OA
HETATM   28  C20 UNL     1      29.897  -0.959  53.527  1.00  0.00     0.201 C 
ENDBRANCH  26  27
ENDBRANCH  14  26
TORSDOF 5
ENDMDL
MODEL 7
REMARK VINA RESULT:      -7.5      3.746      6.039
REMARK  5 active torsions:
REMARK  status: ('A' for Active; 'I' for Inactive)
REMARK    1  A    between atoms: C2_2  and  C3_3 
REMARK    2  A    between atoms: C7_8  and  N1_9 
REMARK    3  A    between atoms: N1_9  and  C8_10 
REMARK    4  A    between atoms: C18_24  and  C19_25 
REMARK    5  A    between atoms: C19_25  and  O3_26 
ROOT
HETATM    1  C3  UNL     1      26.572  -0.222  53.725  1.00  0.00     0.160 C 
HETATM    2  O1  UNL     1      26.929   1.110  53.276  1.00  0.00    -0.340 OA
HETATM    3  C4  UNL     1      26.055   1.751  52.438  1.00  0.00     0.103 A 
HETATM    4  C5  UNL     1      26.368   2.623  51.416  1.00  0.00     0.057 A 
HETATM    5  C6  UNL     1      25.473   3.258  50.586  1.00  0.00     0.042 A 
HETATM    6  C7  UNL     1      25.829   4.112  49.587  1.00  0.00     0.142 A 
HETATM    7  N2  UNL     1      24.789   4.604  48.917  1.00  0.00    -0.224 NA
HETATM    8  C14 UNL     1      23.496   4.348  49.126  1.00  0.00     0.236 A 
HETATM    9  N3  UNL     1      23.177   3.496  50.124  1.00  0.00    -0.241 NA
HETATM   10  C15 UNL     1      24.167   2.932  50.877  1.00  0.00     0.075 A 
HETATM   11  C16 UNL     1      23.772   2.074  51.878  1.00  0.00     0.072 A 
HETATM   12  C17 UNL     1      24.735   1.467  52.680  1.00  0.00     0.105 A 
HETATM   13  O2  UNL     1      24.305   0.621  53.663  1.00  0.00    -0.338 OA
HETATM   14  C18 UNL     1      25.274  -0.124  54.414  1.00  0.00     0.182 C 
ENDROOT
BRANCH   6  15
HETATM   15  N1  UNL     1      27.190   4.396  49.347  1.00  0.00    -0.340 N 
HETATM   16  H8  UNL     1      27.939   3.795  49.730  1.00  0.00     0.167 HD
BRANCH  15  17
HETATM   17  C8  UNL     1      27.743   5.464  48.603  1.00  0.00     0.035 A 
HETATM   18  C9  UNL     1      29.068   5.511  48.241  1.00  0.00     0.029 A 
HETATM   19  C10 UNL     1      29.629   6.542  47.518  1.00  0.00     0.004 A 
HETATM   20  C11 UNL     1      28.873   7.612  47.109  1.00  0.00     0.024 A 
HETATM   21  C12 UNL     1      27.541   7.600  47.454  1.00  0.00     0.036 A 
HETATM   22 CL1  UNL     1      26.523   8.921  46.970  1.00  0.00    -0.084 Cl
HETATM   23  C13 UNL     1      27.022   6.556  48.173  1.00  0.00     0.053 A 
ENDBRANCH  15  17
ENDBRANCH   6  15
BRANCH   1  24
HETATM   24  C2  UNL     1      26.634  -1.073  52.503  1.00  0.00     0.031 C 
HETATM   25  C1  UNL     1      27.707  -2.141  52.746  1.00  0.00     0.007 C 
ENDBRANCH   1  24
BRANCH  14  26
HETATM   26  C19 UNL     1      24.573  -1.330  54.895  1.00  0.00     0.202 C 
BRANCH  26  27
HETATM   27  O3  UNL     1      23.455  -1.328  55.591  1.00  0.00    -0.393 OA
HETATM   28  C20 UNL     1      22.239  -1.301  55.047  1.00  0.00     0.201 C 
ENDBRANCH  26  27
ENDBRANCH  14  26
TORSDOF 5
ENDMDL
MODEL 8
REMARK VINA RESULT:      -7.5      3.805      6.006
REMARK  5 active torsions:
REMARK  status: ('A' for Active; 'I' for Inactive)
REMARK    1  A    between atoms: C2_2  and  C3_3 
REMARK    2  A    between atoms: C7_8  and  N1_9 
REMARK    3  A    between atoms: N1_9  and  C8_10 
REMARK    4  A    between atoms: C18_24  and  C19_25 
REMARK    5  A    between atoms: C19_25  and  O3_26 
ROOT
HETATM    1  C3  UNL     1      24.538   1.521  52.998  1.00  0.00     0.160 C 
HETATM    2  O1  UNL     1      24.448   2.949  53.240  1.00  0.00    -0.340 OA
HETATM    3  C4  UNL     1      23.521   3.656  52.520  1.00  0.00     0.103 A 
HETATM    4  C5  UNL     1      23.632   4.954  52.066  1.00  0.00     0.057 A 
HETATM    5  C6  UNL     1      22.688   5.646  51.344  1.00  0.00     0.042 A 
HETATM    6  C7  UNL     1      22.842   6.930  50.915  1.00  0.00     0.142 A 
HETATM    7  N2  UNL     1      21.794   7.388  50.235  1.00  0.00    -0.224 NA
HETATM    8  C14 UNL     1      20.664   6.738  49.951  1.00  0.00     0.236 A 
HETATM    9  N3  UNL     1      20.544   5.467  50.390  1.00  0.00    -0.241 NA
HETATM   10  C15 UNL     1      21.560   4.894  51.100  1.00  0.00     0.075 A 
HETATM   11  C16 UNL     1      21.371   3.597  51.518  1.00  0.00     0.072 A 
HETATM   12  C17 UNL     1      22.372   2.959  52.246  1.00  0.00     0.105 A 
HETATM   13  O2  UNL     1      22.149   1.671  52.644  1.00  0.00    -0.338 OA
HETATM   14  C18 UNL     1      23.212   0.942  53.273  1.00  0.00     0.182 C 
ENDROOT
BRANCH   6  15
HETATM   15  N1  UNL     1      24.029   7.637  51.202  1.00  0.00    -0.340 N 
HETATM   16  H8  UNL     1      24.172   8.097  52.117  1.00  0.00     0.167 HD
BRANCH  15  17
HETATM   17  C8  UNL     1      25.153   7.836  50.367  1.00  0.00     0.035 A 
HETATM   18  C9  UNL     1      25.621   9.085  50.036  1.00  0.00     0.029 A 
HETATM   19  C10 UNL     1      26.713   9.304  49.223  1.00  0.00     0.004 A 
HETATM   20  C11 UNL     1      27.412   8.254  48.682  1.00  0.00     0.024 A 
HETATM   21  C12 UNL     1      26.972   6.988  48.991  1.00  0.00     0.036 A 
HETATM   22 CL1  UNL     1      27.808   5.611  48.341  1.00  0.00    -0.084 Cl
HETATM   23  C13 UNL     1      25.882   6.813  49.804  1.00  0.00     0.053 A 
ENDBRANCH  15  17
ENDBRANCH   6  15
BRANCH   1  24
HETATM   24  C2  UNL     1      25.063   1.396  51.609  1.00  0.00     0.031 C 
HETATM   25  C1  UNL     1      26.585   1.565  51.683  1.00  0.00     0.007 C 
ENDBRANCH   1  24
BRANCH  14  26
HETATM   26  C19 UNL     1      22.934  -0.483  53.013  1.00  0.00     0.202 C 
BRANCH  26  27
HETATM   27  O3  UNL     1      22.002  -1.195  53.613  1.00  0.00    -0.393 OA
HETATM   28  C20 UNL     1      21.581  -0.973  54.857  1.00  0.00     0.201 C 
ENDBRANCH  26  27
ENDBRANCH  14  26
TORSDOF 5
ENDMDL
MODEL 9
REMARK VINA RESULT:      -7.4      5.339      8.762
REMARK  5 active torsions:
REMARK  status: ('A' for Active; 'I' for Inactive)
REMARK    1  A    between atoms: C2_2  and  C3_3 
REMARK    2  A    between atoms: C7_8  and  N1_9 
REMARK    3  A    between atoms: N1_9  and  C8_10 
REMARK    4  A    between atoms: C18_24  and  C19_25 
REMARK    5  A    between atoms: C19_25  and  O3_26 
ROOT
HETATM    1  C3  UNL     1      30.533   6.598  47.644  1.00  0.00     0.160 C 
HETATM    2  O1  UNL     1      29.623   5.468  47.656  1.00  0.00    -0.340 OA
HETATM    3  C4  UNL     1      28.398   5.647  48.243  1.00  0.00     0.103 A 
HETATM    4  C5  UNL     1      27.664   4.711  48.943  1.00  0.00     0.057 A 
HETATM    5  C6  UNL     1      26.434   4.912  49.525  1.00  0.00     0.042 A 
HETATM    6  C7  UNL     1      25.746   3.956  50.208  1.00  0.00     0.142 A 
HETATM    7  N2  UNL     1      24.578   4.384  50.682  1.00  0.00    -0.224 NA
HETATM    8  C14 UNL     1      24.048   5.602  50.553  1.00  0.00     0.236 A 
HETATM    9  N3  UNL     1      24.756   6.526  49.871  1.00  0.00    -0.241 NA
HETATM   10  C15 UNL     1      25.971   6.196  49.340  1.00  0.00     0.075 A 
HETATM   11  C16 UNL     1      26.639   7.185  48.655  1.00  0.00     0.072 A 
HETATM   12  C17 UNL     1      27.882   6.909  48.092  1.00  0.00     0.105 A 
HETATM   13  O2  UNL     1      28.516   7.916  47.420  1.00  0.00    -0.338 OA
HETATM   14  C18 UNL     1      29.854   7.705  46.949  1.00  0.00     0.182 C 
ENDROOT
BRANCH   6  15
HETATM   15  N1  UNL     1      26.287   2.661  50.358  1.00  0.00    -0.340 N 
HETATM   16  H8  UNL     1      26.647   2.133  49.546  1.00  0.00     0.167 HD
BRANCH  15  17
HETATM   17  C8  UNL     1      26.428   1.904  51.544  1.00  0.00     0.035 A 
HETATM   18  C9  UNL     1      25.476   1.012  51.974  1.00  0.00     0.029 A 
HETATM   19  C10 UNL     1      25.591   0.264  53.127  1.00  0.00     0.004 A 
HETATM   20  C11 UNL     1      26.696   0.374  53.933  1.00  0.00     0.024 A 
HETATM   21  C12 UNL     1      27.671   1.259  53.534  1.00  0.00     0.036 A 
HETATM   22 CL1  UNL     1      29.099   1.451  54.505  1.00  0.00    -0.084 Cl
HETATM   23  C13 UNL     1      27.519   1.983  52.381  1.00  0.00     0.053 A 
ENDBRANCH  15  17
ENDBRANCH   6  15
BRANCH   1  24
HETATM   24  C2  UNL     1      30.902   6.813  49.072  1.00  0.00     0.031 C 
HETATM   25  C1  UNL     1      32.065   5.865  49.387  1.00  0.00     0.007 C 
ENDBRANCH   1  24
BRANCH  14  26
HETATM   26  C19 UNL     1      30.469   9.043  46.864  1.00  0.00     0.202 C 
BRANCH  26  27
HETATM   27  O3  UNL     1      30.110  10.088  47.582  1.00  0.00    -0.393 OA
HETATM   28  C20 UNL     1      30.905  10.694  48.464  1.00  0.00     0.201 C 
ENDBRANCH  26  27
ENDBRANCH  14  26
TORSDOF 5
ENDMDL
