MODEL 1
REMARK VINA RESULT:      -8.1      0.000      0.000
REMARK  4 active torsions:
REMARK  status: ('A' for Active; 'I' for Inactive)
REMARK    1  A    between atoms: N2_5  and  C4_6 
REMARK    2  A    between atoms: N3_11  and  C9_12 
REMARK    3  A    between atoms: C9_12  and  C10_13 
REMARK    4  A    between atoms: N5_19  and  C14_20 
ROOT
HETATM    1  C9  UNL     1      23.165   2.423  52.939  1.00  0.00     0.178 C 
ENDROOT
BRANCH   1   2
HETATM    2  N3  UNL     1      22.454   1.193  52.983  1.00  0.00    -0.383 N 
HETATM    3  C4  UNL     1      21.079   1.243  53.310  1.00  0.00     0.188 C 
HETATM    4  C5  UNL     1      20.553   0.230  54.245  1.00  0.00     0.073 C 
HETATM    5  C6  UNL     1      21.390  -0.986  54.411  1.00  0.00    -0.025 C 
HETATM    6  C7  UNL     1      22.602  -1.092  53.889  1.00  0.00    -0.011 C 
HETATM    7  C8  UNL     1      23.175   0.002  53.116  1.00  0.00     0.146 C 
BRANCH   3   8
HETATM    8  N2  UNL     1      20.343   1.394  52.081  1.00  0.00    -0.328 N 
HETATM    9  C3  UNL     1      20.201   0.367  51.031  1.00  0.00     0.158 C 
HETATM   10  C2  UNL     1      20.575   1.100  49.756  1.00  0.00     0.292 C 
HETATM   11  N1  UNL     1      19.567   2.058  49.368  1.00  0.00     0.094 N 
HETATM   12  C1  UNL     1      20.178   3.235  48.737  1.00  0.00     0.310 C 
HETATM   13  C20 UNL     1      18.813   2.561  50.494  1.00  0.00     0.374 C 
HETATM   14  C19 UNL     1      19.663   2.574  51.741  1.00  0.00     0.249 C 
HETATM   15  O3  UNL     1      19.734   3.613  52.419  1.00  0.00    -0.271 OA
ENDBRANCH   3   8
ENDBRANCH   1   2
BRANCH   1  16
HETATM   16  C10 UNL     1      24.636   2.312  53.016  1.00  0.00     0.047 C 
HETATM   17  C11 UNL     1      25.432   2.134  54.068  1.00  0.00     0.118 C 
HETATM   18  N4  UNL     1      26.866   2.047  53.949  1.00  0.00    -0.334 N 
HETATM   19  C12 UNL     1      27.498   2.152  52.663  1.00  0.00     0.239 C 
HETATM   20  H18 UNL     1      27.358   1.905  54.881  1.00  0.00     0.168 HD
HETATM   21  O1  UNL     1      28.661   2.626  52.700  1.00  0.00    -0.271 OA
HETATM   22  C13 UNL     1      26.592   1.662  51.566  1.00  0.00     0.234 C 
HETATM   23  N5  UNL     1      25.345   2.414  51.769  1.00  0.00    -0.320 N 
BRANCH  23  24
HETATM   24  C14 UNL     1      24.887   3.243  50.678  1.00  0.00     0.145 A 
HETATM   25  C15 UNL     1      24.012   3.062  49.719  1.00  0.00     0.056 A 
HETATM   26  C16 UNL     1      23.760   4.112  48.739  1.00  0.00     0.002 A 
HETATM   27  C17 UNL     1      24.435   5.237  48.849  1.00  0.00    -0.000 A 
HETATM   28  C18 UNL     1      25.443   5.533  49.897  1.00  0.00     0.204 A 
HETATM   29  O2  UNL     1      25.602   4.452  50.785  1.00  0.00    -0.332 OA
ENDBRANCH  23  24
ENDBRANCH   1  16
TORSDOF 4
ENDMDL
MODEL 2
REMARK VINA RESULT:      -7.7      2.156      4.841
REMARK  4 active torsions:
REMARK  status: ('A' for Active; 'I' for Inactive)
REMARK    1  A    between atoms: N2_5  and  C4_6 
REMARK    2  A    between atoms: N3_11  and  C9_12 
REMARK    3  A    between atoms: C9_12  and  C10_13 
REMARK    4  A    between atoms: N5_19  and  C14_20 
ROOT
HETATM    1  C9  UNL     1      23.799   2.807  52.807  1.00  0.00     0.178 C 
ENDROOT
BRANCH   1   2
HETATM    2  N3  UNL     1      23.562   3.549  51.618  1.00  0.00    -0.383 N 
HETATM    3  C4  UNL     1      23.174   2.829  50.463  1.00  0.00     0.188 C 
HETATM    4  C5  UNL     1      23.791   3.200  49.176  1.00  0.00     0.073 C 
HETATM    5  C6  UNL     1      24.416   4.548  49.129  1.00  0.00    -0.025 C 
HETATM    6  C7  UNL     1      24.559   5.303  50.206  1.00  0.00    -0.011 C 
HETATM    7  C8  UNL     1      24.101   4.835  51.507  1.00  0.00     0.146 C 
BRANCH   3   8
HETATM    8  N2  UNL     1      21.735   2.751  50.462  1.00  0.00    -0.328 N 
HETATM    9  C3  UNL     1      20.818   3.772  51.002  1.00  0.00     0.158 C 
HETATM   10  C2  UNL     1      19.884   2.981  51.899  1.00  0.00     0.292 C 
HETATM   11  N1  UNL     1      18.983   2.147  51.139  1.00  0.00     0.094 N 
HETATM   12  C1  UNL     1      18.699   0.895  51.853  1.00  0.00     0.310 C 
HETATM   13  C20 UNL     1      19.529   1.757  49.860  1.00  0.00     0.374 C 
HETATM   14  C19 UNL     1      21.033   1.658  49.931  1.00  0.00     0.249 C 
HETATM   15  O3  UNL     1      21.596   0.628  49.522  1.00  0.00    -0.271 OA
ENDBRANCH   3   8
ENDBRANCH   1   2
BRANCH   1  16
HETATM   16  C10 UNL     1      25.003   1.953  52.797  1.00  0.00     0.047 C 
HETATM   17  C11 UNL     1      26.184   2.137  52.209  1.00  0.00     0.118 C 
HETATM   18  N4  UNL     1      27.258   1.180  52.311  1.00  0.00    -0.334 N 
HETATM   19  C12 UNL     1      27.086  -0.029  53.066  1.00  0.00     0.239 C 
HETATM   20  H18 UNL     1      28.135   1.474  51.786  1.00  0.00     0.168 HD
HETATM   21  O1  UNL     1      27.777  -0.995  52.654  1.00  0.00    -0.271 OA
HETATM   22  C13 UNL     1      26.099   0.159  54.187  1.00  0.00     0.234 C 
HETATM   23  N5  UNL     1      24.910   0.718  53.526  1.00  0.00    -0.320 N 
BRANCH  23  24
HETATM   24  C14 UNL     1      23.678  -0.028  53.642  1.00  0.00     0.145 A 
HETATM   25  C15 UNL     1      22.609  -0.120  52.887  1.00  0.00     0.056 A 
HETATM   26  C16 UNL     1      21.498  -0.978  53.279  1.00  0.00     0.002 A 
HETATM   27  C17 UNL     1      21.603  -1.652  54.406  1.00  0.00    -0.000 A 
HETATM   28  C18 UNL     1      22.769  -1.611  55.324  1.00  0.00     0.204 A 
HETATM   29  O2  UNL     1      23.777  -0.754  54.845  1.00  0.00    -0.332 OA
ENDBRANCH  23  24
ENDBRANCH   1  16
TORSDOF 4
ENDMDL
MODEL 3
REMARK VINA RESULT:      -7.7      2.473      5.324
REMARK  4 active torsions:
REMARK  status: ('A' for Active; 'I' for Inactive)
REMARK    1  A    between atoms: N2_5  and  C4_6 
REMARK    2  A    between atoms: N3_11  and  C9_12 
REMARK    3  A    between atoms: C9_12  and  C10_13 
REMARK    4  A    between atoms: N5_19  and  C14_20 
ROOT
HETATM    1  C9  UNL     1      22.861   2.514  51.901  1.00  0.00     0.178 C 
ENDROOT
BRANCH   1   2
HETATM    2  N3  UNL     1      22.302   2.575  50.596  1.00  0.00    -0.383 N 
HETATM    3  C4  UNL     1      21.435   3.654  50.304  1.00  0.00     0.188 C 
HETATM    4  C5  UNL     1      20.203   3.366  49.546  1.00  0.00     0.073 C 
HETATM    5  C6  UNL     1      20.196   2.084  48.794  1.00  0.00    -0.025 C 
HETATM    6  C7  UNL     1      21.155   1.182  48.920  1.00  0.00    -0.011 C 
HETATM    7  C8  UNL     1      22.279   1.412  49.818  1.00  0.00     0.146 C 
BRANCH   3   8
HETATM    8  N2  UNL     1      22.240   4.734  49.792  1.00  0.00    -0.328 N 
HETATM    9  C3  UNL     1      23.067   4.686  48.570  1.00  0.00     0.158 C 
HETATM   10  C2  UNL     1      24.421   5.195  49.031  1.00  0.00     0.292 C 
HETATM   11  N1  UNL     1      24.397   6.611  49.315  1.00  0.00     0.094 N 
HETATM   12  C1  UNL     1      25.296   6.936  50.430  1.00  0.00     0.310 C 
HETATM   13  C20 UNL     1      23.089   7.077  49.714  1.00  0.00     0.374 C 
HETATM   14  C19 UNL     1      22.327   5.984  50.422  1.00  0.00     0.249 C 
HETATM   15  O3  UNL     1      21.806   6.221  51.525  1.00  0.00    -0.271 OA
ENDBRANCH   3   8
ENDBRANCH   1   2
BRANCH   1  16
HETATM   16  C10 UNL     1      22.394   1.394  52.743  1.00  0.00     0.047 C 
HETATM   17  C11 UNL     1      21.249   1.233  53.402  1.00  0.00     0.118 C 
HETATM   18  N4  UNL     1      20.964   0.055  54.184  1.00  0.00    -0.334 N 
HETATM   19  C12 UNL     1      21.928  -1.006  54.280  1.00  0.00     0.239 C 
HETATM   20  H18 UNL     1      20.007   0.079  54.648  1.00  0.00     0.168 HD
HETATM   21  O1  UNL     1      21.868  -1.658  55.352  1.00  0.00    -0.271 OA
HETATM   22  C13 UNL     1      22.790  -1.075  53.049  1.00  0.00     0.234 C 
HETATM   23  N5  UNL     1      23.306   0.293  52.895  1.00  0.00    -0.320 N 
BRANCH  23  24
HETATM   24  C14 UNL     1      24.740   0.466  52.912  1.00  0.00     0.145 A 
HETATM   25  C15 UNL     1      25.615   0.802  51.995  1.00  0.00     0.056 A 
HETATM   26  C16 UNL     1      27.032   0.895  52.323  1.00  0.00     0.002 A 
HETATM   27  C17 UNL     1      27.401   0.632  53.560  1.00  0.00    -0.000 A 
HETATM   28  C18 UNL     1      26.487   0.244  54.662  1.00  0.00     0.204 A 
HETATM   29  O2  UNL     1      25.148   0.188  54.231  1.00  0.00    -0.332 OA
ENDBRANCH  23  24
ENDBRANCH   1  16
TORSDOF 4
ENDMDL
MODEL 4
REMARK VINA RESULT:      -7.7      2.047      3.527
REMARK  4 active torsions:
REMARK  status: ('A' for Active; 'I' for Inactive)
REMARK    1  A    between atoms: N2_5  and  C4_6 
REMARK    2  A    between atoms: N3_11  and  C9_12 
REMARK    3  A    between atoms: C9_12  and  C10_13 
REMARK    4  A    between atoms: N5_19  and  C14_20 
ROOT
HETATM    1  C9  UNL     1      22.221   1.143  50.834  1.00  0.00     0.178 C 
ENDROOT
BRANCH   1   2
HETATM    2  N3  UNL     1      21.528   0.508  51.900  1.00  0.00    -0.383 N 
HETATM    3  C4  UNL     1      20.657   1.303  52.681  1.00  0.00     0.188 C 
HETATM    4  C5  UNL     1      20.680   1.121  54.145  1.00  0.00     0.073 C 
HETATM    5  C6  UNL     1      21.277  -0.152  54.624  1.00  0.00    -0.025 C 
HETATM    6  C7  UNL     1      21.894  -0.997  53.815  1.00  0.00    -0.011 C 
HETATM    7  C8  UNL     1      22.017  -0.707  52.392  1.00  0.00     0.146 C 
BRANCH   3   8
HETATM    8  N2  UNL     1      19.353   1.251  52.070  1.00  0.00    -0.328 N 
HETATM    9  C3  UNL     1      18.676   0.031  51.591  1.00  0.00     0.158 C 
HETATM   10  C2  UNL     1      18.247   0.386  50.179  1.00  0.00     0.292 C 
HETATM   11  N1  UNL     1      17.168   1.346  50.169  1.00  0.00     0.094 N 
HETATM   12  C1  UNL     1      17.284   2.251  49.018  1.00  0.00     0.310 C 
HETATM   13  C20 UNL     1      17.163   2.193  51.339  1.00  0.00     0.374 C 
HETATM   14  C19 UNL     1      18.566   2.393  51.857  1.00  0.00     0.249 C 
HETATM   15  O3  UNL     1      18.976   3.545  52.078  1.00  0.00    -0.271 OA
ENDBRANCH   3   8
ENDBRANCH   1   2
BRANCH   1  16
HETATM   16  C10 UNL     1      22.535   2.571  51.038  1.00  0.00     0.047 C 
HETATM   17  C11 UNL     1      21.986   3.658  50.502  1.00  0.00     0.118 C 
HETATM   18  N4  UNL     1      22.430   4.991  50.826  1.00  0.00    -0.334 N 
HETATM   19  C12 UNL     1      23.503   5.195  51.758  1.00  0.00     0.239 C 
HETATM   20  H18 UNL     1      21.890   5.752  50.314  1.00  0.00     0.168 HD
HETATM   21  O1  UNL     1      24.170   6.240  51.554  1.00  0.00    -0.271 OA
HETATM   22  C13 UNL     1      23.569   4.082  52.770  1.00  0.00     0.234 C 
HETATM   23  N5  UNL     1      23.605   2.859  51.954  1.00  0.00    -0.320 N 
BRANCH  23  24
HETATM   24  C14 UNL     1      24.748   1.990  52.116  1.00  0.00     0.145 A 
HETATM   25  C15 UNL     1      25.815   1.764  51.388  1.00  0.00     0.056 A 
HETATM   26  C16 UNL     1      26.820   0.803  51.826  1.00  0.00     0.002 A 
HETATM   27  C17 UNL     1      26.622   0.176  52.967  1.00  0.00    -0.000 A 
HETATM   28  C18 UNL     1      25.449   0.365  53.856  1.00  0.00     0.204 A 
HETATM   29  O2  UNL     1      24.549   1.313  53.335  1.00  0.00    -0.332 OA
ENDBRANCH  23  24
ENDBRANCH   1  16
TORSDOF 4
ENDMDL
MODEL 5
REMARK VINA RESULT:      -7.7      1.661      2.059
REMARK  4 active torsions:
REMARK  status: ('A' for Active; 'I' for Inactive)
REMARK    1  A    between atoms: N2_5  and  C4_6 
REMARK    2  A    between atoms: N3_11  and  C9_12 
REMARK    3  A    between atoms: C9_12  and  C10_13 
REMARK    4  A    between atoms: N5_19  and  C14_20 
ROOT
HETATM    1  C9  UNL     1      23.434   2.723  52.841  1.00  0.00     0.178 C 
ENDROOT
BRANCH   1   2
HETATM    2  N3  UNL     1      22.865   1.424  52.941  1.00  0.00    -0.383 N 
HETATM    3  C4  UNL     1      21.463   1.334  53.109  1.00  0.00     0.188 C 
HETATM    4  C5  UNL     1      20.945   0.357  54.085  1.00  0.00     0.073 C 
HETATM    5  C6  UNL     1      21.887  -0.724  54.473  1.00  0.00    -0.025 C 
HETATM    6  C7  UNL     1      23.157  -0.728  54.102  1.00  0.00    -0.011 C 
HETATM    7  C8  UNL     1      23.694   0.350  53.281  1.00  0.00     0.146 C 
BRANCH   3   8
HETATM    8  N2  UNL     1      20.870   1.275  51.797  1.00  0.00    -0.328 N 
HETATM    9  C3  UNL     1      21.307   0.399  50.694  1.00  0.00     0.158 C 
HETATM   10  C2  UNL     1      21.450   1.346  49.516  1.00  0.00     0.292 C 
HETATM   11  N1  UNL     1      20.169   1.807  49.036  1.00  0.00     0.094 N 
HETATM   12  C1  UNL     1      20.259   3.190  48.548  1.00  0.00     0.310 C 
HETATM   13  C20 UNL     1      19.157   1.817  50.068  1.00  0.00     0.374 C 
HETATM   14  C19 UNL     1      19.778   2.071  51.419  1.00  0.00     0.249 C 
HETATM   15  O3  UNL     1      19.311   2.964  52.146  1.00  0.00    -0.271 OA
ENDBRANCH   3   8
ENDBRANCH   1   2
BRANCH   1  16
HETATM   16  C10 UNL     1      24.529   2.865  51.861  1.00  0.00     0.047 C 
HETATM   17  C11 UNL     1      25.758   2.354  51.864  1.00  0.00     0.118 C 
HETATM   18  N4  UNL     1      26.705   2.605  50.805  1.00  0.00    -0.334 N 
HETATM   19  C12 UNL     1      26.345   3.433  49.689  1.00  0.00     0.239 C 
HETATM   20  H18 UNL     1      27.642   2.125  50.956  1.00  0.00     0.168 HD
HETATM   21  O1  UNL     1      27.315   4.038  49.165  1.00  0.00    -0.271 OA
HETATM   22  C13 UNL     1      24.867   3.374  49.416  1.00  0.00     0.234 C 
HETATM   23  N5  UNL     1      24.251   3.686  50.715  1.00  0.00    -0.320 N 
BRANCH  23  24
HETATM   24  C14 UNL     1      23.379   4.837  50.773  1.00  0.00     0.145 A 
HETATM   25  C15 UNL     1      22.076   4.975  50.820  1.00  0.00     0.056 A 
HETATM   26  C16 UNL     1      21.474   6.301  50.874  1.00  0.00     0.002 A 
HETATM   27  C17 UNL     1      22.275   7.347  50.875  1.00  0.00    -0.000 A 
HETATM   28  C18 UNL     1      23.757   7.290  50.824  1.00  0.00     0.204 A 
HETATM   29  O2  UNL     1      24.225   5.964  50.776  1.00  0.00    -0.332 OA
ENDBRANCH  23  24
ENDBRANCH   1  16
TORSDOF 4
ENDMDL
MODEL 6
REMARK VINA RESULT:      -7.7      2.399      5.147
REMARK  4 active torsions:
REMARK  status: ('A' for Active; 'I' for Inactive)
REMARK    1  A    between atoms: N2_5  and  C4_6 
REMARK    2  A    between atoms: N3_11  and  C9_12 
REMARK    3  A    between atoms: C9_12  and  C10_13 
REMARK    4  A    between atoms: N5_19  and  C14_20 
ROOT
HETATM    1  C9  UNL     1      23.927   2.092  51.670  1.00  0.00     0.178 C 
ENDROOT
BRANCH   1   2
HETATM    2  N3  UNL     1      23.349   3.372  51.452  1.00  0.00    -0.383 N 
HETATM    3  C4  UNL     1      22.892   3.672  50.148  1.00  0.00     0.188 C 
HETATM    4  C5  UNL     1      23.188   5.009  49.601  1.00  0.00     0.073 C 
HETATM    5  C6  UNL     1      23.543   6.048  50.603  1.00  0.00    -0.025 C 
HETATM    6  C7  UNL     1      23.743   5.765  51.879  1.00  0.00    -0.011 C 
HETATM    7  C8  UNL     1      23.620   4.397  52.365  1.00  0.00     0.146 C 
BRANCH   3   8
HETATM    8  N2  UNL     1      21.515   3.258  50.062  1.00  0.00    -0.328 N 
HETATM    9  C3  UNL     1      20.360   3.990  50.617  1.00  0.00     0.158 C 
HETATM   10  C2  UNL     1      19.609   2.936  51.409  1.00  0.00     0.292 C 
HETATM   11  N1  UNL     1      18.962   1.973  50.548  1.00  0.00     0.094 N 
HETATM   12  C1  UNL     1      18.959   0.640  51.162  1.00  0.00     0.310 C 
HETATM   13  C20 UNL     1      19.634   1.822  49.277  1.00  0.00     0.374 C 
HETATM   14  C19 UNL     1      21.114   2.074  49.424  1.00  0.00     0.249 C 
HETATM   15  O3  UNL     1      21.921   1.240  48.980  1.00  0.00    -0.271 OA
ENDBRANCH   3   8
ENDBRANCH   1   2
BRANCH   1  16
HETATM   16  C10 UNL     1      23.167   1.193  52.562  1.00  0.00     0.047 C 
HETATM   17  C11 UNL     1      21.955   1.333  53.095  1.00  0.00     0.118 C 
HETATM   18  N4  UNL     1      21.367   0.336  53.955  1.00  0.00    -0.334 N 
HETATM   19  C12 UNL     1      22.085  -0.867  54.273  1.00  0.00     0.239 C 
HETATM   20  H18 UNL     1      20.394   0.597  54.299  1.00  0.00     0.168 HD
HETATM   21  O1  UNL     1      21.794  -1.358  55.392  1.00  0.00    -0.271 OA
HETATM   22  C13 UNL     1      23.029  -1.250  53.165  1.00  0.00     0.234 C 
HETATM   23  N5  UNL     1      23.821  -0.032  52.933  1.00  0.00    -0.320 N 
BRANCH  23  24
HETATM   24  C14 UNL     1      25.253  -0.132  53.100  1.00  0.00     0.145 A 
HETATM   25  C15 UNL     1      26.228  -0.483  52.298  1.00  0.00     0.056 A 
HETATM   26  C16 UNL     1      27.608  -0.484  52.767  1.00  0.00     0.002 A 
HETATM   27  C17 UNL     1      27.840  -0.124  54.012  1.00  0.00    -0.000 A 
HETATM   28  C18 UNL     1      26.804   0.287  54.992  1.00  0.00     0.204 A 
HETATM   29  O2  UNL     1      25.514   0.252  54.430  1.00  0.00    -0.332 OA
ENDBRANCH  23  24
ENDBRANCH   1  16
TORSDOF 4
ENDMDL
MODEL 7
REMARK VINA RESULT:      -7.5      2.030      5.791
REMARK  4 active torsions:
REMARK  status: ('A' for Active; 'I' for Inactive)
REMARK    1  A    between atoms: N2_5  and  C4_6 
REMARK    2  A    between atoms: N3_11  and  C9_12 
REMARK    3  A    between atoms: C9_12  and  C10_13 
REMARK    4  A    between atoms: N5_19  and  C14_20 
ROOT
HETATM    1  C9  UNL     1      23.554   1.606  51.052  1.00  0.00     0.178 C 
ENDROOT
BRANCH   1   2
HETATM    2  N3  UNL     1      23.224   1.188  52.370  1.00  0.00    -0.383 N 
HETATM    3  C4  UNL     1      23.904   0.062  52.890  1.00  0.00     0.188 C 
HETATM    4  C5  UNL     1      23.118  -0.938  53.636  1.00  0.00     0.073 C 
HETATM    5  C6  UNL     1      21.801  -0.472  54.142  1.00  0.00    -0.025 C 
HETATM    6  C7  UNL     1      21.288   0.703  53.813  1.00  0.00    -0.011 C 
HETATM    7  C8  UNL     1      22.008   1.605  52.924  1.00  0.00     0.146 C 
BRANCH   3   8
HETATM    8  N2  UNL     1      25.091   0.539  53.554  1.00  0.00    -0.328 N 
HETATM    9  C3  UNL     1      25.384   1.946  53.887  1.00  0.00     0.158 C 
HETATM   10  C2  UNL     1      26.784   2.162  53.344  1.00  0.00     0.292 C 
HETATM   11  N1  UNL     1      27.779   1.462  54.122  1.00  0.00     0.094 N 
HETATM   12  C1  UNL     1      28.874   0.987  53.267  1.00  0.00     0.310 C 
HETATM   13  C20 UNL     1      27.250   0.287  54.776  1.00  0.00     0.374 C 
HETATM   14  C19 UNL     1      26.127  -0.313  53.966  1.00  0.00     0.249 C 
HETATM   15  O3  UNL     1      26.152  -1.525  53.693  1.00  0.00    -0.271 OA
ENDBRANCH   3   8
ENDBRANCH   1   2
BRANCH   1  16
HETATM   16  C10 UNL     1      22.407   1.846  50.153  1.00  0.00     0.047 C 
HETATM   17  C11 UNL     1      21.594   0.983  49.547  1.00  0.00     0.118 C 
HETATM   18  N4  UNL     1      20.512   1.407  48.693  1.00  0.00    -0.334 N 
HETATM   19  C12 UNL     1      20.270   2.803  48.464  1.00  0.00     0.239 C 
HETATM   20  H18 UNL     1      19.956   0.596  48.285  1.00  0.00     0.168 HD
HETATM   21  O1  UNL     1      19.748   3.057  47.349  1.00  0.00    -0.271 OA
HETATM   22  C13 UNL     1      20.710   3.636  49.638  1.00  0.00     0.234 C 
HETATM   23  N5  UNL     1      22.102   3.221  49.868  1.00  0.00    -0.320 N 
BRANCH  23  24
HETATM   24  C14 UNL     1      23.119   4.244  49.787  1.00  0.00     0.145 A 
HETATM   25  C15 UNL     1      23.994   4.570  48.866  1.00  0.00     0.056 A 
HETATM   26  C16 UNL     1      24.913   5.681  49.079  1.00  0.00     0.002 A 
HETATM   27  C17 UNL     1      24.835   6.341  50.216  1.00  0.00    -0.000 A 
HETATM   28  C18 UNL     1      23.881   6.047  51.314  1.00  0.00     0.204 A 
HETATM   29  O2  UNL     1      23.045   4.959  50.998  1.00  0.00    -0.332 OA
ENDBRANCH  23  24
ENDBRANCH   1  16
TORSDOF 4
ENDMDL
MODEL 8
REMARK VINA RESULT:      -7.5      1.982      2.809
REMARK  4 active torsions:
REMARK  status: ('A' for Active; 'I' for Inactive)
REMARK    1  A    between atoms: N2_5  and  C4_6 
REMARK    2  A    between atoms: N3_11  and  C9_12 
REMARK    3  A    between atoms: C9_12  and  C10_13 
REMARK    4  A    between atoms: N5_19  and  C14_20 
ROOT
HETATM    1  C9  UNL     1      23.402   2.181  50.238  1.00  0.00     0.178 C 
ENDROOT
BRANCH   1   2
HETATM    2  N3  UNL     1      22.025   2.031  50.555  1.00  0.00    -0.383 N 
HETATM    3  C4  UNL     1      21.426   3.024  51.365  1.00  0.00     0.188 C 
HETATM    4  C5  UNL     1      20.516   2.585  52.439  1.00  0.00     0.073 C 
HETATM    5  C6  UNL     1      19.976   1.208  52.300  1.00  0.00    -0.025 C 
HETATM    6  C7  UNL     1      20.402   0.368  51.371  1.00  0.00    -0.011 C 
HETATM    7  C8  UNL     1      21.439   0.767  50.428  1.00  0.00     0.146 C 
BRANCH   3   8
HETATM    8  N2  UNL     1      20.907   4.045  50.490  1.00  0.00    -0.328 N 
HETATM    9  C3  UNL     1      20.108   3.810  49.272  1.00  0.00     0.158 C 
HETATM   10  C2  UNL     1      20.814   4.636  48.212  1.00  0.00     0.292 C 
HETATM   11  N1  UNL     1      20.627   6.053  48.419  1.00  0.00     0.094 N 
HETATM   12  C1  UNL     1      21.821   6.804  48.010  1.00  0.00     0.310 C 
HETATM   13  C20 UNL     1      20.404   6.389  49.806  1.00  0.00     0.374 C 
HETATM   14  C19 UNL     1      21.116   5.415  50.711  1.00  0.00     0.249 C 
HETATM   15  O3  UNL     1      21.853   5.848  51.613  1.00  0.00    -0.271 OA
ENDBRANCH   3   8
ENDBRANCH   1   2
BRANCH   1  16
HETATM   16  C10 UNL     1      24.338   2.019  51.369  1.00  0.00     0.047 C 
HETATM   17  C11 UNL     1      24.147   1.484  52.573  1.00  0.00     0.118 C 
HETATM   18  N4  UNL     1      25.194   1.411  53.562  1.00  0.00    -0.334 N 
HETATM   19  C12 UNL     1      26.504   1.923  53.276  1.00  0.00     0.239 C 
HETATM   20  H18 UNL     1      24.882   0.956  54.472  1.00  0.00     0.168 HD
HETATM   21  O1  UNL     1      27.128   2.332  54.287  1.00  0.00    -0.271 OA
HETATM   22  C13 UNL     1      26.814   1.845  51.805  1.00  0.00     0.234 C 
HETATM   23  N5  UNL     1      25.672   2.514  51.164  1.00  0.00    -0.320 N 
BRANCH  23  24
HETATM   24  C14 UNL     1      25.957   3.668  50.343  1.00  0.00     0.145 A 
HETATM   25  C15 UNL     1      26.805   3.889  49.368  1.00  0.00     0.056 A 
HETATM   26  C16 UNL     1      26.861   5.191  48.716  1.00  0.00     0.002 A 
HETATM   27  C17 UNL     1      26.038   6.130  49.135  1.00  0.00    -0.000 A 
HETATM   28  C18 UNL     1      25.047   5.975  50.229  1.00  0.00     0.204 A 
HETATM   29  O2  UNL     1      25.082   4.681  50.781  1.00  0.00    -0.332 OA
ENDBRANCH  23  24
ENDBRANCH   1  16
TORSDOF 4
ENDMDL
MODEL 9
REMARK VINA RESULT:      -7.3      1.940      3.915
REMARK  4 active torsions:
REMARK  status: ('A' for Active; 'I' for Inactive)
REMARK    1  A    between atoms: N2_5  and  C4_6 
REMARK    2  A    between atoms: N3_11  and  C9_12 
REMARK    3  A    between atoms: C9_12  and  C10_13 
REMARK    4  A    between atoms: N5_19  and  C14_20 
ROOT
HETATM    1  C9  UNL     1      23.289   3.216  49.802  1.00  0.00     0.178 C 
ENDROOT
BRANCH   1   2
HETATM    2  N3  UNL     1      22.128   3.938  50.191  1.00  0.00    -0.383 N 
HETATM    3  C4  UNL     1      20.883   3.501  49.682  1.00  0.00     0.188 C 
HETATM    4  C5  UNL     1      19.930   4.523  49.210  1.00  0.00     0.073 C 
HETATM    5  C6  UNL     1      20.173   5.903  49.704  1.00  0.00    -0.025 C 
HETATM    6  C7  UNL     1      21.257   6.234  50.386  1.00  0.00    -0.011 C 
HETATM    7  C8  UNL     1      22.278   5.238  50.687  1.00  0.00     0.146 C 
BRANCH   3   8
HETATM    8  N2  UNL     1      20.348   2.535  50.609  1.00  0.00    -0.328 N 
HETATM    9  C3  UNL     1      19.683   2.848  51.888  1.00  0.00     0.158 C 
HETATM   10  C2  UNL     1      20.397   1.963  52.893  1.00  0.00     0.292 C 
HETATM   11  N1  UNL     1      20.061   0.569  52.719  1.00  0.00     0.094 N 
HETATM   12  C1  UNL     1      21.211  -0.290  53.032  1.00  0.00     0.310 C 
HETATM   13  C20 UNL     1      19.689   0.251  51.359  1.00  0.00     0.374 C 
HETATM   14  C19 UNL     1      20.408   1.151  50.386  1.00  0.00     0.249 C 
HETATM   15  O3  UNL     1      21.022   0.648  49.429  1.00  0.00    -0.271 OA
ENDBRANCH   3   8
ENDBRANCH   1   2
BRANCH   1  16
HETATM   16  C10 UNL     1      24.183   2.806  50.904  1.00  0.00     0.047 C 
HETATM   17  C11 UNL     1      23.910   2.181  52.047  1.00  0.00     0.118 C 
HETATM   18  N4  UNL     1      24.928   1.858  53.016  1.00  0.00    -0.334 N 
HETATM   19  C12 UNL     1      26.299   2.208  52.775  1.00  0.00     0.239 C 
HETATM   20  H18 UNL     1      24.547   1.359  53.875  1.00  0.00     0.168 HD
HETATM   21  O1  UNL     1      26.966   2.416  53.819  1.00  0.00    -0.271 OA
HETATM   22  C13 UNL     1      26.606   2.240  51.302  1.00  0.00     0.234 C 
HETATM   23  N5  UNL     1      25.575   3.127  50.742  1.00  0.00    -0.320 N 
BRANCH  23  24
HETATM   24  C14 UNL     1      26.027   4.309  50.045  1.00  0.00     0.145 A 
HETATM   25  C15 UNL     1      25.573   5.537  49.971  1.00  0.00     0.056 A 
HETATM   26  C16 UNL     1      26.264   6.534  49.164  1.00  0.00     0.002 A 
HETATM   27  C17 UNL     1      27.351   6.164  48.517  1.00  0.00    -0.000 A 
HETATM   28  C18 UNL     1      27.938   4.801  48.539  1.00  0.00     0.204 A 
HETATM   29  O2  UNL     1      27.190   3.926  49.349  1.00  0.00    -0.332 OA
ENDBRANCH  23  24
ENDBRANCH   1  16
TORSDOF 4
ENDMDL
