MODEL 1
REMARK VINA RESULT:      -8.5      0.000      0.000
REMARK  5 active torsions:
REMARK  status: ('A' for Active; 'I' for Inactive)
REMARK    1  A    between atoms: C5_6  and  C6_7 
REMARK    2  A    between atoms: C6_7  and  O1_8 
REMARK    3  A    between atoms: O1_8  and  C7_9 
REMARK    4  A    between atoms: C10_12  and  N1_13 
REMARK    5  A    between atoms: N1_13  and  C11_14 
ROOT
HETATM    1  C7  UNL     1      25.435   3.413  51.030  1.00  0.00     0.091 A 
HETATM    2  C8  UNL     1      26.342   2.400  50.845  1.00  0.00     0.041 A 
HETATM    3  C9  UNL     1      26.360   1.204  51.513  1.00  0.00     0.032 A 
HETATM    4  C10 UNL     1      25.365   0.995  52.467  1.00  0.00     0.035 A 
HETATM    5  C16 UNL     1      24.410   1.959  52.721  1.00  0.00     0.056 A 
HETATM    6  C17 UNL     1      24.448   3.163  52.002  1.00  0.00     0.069 A 
HETATM    7 CL1  UNL     1      23.131   4.240  52.495  1.00  0.00    -0.081 Cl
ENDROOT
BRANCH   1   8
HETATM    8  O1  UNL     1      25.212   4.639  50.518  1.00  0.00    -0.345 OA
BRANCH   8   9
HETATM    9  C6  UNL     1      25.296   5.166  49.254  1.00  0.00     0.214 C 
BRANCH   9  10
HETATM   10  C5  UNL     1      26.612   5.694  48.840  1.00  0.00    -0.031 A 
HETATM   11  C4  UNL     1      26.749   7.087  48.788  1.00  0.00     0.009 A 
HETATM   12  C3  UNL     1      27.927   7.713  48.429  1.00  0.00     0.004 A 
HETATM   13  C2  UNL     1      29.041   6.975  48.100  1.00  0.00     0.042 A 
HETATM   14  C1  UNL     1      28.932   5.606  48.144  1.00  0.00     0.117 A 
HETATM   15  F1  UNL     1      29.970   4.761  47.839  1.00  0.00    -0.206 F 
HETATM   16  C18 UNL     1      27.754   5.003  48.502  1.00  0.00     0.051 A 
ENDBRANCH   9  10
ENDBRANCH   8   9
ENDBRANCH   1   8
BRANCH   4  17
HETATM   17  N1  UNL     1      25.479  -0.283  53.095  1.00  0.00    -0.344 N 
HETATM   18  H8  UNL     1      24.605  -0.825  53.274  1.00  0.00     0.167 HD
BRANCH  17  19
HETATM   19  C11 UNL     1      26.748  -0.803  53.469  1.00  0.00     0.109 C 
HETATM   20  N2  UNL     1      27.091  -1.892  52.868  1.00  0.00    -0.228 NA
HETATM   21  C12 UNL     1      28.299  -2.671  53.015  1.00  0.00     0.234 C 
HETATM   22  N3  UNL     1      29.424  -2.174  53.425  1.00  0.00    -0.254 NA
HETATM   23  C13 UNL     1      29.756  -0.839  53.810  1.00  0.00     0.114 C 
HETATM   24  C14 UNL     1      28.922   0.081  54.262  1.00  0.00     0.000 C 
HETATM   25  C15 UNL     1      27.463   0.001  54.492  1.00  0.00     0.107 C 
ENDBRANCH  17  19
ENDBRANCH   4  17
TORSDOF 5
ENDMDL
MODEL 2
REMARK VINA RESULT:      -8.2      5.577      8.076
REMARK  5 active torsions:
REMARK  status: ('A' for Active; 'I' for Inactive)
REMARK    1  A    between atoms: C5_6  and  C6_7 
REMARK    2  A    between atoms: C6_7  and  O1_8 
REMARK    3  A    between atoms: O1_8  and  C7_9 
REMARK    4  A    between atoms: C10_12  and  N1_13 
REMARK    5  A    between atoms: N1_13  and  C11_14 
ROOT
HETATM    1  C7  UNL     1      21.913   0.970  52.491  1.00  0.00     0.091 A 
HETATM    2  C8  UNL     1      22.685   1.592  51.543  1.00  0.00     0.041 A 
HETATM    3  C9  UNL     1      24.054   1.577  51.484  1.00  0.00     0.032 A 
HETATM    4  C10 UNL     1      24.725   0.862  52.475  1.00  0.00     0.035 A 
HETATM    5  C16 UNL     1      24.029   0.204  53.470  1.00  0.00     0.056 A 
HETATM    6  C17 UNL     1      22.627   0.260  53.474  1.00  0.00     0.069 A 
HETATM    7 CL1  UNL     1      21.959  -0.654  54.836  1.00  0.00    -0.081 Cl
ENDROOT
BRANCH   1   8
HETATM    8  O1  UNL     1      20.599   0.839  52.758  1.00  0.00    -0.345 OA
BRANCH   8   9
HETATM    9  C6  UNL     1      19.471   0.824  51.977  1.00  0.00     0.214 C 
BRANCH   9  10
HETATM   10  C5  UNL     1      18.468  -0.219  52.276  1.00  0.00    -0.031 A 
HETATM   11  C4  UNL     1      17.276  -0.182  51.542  1.00  0.00     0.009 A 
HETATM   12  C3  UNL     1      16.261  -1.104  51.711  1.00  0.00     0.004 A 
HETATM   13  C2  UNL     1      16.382  -2.120  52.633  1.00  0.00     0.042 A 
HETATM   14  C1  UNL     1      17.543  -2.177  53.365  1.00  0.00     0.117 A 
HETATM   15  F1  UNL     1      17.785  -3.140  54.312  1.00  0.00    -0.206 F 
HETATM   16  C18 UNL     1      18.540  -1.253  53.183  1.00  0.00     0.051 A 
ENDBRANCH   9  10
ENDBRANCH   8   9
ENDBRANCH   1   8
BRANCH   4  17
HETATM   17  N1  UNL     1      26.142   0.912  52.311  1.00  0.00    -0.344 N 
HETATM   18  H8  UNL     1      26.551   1.710  51.777  1.00  0.00     0.167 HD
BRANCH  17  19
HETATM   19  C11 UNL     1      26.977  -0.101  52.859  1.00  0.00     0.109 C 
HETATM   20  N2  UNL     1      26.821  -1.274  52.345  1.00  0.00    -0.228 NA
HETATM   21  C12 UNL     1      27.501  -2.507  52.669  1.00  0.00     0.234 C 
HETATM   22  N3  UNL     1      28.684  -2.553  53.199  1.00  0.00    -0.254 NA
HETATM   23  C13 UNL     1      29.567  -1.495  53.575  1.00  0.00     0.114 C 
HETATM   24  C14 UNL     1      29.226  -0.257  53.887  1.00  0.00     0.000 C 
HETATM   25  C15 UNL     1      27.886   0.369  53.935  1.00  0.00     0.107 C 
ENDBRANCH  17  19
ENDBRANCH   4  17
TORSDOF 5
ENDMDL
MODEL 3
REMARK VINA RESULT:      -8.1      6.284      8.989
REMARK  5 active torsions:
REMARK  status: ('A' for Active; 'I' for Inactive)
REMARK    1  A    between atoms: C5_6  and  C6_7 
REMARK    2  A    between atoms: C6_7  and  O1_8 
REMARK    3  A    between atoms: O1_8  and  C7_9 
REMARK    4  A    between atoms: C10_12  and  N1_13 
REMARK    5  A    between atoms: N1_13  and  C11_14 
ROOT
HETATM    1  C7  UNL     1      21.529  -0.122  52.628  1.00  0.00     0.091 A 
HETATM    2  C8  UNL     1      21.833   0.660  51.542  1.00  0.00     0.041 A 
HETATM    3  C9  UNL     1      23.027   1.291  51.313  1.00  0.00     0.032 A 
HETATM    4  C10 UNL     1      24.028   1.123  52.269  1.00  0.00     0.035 A 
HETATM    5  C16 UNL     1      23.812   0.353  53.395  1.00  0.00     0.056 A 
HETATM    6  C17 UNL     1      22.565  -0.266  53.570  1.00  0.00     0.069 A 
HETATM    7 CL1  UNL     1      22.523  -1.196  55.077  1.00  0.00    -0.081 Cl
ENDROOT
BRANCH   1   8
HETATM    8  O1  UNL     1      20.468  -0.825  53.068  1.00  0.00    -0.345 OA
BRANCH   8   9
HETATM    9  C6  UNL     1      19.219  -0.473  53.516  1.00  0.00     0.214 C 
BRANCH   9  10
HETATM   10  C5  UNL     1      18.135  -1.452  53.298  1.00  0.00    -0.031 A 
HETATM   11  C4  UNL     1      17.045  -1.029  52.527  1.00  0.00     0.009 A 
HETATM   12  C3  UNL     1      15.969  -1.845  52.235  1.00  0.00     0.004 A 
HETATM   13  C2  UNL     1      15.924  -3.139  52.703  1.00  0.00     0.042 A 
HETATM   14  C1  UNL     1      16.982  -3.578  53.461  1.00  0.00     0.117 A 
HETATM   15  F1  UNL     1      17.056  -4.845  53.983  1.00  0.00    -0.206 F 
HETATM   16  C18 UNL     1      18.041  -2.753  53.740  1.00  0.00     0.051 A 
ENDBRANCH   9  10
ENDBRANCH   8   9
ENDBRANCH   1   8
BRANCH   4  17
HETATM   17  N1  UNL     1      25.226   1.819  51.926  1.00  0.00    -0.344 N 
HETATM   18  H8  UNL     1      25.145   2.695  51.363  1.00  0.00     0.167 HD
BRANCH  17  19
HETATM   19  C11 UNL     1      26.497   1.332  52.336  1.00  0.00     0.109 C 
HETATM   20  N2  UNL     1      27.219   2.175  52.995  1.00  0.00    -0.228 NA
HETATM   21  C12 UNL     1      28.541   2.002  53.549  1.00  0.00     0.234 C 
HETATM   22  N3  UNL     1      29.035   0.847  53.875  1.00  0.00    -0.254 NA
HETATM   23  C13 UNL     1      28.462  -0.458  53.787  1.00  0.00     0.114 C 
HETATM   24  C14 UNL     1      27.504  -0.844  52.962  1.00  0.00     0.000 C 
HETATM   25  C15 UNL     1      26.777  -0.070  51.932  1.00  0.00     0.107 C 
ENDBRANCH  17  19
ENDBRANCH   4  17
TORSDOF 5
ENDMDL
MODEL 4
REMARK VINA RESULT:      -8.0      4.085      6.545
REMARK  5 active torsions:
REMARK  status: ('A' for Active; 'I' for Inactive)
REMARK    1  A    between atoms: C5_6  and  C6_7 
REMARK    2  A    between atoms: C6_7  and  O1_8 
REMARK    3  A    between atoms: O1_8  and  C7_9 
REMARK    4  A    between atoms: C10_12  and  N1_13 
REMARK    5  A    between atoms: N1_13  and  C11_14 
ROOT
HETATM    1  C7  UNL     1      23.147   2.931  51.895  1.00  0.00     0.091 A 
HETATM    2  C8  UNL     1      23.831   2.757  53.071  1.00  0.00     0.041 A 
HETATM    3  C9  UNL     1      25.153   2.420  53.192  1.00  0.00     0.032 A 
HETATM    4  C10 UNL     1      25.872   2.238  52.012  1.00  0.00     0.035 A 
HETATM    5  C16 UNL     1      25.267   2.392  50.780  1.00  0.00     0.056 A 
HETATM    6  C17 UNL     1      23.908   2.738  50.726  1.00  0.00     0.069 A 
HETATM    7 CL1  UNL     1      23.354   2.880  49.049  1.00  0.00    -0.081 Cl
ENDROOT
BRANCH   1   8
HETATM    8  O1  UNL     1      21.892   3.251  51.524  1.00  0.00    -0.345 OA
BRANCH   8   9
HETATM    9  C6  UNL     1      20.673   3.181  52.150  1.00  0.00     0.214 C 
BRANCH   9  10
HETATM   10  C5  UNL     1      20.177   1.832  52.490  1.00  0.00    -0.031 A 
HETATM   11  C4  UNL     1      19.061   1.370  51.781  1.00  0.00     0.009 A 
HETATM   12  C3  UNL     1      18.502   0.123  51.989  1.00  0.00     0.004 A 
HETATM   13  C2  UNL     1      19.032  -0.736  52.925  1.00  0.00     0.042 A 
HETATM   14  C1  UNL     1      20.128  -0.304  53.634  1.00  0.00     0.117 A 
HETATM   15  F1  UNL     1      20.748  -1.067  54.592  1.00  0.00    -0.206 F 
HETATM   16  C18 UNL     1      20.668   0.936  53.413  1.00  0.00     0.051 A 
ENDBRANCH   9  10
ENDBRANCH   8   9
ENDBRANCH   1   8
BRANCH   4  17
HETATM   17  N1  UNL     1      27.236   1.895  52.257  1.00  0.00    -0.344 N 
HETATM   18  H8  UNL     1      27.972   2.602  52.036  1.00  0.00     0.167 HD
BRANCH  17  19
HETATM   19  C11 UNL     1      27.585   0.622  52.787  1.00  0.00     0.109 C 
HETATM   20  N2  UNL     1      26.873  -0.363  52.356  1.00  0.00    -0.228 NA
HETATM   21  C12 UNL     1      26.965  -1.766  52.689  1.00  0.00     0.234 C 
HETATM   22  N3  UNL     1      28.052  -2.330  53.116  1.00  0.00    -0.254 NA
HETATM   23  C13 UNL     1      29.346  -1.775  53.354  1.00  0.00     0.114 C 
HETATM   24  C14 UNL     1      29.624  -0.511  53.624  1.00  0.00     0.000 C 
HETATM   25  C15 UNL     1      28.714   0.649  53.752  1.00  0.00     0.107 C 
ENDBRANCH  17  19
ENDBRANCH   4  17
TORSDOF 5
ENDMDL
MODEL 5
REMARK VINA RESULT:      -7.9      4.012      7.849
REMARK  5 active torsions:
REMARK  status: ('A' for Active; 'I' for Inactive)
REMARK    1  A    between atoms: C5_6  and  C6_7 
REMARK    2  A    between atoms: C6_7  and  O1_8 
REMARK    3  A    between atoms: O1_8  and  C7_9 
REMARK    4  A    between atoms: C10_12  and  N1_13 
REMARK    5  A    between atoms: N1_13  and  C11_14 
ROOT
HETATM    1  C7  UNL     1      25.782   2.883  51.124  1.00  0.00     0.091 A 
HETATM    2  C8  UNL     1      26.651   3.247  50.127  1.00  0.00     0.041 A 
HETATM    3  C9  UNL     1      26.531   4.343  49.315  1.00  0.00     0.032 A 
HETATM    4  C10 UNL     1      25.426   5.167  49.519  1.00  0.00     0.035 A 
HETATM    5  C16 UNL     1      24.498   4.879  50.501  1.00  0.00     0.056 A 
HETATM    6  C17 UNL     1      24.679   3.740  51.299  1.00  0.00     0.069 A 
HETATM    7 CL1  UNL     1      23.371   3.578  52.482  1.00  0.00    -0.081 Cl
ENDROOT
BRANCH   1   8
HETATM    8  O1  UNL     1      25.682   1.889  52.028  1.00  0.00    -0.345 OA
BRANCH   8   9
HETATM    9  C6  UNL     1      26.292   1.640  53.232  1.00  0.00     0.214 C 
BRANCH   9  10
HETATM   10  C5  UNL     1      27.330   0.588  53.246  1.00  0.00    -0.031 A 
HETATM   11  C4  UNL     1      28.625   0.981  53.605  1.00  0.00     0.009 A 
HETATM   12  C3  UNL     1      29.687   0.099  53.671  1.00  0.00     0.004 A 
HETATM   13  C2  UNL     1      29.509  -1.235  53.378  1.00  0.00     0.042 A 
HETATM   14  C1  UNL     1      28.246  -1.644  53.024  1.00  0.00     0.117 A 
HETATM   15  F1  UNL     1      27.940  -2.945  52.712  1.00  0.00    -0.206 F 
HETATM   16  C18 UNL     1      27.206  -0.754  52.964  1.00  0.00     0.051 A 
ENDBRANCH   9  10
ENDBRANCH   8   9
ENDBRANCH   1   8
BRANCH   4  17
HETATM   17  N1  UNL     1      25.406   6.278  48.622  1.00  0.00    -0.344 N 
HETATM   18  H8  UNL     1      24.668   6.303  47.884  1.00  0.00     0.167 HD
BRANCH  17  19
HETATM   19  C11 UNL     1      26.366   7.321  48.729  1.00  0.00     0.109 C 
HETATM   20  N2  UNL     1      26.323   7.992  49.829  1.00  0.00    -0.228 NA
HETATM   21  C12 UNL     1      27.147   9.102  50.250  1.00  0.00     0.234 C 
HETATM   22  N3  UNL     1      28.346   9.312  49.803  1.00  0.00    -0.254 NA
HETATM   23  C13 UNL     1      29.120   8.574  48.857  1.00  0.00     0.114 C 
HETATM   24  C14 UNL     1      28.654   7.787  47.901  1.00  0.00     0.000 C 
HETATM   25  C15 UNL     1      27.256   7.458  47.548  1.00  0.00     0.107 C 
ENDBRANCH  17  19
ENDBRANCH   4  17
TORSDOF 5
ENDMDL
MODEL 6
REMARK VINA RESULT:      -7.9      5.067      7.396
REMARK  5 active torsions:
REMARK  status: ('A' for Active; 'I' for Inactive)
REMARK    1  A    between atoms: C5_6  and  C6_7 
REMARK    2  A    between atoms: C6_7  and  O1_8 
REMARK    3  A    between atoms: O1_8  and  C7_9 
REMARK    4  A    between atoms: C10_12  and  N1_13 
REMARK    5  A    between atoms: N1_13  and  C11_14 
ROOT
HETATM    1  C7  UNL     1      21.948   0.576  53.265  1.00  0.00     0.091 A 
HETATM    2  C8  UNL     1      22.577   1.385  52.353  1.00  0.00     0.041 A 
HETATM    3  C9  UNL     1      23.910   1.358  52.038  1.00  0.00     0.032 A 
HETATM    4  C10 UNL     1      24.701   0.422  52.702  1.00  0.00     0.035 A 
HETATM    5  C16 UNL     1      24.153  -0.434  53.637  1.00  0.00     0.056 A 
HETATM    6  C17 UNL     1      22.780  -0.355  53.914  1.00  0.00     0.069 A 
HETATM    7 CL1  UNL     1      22.309  -1.546  55.138  1.00  0.00    -0.081 Cl
ENDROOT
BRANCH   1   8
HETATM    8  O1  UNL     1      20.696   0.411  53.736  1.00  0.00    -0.345 OA
BRANCH   8   9
HETATM    9  C6  UNL     1      19.707  -0.509  53.495  1.00  0.00     0.214 C 
BRANCH   9  10
HETATM   10  C5  UNL     1      18.833  -0.256  52.331  1.00  0.00    -0.031 A 
HETATM   11  C4  UNL     1      17.588  -0.898  52.322  1.00  0.00     0.009 A 
HETATM   12  C3  UNL     1      16.668  -0.739  51.303  1.00  0.00     0.004 A 
HETATM   13  C2  UNL     1      16.946   0.075  50.228  1.00  0.00     0.042 A 
HETATM   14  C1  UNL     1      18.162   0.716  50.215  1.00  0.00     0.117 A 
HETATM   15  F1  UNL     1      18.556   1.554  49.202  1.00  0.00    -0.206 F 
HETATM   16  C18 UNL     1      19.061   0.546  51.235  1.00  0.00     0.051 A 
ENDBRANCH   9  10
ENDBRANCH   8   9
ENDBRANCH   1   8
BRANCH   4  17
HETATM   17  N1  UNL     1      26.068   0.481  52.293  1.00  0.00    -0.344 N 
HETATM   18  H8  UNL     1      26.329   1.155  51.540  1.00  0.00     0.167 HD
BRANCH  17  19
HETATM   19  C11 UNL     1      27.047  -0.357  52.893  1.00  0.00     0.109 C 
HETATM   20  N2  UNL     1      27.086  -1.564  52.439  1.00  0.00    -0.228 NA
HETATM   21  C12 UNL     1      27.950  -2.654  52.826  1.00  0.00     0.234 C 
HETATM   22  N3  UNL     1      29.120  -2.484  53.360  1.00  0.00    -0.254 NA
HETATM   23  C13 UNL     1      29.819  -1.282  53.684  1.00  0.00     0.114 C 
HETATM   24  C14 UNL     1      29.281  -0.100  53.932  1.00  0.00     0.000 C 
HETATM   25  C15 UNL     1      27.858   0.305  53.946  1.00  0.00     0.107 C 
ENDBRANCH  17  19
ENDBRANCH   4  17
TORSDOF 5
ENDMDL
MODEL 7
REMARK VINA RESULT:      -7.9      1.852      2.342
REMARK  5 active torsions:
REMARK  status: ('A' for Active; 'I' for Inactive)
REMARK    1  A    between atoms: C5_6  and  C6_7 
REMARK    2  A    between atoms: C6_7  and  O1_8 
REMARK    3  A    between atoms: O1_8  and  C7_9 
REMARK    4  A    between atoms: C10_12  and  N1_13 
REMARK    5  A    between atoms: N1_13  and  C11_14 
ROOT
HETATM    1  C7  UNL     1      24.352   3.483  51.158  1.00  0.00     0.091 A 
HETATM    2  C8  UNL     1      23.565   2.993  52.169  1.00  0.00     0.041 A 
HETATM    3  C9  UNL     1      23.814   1.868  52.911  1.00  0.00     0.032 A 
HETATM    4  C10 UNL     1      24.975   1.156  52.613  1.00  0.00     0.035 A 
HETATM    5  C16 UNL     1      25.827   1.574  51.611  1.00  0.00     0.056 A 
HETATM    6  C17 UNL     1      25.514   2.735  50.888  1.00  0.00     0.069 A 
HETATM    7 CL1  UNL     1      26.746   3.073  49.662  1.00  0.00    -0.081 Cl
ENDROOT
BRANCH   1   8
HETATM    8  O1  UNL     1      24.326   4.529  50.310  1.00  0.00    -0.345 OA
BRANCH   8   9
HETATM    9  C6  UNL     1      24.260   5.889  50.486  1.00  0.00     0.214 C 
BRANCH   9  10
HETATM   10  C5  UNL     1      25.380   6.684  49.943  1.00  0.00    -0.031 A 
HETATM   11  C4  UNL     1      25.939   6.250  48.735  1.00  0.00     0.009 A 
HETATM   12  C3  UNL     1      26.981   6.907  48.110  1.00  0.00     0.004 A 
HETATM   13  C2  UNL     1      27.527   8.043  48.665  1.00  0.00     0.042 A 
HETATM   14  C1  UNL     1      26.995   8.489  49.851  1.00  0.00     0.117 A 
HETATM   15  F1  UNL     1      27.450   9.608  50.502  1.00  0.00    -0.206 F 
HETATM   16  C18 UNL     1      25.960   7.823  50.455  1.00  0.00     0.051 A 
ENDBRANCH   9  10
ENDBRANCH   8   9
ENDBRANCH   1   8
BRANCH   4  17
HETATM   17  N1  UNL     1      25.135   0.009  53.449  1.00  0.00    -0.344 N 
HETATM   18  H8  UNL     1      24.279  -0.430  53.855  1.00  0.00     0.167 HD
BRANCH  17  19
HETATM   19  C11 UNL     1      26.426  -0.521  53.723  1.00  0.00     0.109 C 
HETATM   20  N2  UNL     1      26.740  -1.573  53.046  1.00  0.00    -0.228 NA
HETATM   21  C12 UNL     1      27.958  -2.348  53.084  1.00  0.00     0.234 C 
HETATM   22  N3  UNL     1      29.102  -1.865  53.458  1.00  0.00    -0.254 NA
HETATM   23  C13 UNL     1      29.448  -0.551  53.897  1.00  0.00     0.114 C 
HETATM   24  C14 UNL     1      28.635   0.337  54.444  1.00  0.00     0.000 C 
HETATM   25  C15 UNL     1      27.192   0.232  54.749  1.00  0.00     0.107 C 
ENDBRANCH  17  19
ENDBRANCH   4  17
TORSDOF 5
ENDMDL
MODEL 8
REMARK VINA RESULT:      -7.9      2.011      2.576
REMARK  5 active torsions:
REMARK  status: ('A' for Active; 'I' for Inactive)
REMARK    1  A    between atoms: C5_6  and  C6_7 
REMARK    2  A    between atoms: C6_7  and  O1_8 
REMARK    3  A    between atoms: O1_8  and  C7_9 
REMARK    4  A    between atoms: C10_12  and  N1_13 
REMARK    5  A    between atoms: N1_13  and  C11_14 
ROOT
HETATM    1  C7  UNL     1      23.172   3.485  51.524  1.00  0.00     0.091 A 
HETATM    2  C8  UNL     1      23.942   3.800  52.615  1.00  0.00     0.041 A 
HETATM    3  C9  UNL     1      24.656   2.916  53.379  1.00  0.00     0.032 A 
HETATM    4  C10 UNL     1      24.598   1.571  53.015  1.00  0.00     0.035 A 
HETATM    5  C16 UNL     1      23.847   1.161  51.932  1.00  0.00     0.056 A 
HETATM    6  C17 UNL     1      23.138   2.118  51.190  1.00  0.00     0.069 A 
HETATM    7 CL1  UNL     1      22.254   1.361  49.855  1.00  0.00    -0.081 Cl
ENDROOT
BRANCH   1   8
HETATM    8  O1  UNL     1      22.402   4.147  50.639  1.00  0.00    -0.345 OA
BRANCH   8   9
HETATM    9  C6  UNL     1      22.671   4.855  49.494  1.00  0.00     0.214 C 
BRANCH   9  10
HETATM   10  C5  UNL     1      24.079   5.236  49.264  1.00  0.00    -0.031 A 
HETATM   11  C4  UNL     1      24.358   6.606  49.172  1.00  0.00     0.009 A 
HETATM   12  C3  UNL     1      25.632   7.101  48.971  1.00  0.00     0.004 A 
HETATM   13  C2  UNL     1      26.705   6.247  48.849  1.00  0.00     0.042 A 
HETATM   14  C1  UNL     1      26.457   4.898  48.936  1.00  0.00     0.117 A 
HETATM   15  F1  UNL     1      27.440   3.947  48.832  1.00  0.00    -0.206 F 
HETATM   16  C18 UNL     1      25.186   4.426  49.136  1.00  0.00     0.051 A 
ENDBRANCH   9  10
ENDBRANCH   8   9
ENDBRANCH   1   8
BRANCH   4  17
HETATM   17  N1  UNL     1      25.381   0.744  53.876  1.00  0.00    -0.344 N 
HETATM   18  H8  UNL     1      24.918   0.319  54.710  1.00  0.00     0.167 HD
BRANCH  17  19
HETATM   19  C11 UNL     1      26.757   0.505  53.607  1.00  0.00     0.109 C 
HETATM   20  N2  UNL     1      27.577   1.287  54.223  1.00  0.00    -0.228 NA
HETATM   21  C12 UNL     1      29.021   1.313  54.172  1.00  0.00     0.234 C 
HETATM   22  N3  UNL     1      29.744   0.281  53.865  1.00  0.00    -0.254 NA
HETATM   23  C13 UNL     1      29.353  -1.050  53.524  1.00  0.00     0.114 C 
HETATM   24  C14 UNL     1      28.193  -1.423  53.012  1.00  0.00     0.000 C 
HETATM   25  C15 UNL     1      27.011  -0.607  52.657  1.00  0.00     0.107 C 
ENDBRANCH  17  19
ENDBRANCH   4  17
TORSDOF 5
ENDMDL
MODEL 9
REMARK VINA RESULT:      -7.8      4.114      7.664
REMARK  5 active torsions:
REMARK  status: ('A' for Active; 'I' for Inactive)
REMARK    1  A    between atoms: C5_6  and  C6_7 
REMARK    2  A    between atoms: C6_7  and  O1_8 
REMARK    3  A    between atoms: O1_8  and  C7_9 
REMARK    4  A    between atoms: C10_12  and  N1_13 
REMARK    5  A    between atoms: N1_13  and  C11_14 
ROOT
HETATM    1  C7  UNL     1      25.772   3.937  50.347  1.00  0.00     0.091 A 
HETATM    2  C8  UNL     1      26.839   3.839  49.490  1.00  0.00     0.041 A 
HETATM    3  C9  UNL     1      27.307   4.833  48.672  1.00  0.00     0.032 A 
HETATM    4  C10 UNL     1      26.641   6.056  48.713  1.00  0.00     0.035 A 
HETATM    5  C16 UNL     1      25.555   6.246  49.545  1.00  0.00     0.056 A 
HETATM    6  C17 UNL     1      25.125   5.187  50.359  1.00  0.00     0.069 A 
HETATM    7 CL1  UNL     1      23.726   5.663  51.335  1.00  0.00    -0.081 Cl
ENDROOT
BRANCH   1   8
HETATM    8  O1  UNL     1      25.137   3.134  51.224  1.00  0.00    -0.345 OA
BRANCH   8   9
HETATM    9  C6  UNL     1      25.239   1.801  51.532  1.00  0.00     0.214 C 
BRANCH   9  10
HETATM   10  C5  UNL     1      26.446   1.380  52.273  1.00  0.00    -0.031 A 
HETATM   11  C4  UNL     1      26.717   0.007  52.317  1.00  0.00     0.009 A 
HETATM   12  C3  UNL     1      27.817  -0.522  52.963  1.00  0.00     0.004 A 
HETATM   13  C2  UNL     1      28.714   0.301  53.608  1.00  0.00     0.042 A 
HETATM   14  C1  UNL     1      28.469   1.653  53.579  1.00  0.00     0.117 A 
HETATM   15  F1  UNL     1      29.287   2.575  54.182  1.00  0.00    -0.206 F 
HETATM   16  C18 UNL     1      27.372   2.158  52.932  1.00  0.00     0.051 A 
ENDBRANCH   9  10
ENDBRANCH   8   9
ENDBRANCH   1   8
BRANCH   4  17
HETATM   17  N1  UNL     1      27.216   7.016  47.825  1.00  0.00    -0.344 N 
HETATM   18  H8  UNL     1      26.690   7.265  46.959  1.00  0.00     0.167 HD
BRANCH  17  19
HETATM   19  C11 UNL     1      28.473   7.615  48.113  1.00  0.00     0.109 C 
HETATM   20  N2  UNL     1      28.432   8.601  48.943  1.00  0.00    -0.228 NA
HETATM   21  C12 UNL     1      29.515   9.417  49.441  1.00  0.00     0.234 C 
HETATM   22  N3  UNL     1      30.746   9.015  49.497  1.00  0.00    -0.254 NA
HETATM   23  C13 UNL     1      31.326   7.766  49.116  1.00  0.00     0.114 C 
HETATM   24  C14 UNL     1      30.847   6.913  48.227  1.00  0.00     0.000 C 
HETATM   25  C15 UNL     1      29.622   6.999  47.401  1.00  0.00     0.107 C 
ENDBRANCH  17  19
ENDBRANCH   4  17
TORSDOF 5
ENDMDL
