MODEL 1
REMARK VINA RESULT:      -8.6      0.000      0.000
REMARK  7 active torsions:
REMARK  status: ('A' for Active; 'I' for Inactive)
REMARK    1  A    between atoms: C2_2  and  O1_3 
REMARK    2  A    between atoms: C2_2  and  C11_14 
REMARK    3  A    between atoms: N1_4  and  C3_5 
REMARK    4  A    between atoms: C7_9  and  C8_10 
REMARK    5  A    between atoms: C8_10  and  O2_12 
REMARK    6  A    between atoms: C11_14  and  N2_15 
REMARK    7  A    between atoms: C12_16  and  C13_17 
ROOT
HETATM    1  O1  UNL     1      27.237   3.579  50.735  1.00  0.00     0.000 OA
HETATM    2  N1  UNL     1      26.784   2.464  51.270  1.00  0.00    -0.222 NA
HETATM    3  H5  UNL     1      27.666   3.030  51.458  1.00  0.00     0.147 HD
ENDROOT
BRANCH   1   4
HETATM    4  C2  UNL     1      26.619   3.933  49.544  1.00  0.00     0.040 C 
HETATM    5  C1  UNL     1      27.567   4.753  48.678  1.00  0.00     0.017 C 
BRANCH   4   6
HETATM    6  C11 UNL     1      25.396   4.711  49.708  1.00  0.00     0.008 C 
HETATM    7  C12 UNL     1      24.082   4.654  49.656  1.00  0.00     0.036 C 
BRANCH   6   8
HETATM    8  N2  UNL     1      25.974   5.965  50.040  1.00  0.00    -0.402 N 
HETATM    9  H15 UNL     1      26.421   6.841  50.367  1.00  0.00     0.156 HD
HETATM   10  H16 UNL     1      26.024   6.874  49.491  1.00  0.00     0.156 HD
ENDBRANCH   6   8
BRANCH   7  11
HETATM   11  C13 UNL     1      23.261   3.500  49.341  1.00  0.00    -0.034 A 
HETATM   12  C14 UNL     1      22.961   2.519  50.289  1.00  0.00     0.011 A 
HETATM   13  C15 UNL     1      22.198   1.398  50.077  1.00  0.00     0.001 A 
HETATM   14  C16 UNL     1      21.702   1.265  48.802  1.00  0.00     0.000 A 
HETATM   15  C17 UNL     1      21.931   2.168  47.786  1.00  0.00     0.001 A 
HETATM   16  C18 UNL     1      22.708   3.269  48.079  1.00  0.00     0.011 A 
ENDBRANCH   7  11
ENDBRANCH   4   6
ENDBRANCH   1   4
BRANCH   2  17
HETATM   17  C3  UNL     1      26.607   1.301  52.037  1.00  0.00     0.023 A 
HETATM   18  C4  UNL     1      25.355   0.736  52.252  1.00  0.00     0.025 A 
HETATM   19  C5  UNL     1      25.259  -0.421  53.026  1.00  0.00     0.002 A 
HETATM   20  C6  UNL     1      26.451  -0.881  53.499  1.00  0.00     0.010 A 
HETATM   21  C7  UNL     1      27.709  -0.353  53.310  1.00  0.00    -0.028 A 
HETATM   22  C10 UNL     1      27.781   0.790  52.543  1.00  0.00     0.034 A 
BRANCH  21  23
HETATM   23  C8  UNL     1      28.909  -1.023  53.926  1.00  0.00     0.147 C 
HETATM   24  C9  UNL     1      30.118  -0.276  53.409  1.00  0.00     0.044 C 
BRANCH  23  25
HETATM   25  O2  UNL     1      28.966  -2.316  53.411  1.00  0.00    -0.391 OA
HETATM   26  H13 UNL     1      28.848  -2.348  52.437  1.00  0.00     0.210 HD
ENDBRANCH  23  25
ENDBRANCH  21  23
ENDBRANCH   2  17
TORSDOF 7
ENDMDL
MODEL 2
REMARK VINA RESULT:      -8.6      1.887      2.769
REMARK  7 active torsions:
REMARK  status: ('A' for Active; 'I' for Inactive)
REMARK    1  A    between atoms: C2_2  and  O1_3 
REMARK    2  A    between atoms: C2_2  and  C11_14 
REMARK    3  A    between atoms: N1_4  and  C3_5 
REMARK    4  A    between atoms: C7_9  and  C8_10 
REMARK    5  A    between atoms: C8_10  and  O2_12 
REMARK    6  A    between atoms: C11_14  and  N2_15 
REMARK    7  A    between atoms: C12_16  and  C13_17 
ROOT
HETATM    1  O1  UNL     1      26.987   3.687  50.869  1.00  0.00     0.000 OA
HETATM    2  N1  UNL     1      27.188   2.740  51.761  1.00  0.00    -0.222 NA
HETATM    3  H5  UNL     1      27.866   3.377  51.243  1.00  0.00     0.147 HD
ENDROOT
BRANCH   1   4
HETATM    4  C2  UNL     1      25.723   3.675  50.297  1.00  0.00     0.040 C 
HETATM    5  C1  UNL     1      25.682   4.588  49.079  1.00  0.00     0.017 C 
BRANCH   4   6
HETATM    6  C11 UNL     1      24.651   4.097  51.193  1.00  0.00     0.008 C 
HETATM    7  C12 UNL     1      23.679   3.666  51.968  1.00  0.00     0.036 C 
BRANCH   6   8
HETATM    8  N2  UNL     1      24.832   5.503  51.108  1.00  0.00    -0.402 N 
HETATM    9  H15 UNL     1      24.870   6.538  51.063  1.00  0.00     0.156 HD
HETATM   10  H16 UNL     1      25.704   6.081  50.916  1.00  0.00     0.156 HD
ENDBRANCH   6   8
BRANCH   7  11
HETATM   11  C13 UNL     1      23.294   2.290  52.219  1.00  0.00    -0.034 A 
HETATM   12  C14 UNL     1      24.002   1.469  53.100  1.00  0.00     0.011 A 
HETATM   13  C15 UNL     1      23.712   0.160  53.393  1.00  0.00     0.001 A 
HETATM   14  C16 UNL     1      22.616  -0.354  52.739  1.00  0.00     0.000 A 
HETATM   15  C17 UNL     1      21.844   0.361  51.849  1.00  0.00     0.001 A 
HETATM   16  C18 UNL     1      22.201   1.671  51.608  1.00  0.00     0.011 A 
ENDBRANCH   7  11
ENDBRANCH   4   6
ENDBRANCH   1   4
BRANCH   2  17
HETATM   17  C3  UNL     1      27.751   1.822  52.662  1.00  0.00     0.023 A 
HETATM   18  C4  UNL     1      28.648   2.207  53.652  1.00  0.00     0.025 A 
HETATM   19  C5  UNL     1      29.165   1.237  54.511  1.00  0.00     0.002 A 
HETATM   20  C6  UNL     1      28.712  -0.025  54.271  1.00  0.00     0.010 A 
HETATM   21  C7  UNL     1      27.828  -0.449  53.304  1.00  0.00    -0.028 A 
HETATM   22  C10 UNL     1      27.329   0.526  52.467  1.00  0.00     0.034 A 
BRANCH  21  23
HETATM   23  C8  UNL     1      27.455  -1.904  53.207  1.00  0.00     0.147 C 
HETATM   24  C9  UNL     1      28.753  -2.661  53.040  1.00  0.00     0.044 C 
BRANCH  23  25
HETATM   25  O2  UNL     1      26.726  -2.063  52.031  1.00  0.00    -0.391 OA
HETATM   26  H13 UNL     1      27.012  -2.839  51.501  1.00  0.00     0.210 HD
ENDBRANCH  23  25
ENDBRANCH  21  23
ENDBRANCH   2  17
TORSDOF 7
ENDMDL
MODEL 3
REMARK VINA RESULT:      -8.4      1.397      2.518
REMARK  7 active torsions:
REMARK  status: ('A' for Active; 'I' for Inactive)
REMARK    1  A    between atoms: C2_2  and  O1_3 
REMARK    2  A    between atoms: C2_2  and  C11_14 
REMARK    3  A    between atoms: N1_4  and  C3_5 
REMARK    4  A    between atoms: C7_9  and  C8_10 
REMARK    5  A    between atoms: C8_10  and  O2_12 
REMARK    6  A    between atoms: C11_14  and  N2_15 
REMARK    7  A    between atoms: C12_16  and  C13_17 
ROOT
HETATM    1  O1  UNL     1      27.188   3.534  50.782  1.00  0.00     0.000 OA
HETATM    2  N1  UNL     1      26.746   2.412  51.312  1.00  0.00    -0.222 NA
HETATM    3  H5  UNL     1      27.622   2.986  51.502  1.00  0.00     0.147 HD
ENDROOT
BRANCH   1   4
HETATM    4  C2  UNL     1      26.566   3.888  49.593  1.00  0.00     0.040 C 
HETATM    5  C1  UNL     1      27.505   4.722  48.730  1.00  0.00     0.017 C 
BRANCH   4   6
HETATM    6  C11 UNL     1      25.336   4.654  49.760  1.00  0.00     0.008 C 
HETATM    7  C12 UNL     1      24.023   4.593  49.676  1.00  0.00     0.036 C 
BRANCH   6   8
HETATM    8  N2  UNL     1      25.899   5.895  50.157  1.00  0.00    -0.402 N 
HETATM    9  H15 UNL     1      26.396   6.765  50.424  1.00  0.00     0.156 HD
HETATM   10  H16 UNL     1      25.441   6.777  50.537  1.00  0.00     0.156 HD
ENDBRANCH   6   8
BRANCH   7  11
HETATM   11  C13 UNL     1      23.216   3.450  49.294  1.00  0.00    -0.034 A 
HETATM   12  C14 UNL     1      22.781   2.503  50.225  1.00  0.00     0.011 A 
HETATM   13  C15 UNL     1      22.020   1.394  49.952  1.00  0.00     0.001 A 
HETATM   14  C16 UNL     1      21.673   1.237  48.630  1.00  0.00     0.000 A 
HETATM   15  C17 UNL     1      22.044   2.106  47.627  1.00  0.00     0.001 A 
HETATM   16  C18 UNL     1      22.809   3.197  47.982  1.00  0.00     0.011 A 
ENDBRANCH   7  11
ENDBRANCH   4   6
ENDBRANCH   1   4
BRANCH   2  17
HETATM   17  C3  UNL     1      26.580   1.244  52.073  1.00  0.00     0.023 A 
HETATM   18  C4  UNL     1      27.658   0.475  52.498  1.00  0.00     0.025 A 
HETATM   19  C5  UNL     1      27.414  -0.673  53.252  1.00  0.00     0.002 A 
HETATM   20  C6  UNL     1      26.096  -0.917  53.493  1.00  0.00     0.010 A 
HETATM   21  C7  UNL     1      25.001  -0.184  53.092  1.00  0.00    -0.028 A 
HETATM   22  C10 UNL     1      25.265   0.946  52.348  1.00  0.00     0.034 A 
BRANCH  21  23
HETATM   23  C8  UNL     1      23.614  -0.631  53.469  1.00  0.00     0.147 C 
HETATM   24  C9  UNL     1      22.746   0.607  53.422  1.00  0.00     0.044 C 
BRANCH  23  25
HETATM   25  O2  UNL     1      23.666  -1.053  54.795  1.00  0.00    -0.391 OA
HETATM   26  H13 UNL     1      22.785  -1.065  55.231  1.00  0.00     0.210 HD
ENDBRANCH  23  25
ENDBRANCH  21  23
ENDBRANCH   2  17
TORSDOF 7
ENDMDL
MODEL 4
REMARK VINA RESULT:      -8.4      2.591      4.042
REMARK  7 active torsions:
REMARK  status: ('A' for Active; 'I' for Inactive)
REMARK    1  A    between atoms: C2_2  and  O1_3 
REMARK    2  A    between atoms: C2_2  and  C11_14 
REMARK    3  A    between atoms: N1_4  and  C3_5 
REMARK    4  A    between atoms: C7_9  and  C8_10 
REMARK    5  A    between atoms: C8_10  and  O2_12 
REMARK    6  A    between atoms: C11_14  and  N2_15 
REMARK    7  A    between atoms: C12_16  and  C13_17 
ROOT
HETATM    1  O1  UNL     1      24.872   3.283  53.421  1.00  0.00     0.000 OA
HETATM    2  N1  UNL     1      25.927   2.511  53.253  1.00  0.00    -0.222 NA
HETATM    3  H5  UNL     1      25.590   3.075  54.092  1.00  0.00     0.147 HD
ENDROOT
BRANCH   1   4
HETATM    4  C2  UNL     1      24.241   3.651  52.242  1.00  0.00     0.040 C 
HETATM    5  C1  UNL     1      23.025   4.520  52.540  1.00  0.00     0.017 C 
BRANCH   4   6
HETATM    6  C11 UNL     1      23.786   2.531  51.426  1.00  0.00     0.008 C 
HETATM    7  C12 UNL     1      23.184   1.361  51.463  1.00  0.00     0.036 C 
BRANCH   6   8
HETATM    8  N2  UNL     1      24.206   2.999  50.153  1.00  0.00    -0.402 N 
HETATM    9  H15 UNL     1      24.581   3.390  49.269  1.00  0.00     0.156 HD
HETATM   10  H16 UNL     1      23.821   2.807  49.180  1.00  0.00     0.156 HD
ENDBRANCH   6   8
BRANCH   7  11
HETATM   11  C13 UNL     1      22.669   0.671  52.631  1.00  0.00    -0.034 A 
HETATM   12  C14 UNL     1      21.392   0.922  53.139  1.00  0.00     0.011 A 
HETATM   13  C15 UNL     1      20.827   0.321  54.236  1.00  0.00     0.001 A 
HETATM   14  C16 UNL     1      21.623  -0.609  54.864  1.00  0.00     0.000 A 
HETATM   15  C17 UNL     1      22.896  -0.938  54.452  1.00  0.00     0.001 A 
HETATM   16  C18 UNL     1      23.393  -0.289  53.342  1.00  0.00     0.011 A 
ENDBRANCH   7  11
ENDBRANCH   4   6
ENDBRANCH   1   4
BRANCH   2  17
HETATM   17  C3  UNL     1      27.116   1.784  53.420  1.00  0.00     0.023 A 
HETATM   18  C4  UNL     1      28.252   2.340  53.996  1.00  0.00     0.025 A 
HETATM   19  C5  UNL     1      29.398   1.555  54.128  1.00  0.00     0.002 A 
HETATM   20  C6  UNL     1      29.263   0.283  53.659  1.00  0.00     0.010 A 
HETATM   21  C7  UNL     1      28.160  -0.306  53.083  1.00  0.00    -0.028 A 
HETATM   22  C10 UNL     1      27.040   0.488  52.962  1.00  0.00     0.034 A 
BRANCH  21  23
HETATM   23  C8  UNL     1      28.221  -1.740  52.627  1.00  0.00     0.147 C 
HETATM   24  C9  UNL     1      26.787  -2.212  52.531  1.00  0.00     0.044 C 
BRANCH  23  25
HETATM   25  O2  UNL     1      28.832  -2.468  53.645  1.00  0.00    -0.391 OA
HETATM   26  H13 UNL     1      29.008  -3.402  53.398  1.00  0.00     0.210 HD
ENDBRANCH  23  25
ENDBRANCH  21  23
ENDBRANCH   2  17
TORSDOF 7
ENDMDL
MODEL 5
REMARK VINA RESULT:      -8.3      2.228      6.156
REMARK  7 active torsions:
REMARK  status: ('A' for Active; 'I' for Inactive)
REMARK    1  A    between atoms: C2_2  and  O1_3 
REMARK    2  A    between atoms: C2_2  and  C11_14 
REMARK    3  A    between atoms: N1_4  and  C3_5 
REMARK    4  A    between atoms: C7_9  and  C8_10 
REMARK    5  A    between atoms: C8_10  and  O2_12 
REMARK    6  A    between atoms: C11_14  and  N2_15 
REMARK    7  A    between atoms: C12_16  and  C13_17 
ROOT
HETATM    1  O1  UNL     1      27.031   1.116  51.820  1.00  0.00     0.000 OA
HETATM    2  N1  UNL     1      26.299   2.089  51.318  1.00  0.00    -0.222 NA
HETATM    3  H5  UNL     1      27.088   1.510  50.897  1.00  0.00     0.147 HD
ENDROOT
BRANCH   1   4
HETATM    4  C2  UNL     1      26.967   1.007  53.201  1.00  0.00     0.040 C 
HETATM    5  C1  UNL     1      28.346   1.209  53.815  1.00  0.00     0.017 C 
BRANCH   4   6
HETATM    6  C11 UNL     1      26.461  -0.275  53.682  1.00  0.00     0.008 C 
HETATM    7  C12 UNL     1      25.368  -0.944  53.980  1.00  0.00     0.036 C 
BRANCH   6   8
HETATM    8  N2  UNL     1      27.698  -0.951  53.853  1.00  0.00    -0.402 N 
HETATM    9  H15 UNL     1      28.550  -1.523  54.000  1.00  0.00     0.156 HD
HETATM   10  H16 UNL     1      28.698  -0.607  53.746  1.00  0.00     0.156 HD
ENDBRANCH   6   8
BRANCH   7  11
HETATM   11  C13 UNL     1      23.997  -0.479  53.893  1.00  0.00    -0.034 A 
HETATM   12  C14 UNL     1      22.991  -0.968  54.730  1.00  0.00     0.011 A 
HETATM   13  C15 UNL     1      21.672  -0.589  54.715  1.00  0.00     0.001 A 
HETATM   14  C16 UNL     1      21.352   0.364  53.776  1.00  0.00     0.000 A 
HETATM   15  C17 UNL     1      22.259   0.918  52.899  1.00  0.00     0.001 A 
HETATM   16  C18 UNL     1      23.566   0.483  52.977  1.00  0.00     0.011 A 
ENDBRANCH   7  11
ENDBRANCH   4   6
ENDBRANCH   1   4
BRANCH   2  17
HETATM   17  C3  UNL     1      25.724   3.065  50.488  1.00  0.00     0.023 A 
HETATM   18  C4  UNL     1      24.365   3.090  50.201  1.00  0.00     0.025 A 
HETATM   19  C5  UNL     1      23.866   4.092  49.368  1.00  0.00     0.002 A 
HETATM   20  C6  UNL     1      24.809   4.965  48.916  1.00  0.00     0.010 A 
HETATM   21  C7  UNL     1      26.161   4.977  49.174  1.00  0.00    -0.028 A 
HETATM   22  C10 UNL     1      26.631   3.978  49.999  1.00  0.00     0.034 A 
BRANCH  21  23
HETATM   23  C8  UNL     1      27.037   6.042  48.569  1.00  0.00     0.147 C 
HETATM   24  C9  UNL     1      28.390   5.401  48.352  1.00  0.00     0.044 C 
BRANCH  23  25
HETATM   25  O2  UNL     1      27.196   7.037  49.530  1.00  0.00    -0.391 OA
HETATM   26  H13 UNL     1      26.374   7.548  49.696  1.00  0.00     0.210 HD
ENDBRANCH  23  25
ENDBRANCH  21  23
ENDBRANCH   2  17
TORSDOF 7
ENDMDL
MODEL 6
REMARK VINA RESULT:      -8.2      2.963      5.550
REMARK  7 active torsions:
REMARK  status: ('A' for Active; 'I' for Inactive)
REMARK    1  A    between atoms: C2_2  and  O1_3 
REMARK    2  A    between atoms: C2_2  and  C11_14 
REMARK    3  A    between atoms: N1_4  and  C3_5 
REMARK    4  A    between atoms: C7_9  and  C8_10 
REMARK    5  A    between atoms: C8_10  and  O2_12 
REMARK    6  A    between atoms: C11_14  and  N2_15 
REMARK    7  A    between atoms: C12_16  and  C13_17 
ROOT
HETATM    1  O1  UNL     1      24.066   2.208  50.105  1.00  0.00     0.000 OA
HETATM    2  N1  UNL     1      23.121   1.788  50.921  1.00  0.00    -0.222 NA
HETATM    3  H5  UNL     1      23.383   1.493  49.932  1.00  0.00     0.147 HD
ENDROOT
BRANCH   1   4
HETATM    4  C2  UNL     1      24.641   3.416  50.470  1.00  0.00     0.040 C 
HETATM    5  C1  UNL     1      24.518   4.427  49.337  1.00  0.00     0.017 C 
BRANCH   4   6
HETATM    6  C11 UNL     1      26.054   3.330  50.824  1.00  0.00     0.008 C 
HETATM    7  C12 UNL     1      26.937   2.650  51.524  1.00  0.00     0.036 C 
BRANCH   6   8
HETATM    8  N2  UNL     1      26.538   4.436  50.077  1.00  0.00    -0.402 N 
HETATM    9  H15 UNL     1      26.839   5.300  49.589  1.00  0.00     0.156 HD
HETATM   10  H16 UNL     1      27.194   4.476  49.241  1.00  0.00     0.156 HD
ENDBRANCH   6   8
BRANCH   7  11
HETATM   11  C13 UNL     1      26.695   1.491  52.363  1.00  0.00    -0.034 A 
HETATM   12  C14 UNL     1      26.604   0.200  51.839  1.00  0.00     0.011 A 
HETATM   13  C15 UNL     1      26.375  -0.949  52.556  1.00  0.00     0.001 A 
HETATM   14  C16 UNL     1      26.227  -0.768  53.911  1.00  0.00     0.000 A 
HETATM   15  C17 UNL     1      26.297   0.457  54.538  1.00  0.00     0.001 A 
HETATM   16  C18 UNL     1      26.530   1.563  53.748  1.00  0.00     0.011 A 
ENDBRANCH   7  11
ENDBRANCH   4   6
ENDBRANCH   1   4
BRANCH   2  17
HETATM   17  C3  UNL     1      22.037   1.120  51.512  1.00  0.00     0.023 A 
HETATM   18  C4  UNL     1      20.810   0.983  50.872  1.00  0.00     0.025 A 
HETATM   19  C5  UNL     1      19.779   0.305  51.523  1.00  0.00     0.002 A 
HETATM   20  C6  UNL     1      20.109  -0.164  52.759  1.00  0.00     0.010 A 
HETATM   21  C7  UNL     1      21.307  -0.050  53.427  1.00  0.00    -0.028 A 
HETATM   22  C10 UNL     1      22.311   0.624  52.766  1.00  0.00     0.034 A 
BRANCH  21  23
HETATM   23  C8  UNL     1      21.465  -0.646  54.801  1.00  0.00     0.147 C 
HETATM   24  C9  UNL     1      22.905  -1.098  54.901  1.00  0.00     0.044 C 
BRANCH  23  25
HETATM   25  O2  UNL     1      20.666  -1.786  54.848  1.00  0.00    -0.391 OA
HETATM   26  H13 UNL     1      21.053  -2.505  55.394  1.00  0.00     0.210 HD
ENDBRANCH  23  25
ENDBRANCH  21  23
ENDBRANCH   2  17
TORSDOF 7
ENDMDL
MODEL 7
REMARK VINA RESULT:      -8.0      2.195      6.058
REMARK  7 active torsions:
REMARK  status: ('A' for Active; 'I' for Inactive)
REMARK    1  A    between atoms: C2_2  and  O1_3 
REMARK    2  A    between atoms: C2_2  and  C11_14 
REMARK    3  A    between atoms: N1_4  and  C3_5 
REMARK    4  A    between atoms: C7_9  and  C8_10 
REMARK    5  A    between atoms: C8_10  and  O2_12 
REMARK    6  A    between atoms: C11_14  and  N2_15 
REMARK    7  A    between atoms: C12_16  and  C13_17 
ROOT
HETATM    1  O1  UNL     1      26.715   1.661  50.772  1.00  0.00     0.000 OA
HETATM    2  N1  UNL     1      26.568   2.947  50.526  1.00  0.00    -0.222 NA
HETATM    3  H5  UNL     1      26.766   2.122  49.881  1.00  0.00     0.147 HD
ENDROOT
BRANCH   1   4
HETATM    4  C2  UNL     1      26.925   1.355  52.109  1.00  0.00     0.040 C 
HETATM    5  C1  UNL     1      26.890  -0.153  52.321  1.00  0.00     0.017 C 
BRANCH   4   6
HETATM    6  C11 UNL     1      25.953   1.945  53.023  1.00  0.00     0.008 C 
HETATM    7  C12 UNL     1      24.668   2.054  53.286  1.00  0.00     0.036 C 
BRANCH   6   8
HETATM    8  N2  UNL     1      26.849   2.621  53.893  1.00  0.00    -0.402 N 
HETATM    9  H15 UNL     1      27.447   3.193  54.518  1.00  0.00     0.156 HD
HETATM   10  H16 UNL     1      27.730   2.283  54.383  1.00  0.00     0.156 HD
ENDBRANCH   6   8
BRANCH   7  11
HETATM   11  C13 UNL     1      23.564   1.464  52.552  1.00  0.00    -0.034 A 
HETATM   12  C14 UNL     1      22.807   0.410  53.069  1.00  0.00     0.011 A 
HETATM   13  C15 UNL     1      21.752  -0.207  52.444  1.00  0.00     0.001 A 
HETATM   14  C16 UNL     1      21.443   0.287  51.198  1.00  0.00     0.000 A 
HETATM   15  C17 UNL     1      22.119   1.322  50.590  1.00  0.00     0.001 A 
HETATM   16  C18 UNL     1      23.168   1.890  51.282  1.00  0.00     0.011 A 
ENDBRANCH   7  11
ENDBRANCH   4   6
ENDBRANCH   1   4
BRANCH   2  17
HETATM   17  C3  UNL     1      26.471   4.210  49.921  1.00  0.00     0.023 A 
HETATM   18  C4  UNL     1      27.365   4.638  48.947  1.00  0.00     0.025 A 
HETATM   19  C5  UNL     1      27.204   5.908  48.391  1.00  0.00     0.002 A 
HETATM   20  C6  UNL     1      26.146   6.607  48.888  1.00  0.00     0.010 A 
HETATM   21  C7  UNL     1      25.239   6.222  49.850  1.00  0.00    -0.028 A 
HETATM   22  C10 UNL     1      25.418   4.965  50.385  1.00  0.00     0.034 A 
BRANCH  21  23
HETATM   23  C8  UNL     1      24.131   7.156  50.261  1.00  0.00     0.147 C 
HETATM   24  C9  UNL     1      24.353   8.437  49.489  1.00  0.00     0.044 C 
BRANCH  23  25
HETATM   25  O2  UNL     1      24.318   7.444  51.610  1.00  0.00    -0.391 OA
HETATM   26  H13 UNL     1      23.496   7.355  52.141  1.00  0.00     0.210 HD
ENDBRANCH  23  25
ENDBRANCH  21  23
ENDBRANCH   2  17
TORSDOF 7
ENDMDL
MODEL 8
REMARK VINA RESULT:      -8.0      2.160      5.795
REMARK  7 active torsions:
REMARK  status: ('A' for Active; 'I' for Inactive)
REMARK    1  A    between atoms: C2_2  and  O1_3 
REMARK    2  A    between atoms: C2_2  and  C11_14 
REMARK    3  A    between atoms: N1_4  and  C3_5 
REMARK    4  A    between atoms: C7_9  and  C8_10 
REMARK    5  A    between atoms: C8_10  and  O2_12 
REMARK    6  A    between atoms: C11_14  and  N2_15 
REMARK    7  A    between atoms: C12_16  and  C13_17 
ROOT
HETATM    1  O1  UNL     1      26.527   1.520  50.763  1.00  0.00     0.000 OA
HETATM    2  N1  UNL     1      26.318   2.778  50.434  1.00  0.00    -0.222 NA
HETATM    3  H5  UNL     1      26.473   1.908  49.839  1.00  0.00     0.147 HD
ENDROOT
BRANCH   1   4
HETATM    4  C2  UNL     1      26.883   1.329  52.090  1.00  0.00     0.040 C 
HETATM    5  C1  UNL     1      27.001  -0.159  52.400  1.00  0.00     0.017 C 
BRANCH   4   6
HETATM    6  C11 UNL     1      25.948   1.900  53.054  1.00  0.00     0.008 C 
HETATM    7  C12 UNL     1      24.679   1.966  53.395  1.00  0.00     0.036 C 
BRANCH   6   8
HETATM    8  N2  UNL     1      26.870   2.623  53.856  1.00  0.00    -0.402 N 
HETATM    9  H15 UNL     1      27.476   3.220  54.448  1.00  0.00     0.156 HD
HETATM   10  H16 UNL     1      27.857   2.381  54.170  1.00  0.00     0.156 HD
ENDBRANCH   6   8
BRANCH   7  11
HETATM   11  C13 UNL     1      23.554   1.325  52.741  1.00  0.00    -0.034 A 
HETATM   12  C14 UNL     1      23.062   1.762  51.509  1.00  0.00     0.011 A 
HETATM   13  C15 UNL     1      22.005   1.219  50.823  1.00  0.00     0.001 A 
HETATM   14  C16 UNL     1      21.402   0.146  51.438  1.00  0.00     0.000 A 
HETATM   15  C17 UNL     1      21.801  -0.371  52.651  1.00  0.00     0.001 A 
HETATM   16  C18 UNL     1      22.871   0.231  53.278  1.00  0.00     0.011 A 
ENDBRANCH   7  11
ENDBRANCH   4   6
ENDBRANCH   1   4
BRANCH   2  17
HETATM   17  C3  UNL     1      26.122   3.985  49.745  1.00  0.00     0.023 A 
HETATM   18  C4  UNL     1      24.857   4.516  49.521  1.00  0.00     0.025 A 
HETATM   19  C5  UNL     1      24.742   5.722  48.828  1.00  0.00     0.002 A 
HETATM   20  C6  UNL     1      25.930   6.259  48.436  1.00  0.00     0.010 A 
HETATM   21  C7  UNL     1      27.201   5.768  48.635  1.00  0.00    -0.028 A 
HETATM   22  C10 UNL     1      27.291   4.576  49.322  1.00  0.00     0.034 A 
BRANCH  21  23
HETATM   23  C8  UNL     1      28.394   6.525  48.115  1.00  0.00     0.147 C 
HETATM   24  C9  UNL     1      29.525   5.524  48.034  1.00  0.00     0.044 C 
BRANCH  23  25
HETATM   25  O2  UNL     1      28.738   7.464  49.085  1.00  0.00    -0.391 OA
HETATM   26  H13 UNL     1      28.092   7.509  49.824  1.00  0.00     0.210 HD
ENDBRANCH  23  25
ENDBRANCH  21  23
ENDBRANCH   2  17
TORSDOF 7
ENDMDL
MODEL 9
REMARK VINA RESULT:      -7.9      2.810      4.159
REMARK  7 active torsions:
REMARK  status: ('A' for Active; 'I' for Inactive)
REMARK    1  A    between atoms: C2_2  and  O1_3 
REMARK    2  A    between atoms: C2_2  and  C11_14 
REMARK    3  A    between atoms: N1_4  and  C3_5 
REMARK    4  A    between atoms: C7_9  and  C8_10 
REMARK    5  A    between atoms: C8_10  and  O2_12 
REMARK    6  A    between atoms: C11_14  and  N2_15 
REMARK    7  A    between atoms: C12_16  and  C13_17 
ROOT
HETATM    1  O1  UNL     1      23.612   2.505  51.525  1.00  0.00     0.000 OA
HETATM    2  N1  UNL     1      24.467   1.725  52.153  1.00  0.00    -0.222 NA
HETATM    3  H5  UNL     1      24.126   2.712  52.363  1.00  0.00     0.147 HD
ENDROOT
BRANCH   1   4
HETATM    4  C2  UNL     1      23.313   2.099  50.232  1.00  0.00     0.040 C 
HETATM    5  C1  UNL     1      23.209   3.306  49.307  1.00  0.00     0.017 C 
BRANCH   4   6
HETATM    6  C11 UNL     1      22.069   1.349  50.108  1.00  0.00     0.008 C 
HETATM    7  C12 UNL     1      21.212   0.591  50.760  1.00  0.00     0.036 C 
BRANCH   6   8
HETATM    8  N2  UNL     1      21.785   1.612  48.742  1.00  0.00    -0.402 N 
HETATM    9  H15 UNL     1      21.511   1.736  47.750  1.00  0.00     0.156 HD
HETATM   10  H16 UNL     1      22.222   2.304  48.063  1.00  0.00     0.156 HD
ENDBRANCH   6   8
BRANCH   7  11
HETATM   11  C13 UNL     1      21.278   0.180  52.150  1.00  0.00    -0.034 A 
HETATM   12  C14 UNL     1      21.926  -0.992  52.548  1.00  0.00     0.011 A 
HETATM   13  C15 UNL     1      22.033  -1.458  53.835  1.00  0.00     0.001 A 
HETATM   14  C16 UNL     1      21.435  -0.670  54.791  1.00  0.00     0.000 A 
HETATM   15  C17 UNL     1      20.770   0.505  54.515  1.00  0.00     0.001 A 
HETATM   16  C18 UNL     1      20.705   0.905  53.197  1.00  0.00     0.011 A 
ENDBRANCH   7  11
ENDBRANCH   4   6
ENDBRANCH   1   4
BRANCH   2  17
HETATM   17  C3  UNL     1      25.401   1.179  53.049  1.00  0.00     0.023 A 
HETATM   18  C4  UNL     1      25.033   0.301  54.062  1.00  0.00     0.025 A 
HETATM   19  C5  UNL     1      26.018  -0.201  54.913  1.00  0.00     0.002 A 
HETATM   20  C6  UNL     1      27.276   0.247  54.641  1.00  0.00     0.010 A 
HETATM   21  C7  UNL     1      27.682   1.114  53.652  1.00  0.00    -0.028 A 
HETATM   22  C10 UNL     1      26.693   1.597  52.823  1.00  0.00     0.034 A 
BRANCH  21  23
HETATM   23  C8  UNL     1      29.136   1.484  53.521  1.00  0.00     0.147 C 
HETATM   24  C9  UNL     1      29.914   0.197  53.686  1.00  0.00     0.044 C 
BRANCH  23  25
HETATM   25  O2  UNL     1      29.450   2.302  54.604  1.00  0.00    -0.391 OA
HETATM   26  H13 UNL     1      29.188   1.915  55.468  1.00  0.00     0.210 HD
ENDBRANCH  23  25
ENDBRANCH  21  23
ENDBRANCH   2  17
TORSDOF 7
ENDMDL
