MODEL 1
REMARK VINA RESULT:      -8.1      0.000      0.000
REMARK  8 active torsions:
REMARK  status: ('A' for Active; 'I' for Inactive)
REMARK    1  A    between atoms: C2_2  and  S1_23 
REMARK    2  A    between atoms: C3_3  and  C4_4 
REMARK    3  A    between atoms: C10_10  and  C11_11 
REMARK    4  A    between atoms: C11_11  and  C12_12 
REMARK    5  A    between atoms: C14_14  and  O1_15 
REMARK    6  A    between atoms: S1_23  and  C19_24 
REMARK    7  A    between atoms: C19_24  and  C20_25 
REMARK    8  A    between atoms: C20_25  and  N4_27 
ROOT
HETATM    1  C4  UNL     1      19.002  -0.605  53.190  1.00  0.00     0.028 C 
HETATM    2  C5  UNL     1      19.883   0.083  52.455  1.00  0.00     0.041 C 
HETATM    3  C6  UNL     1      21.207   0.301  53.113  1.00  0.00     0.118 C 
HETATM    4  C7  UNL     1      22.169   0.713  52.068  1.00  0.00     0.049 C 
HETATM    5  C8  UNL     1      23.275   0.630  52.692  1.00  0.00     0.179 A 
HETATM    6  C9  UNL     1      24.614   0.559  53.347  1.00  0.00     0.317 A 
HETATM    7  C10 UNL     1      25.548   0.956  52.441  1.00  0.00     0.157 A 
HETATM    8  N1  UNL     1      24.357   1.042  51.803  1.00  0.00     0.004 N 
HETATM    9  N2  UNL     1      21.654   1.076  50.807  1.00  0.00    -0.352 N 
HETATM   10  C18 UNL     1      20.331   0.976  50.338  1.00  0.00     0.207 C 
HETATM   11  N3  UNL     1      19.471   0.486  51.162  1.00  0.00    -0.248 NA
HETATM   12  H14 UNL     1      24.678   1.409  50.817  1.00  0.00     0.294 HD
HETATM   13  H15 UNL     1      22.381   1.469  50.180  1.00  0.00     0.166 HD
ENDROOT
BRANCH   1  14
HETATM   14  C3  UNL     1      17.657  -0.883  52.651  1.00  0.00     0.017 C 
HETATM   15  C2  UNL     1      17.035  -2.042  52.878  1.00  0.00    -0.014 C 
HETATM   16  C1  UNL     1      17.697  -3.089  53.687  1.00  0.00     0.057 C 
BRANCH  15  17
HETATM   17  S1  UNL     1      15.635  -2.079  52.263  1.00  0.00    -0.055 SA
BRANCH  17  18
HETATM   18  C19 UNL     1      14.471  -2.121  51.731  1.00  0.00    -0.072 C 
BRANCH  18  19
HETATM   19  C20 UNL     1      13.175  -2.155  51.140  1.00  0.00     0.291 C 
HETATM   20  C21 UNL     1      13.077  -3.322  50.171  1.00  0.00     0.056 C 
BRANCH  19  21
HETATM   21  N4  UNL     1      12.154  -2.266  52.174  1.00  0.00     0.093 N 
HETATM   22  H21 UNL     1      12.090  -3.300  52.403  1.00  0.00     0.314 HD
HETATM   23  H22 UNL     1      12.559  -1.845  53.041  1.00  0.00     0.314 HD
ENDBRANCH  19  21
ENDBRANCH  18  19
ENDBRANCH  17  18
ENDBRANCH  15  17
ENDBRANCH   1  14
BRANCH   7  24
HETATM   24  C11 UNL     1      26.944   0.986  52.845  1.00  0.00     0.040 C 
BRANCH  24  25
HETATM   25  C12 UNL     1      27.389  -0.121  52.947  1.00  0.00    -0.059 A 
HETATM   26  C13 UNL     1      28.101  -1.596  53.115  1.00  0.00     0.102 A 
HETATM   27  C14 UNL     1      29.472  -2.350  53.502  1.00  0.00     0.132 A 
HETATM   28  C16 UNL     1      29.215  -0.337  53.488  1.00  0.00    -0.055 A 
HETATM   29  C15 UNL     1      29.341  -1.233  53.497  1.00  0.00    -0.023 A 
HETATM   30  C17 UNL     1      29.012   0.903  53.465  1.00  0.00     0.071 A 
BRANCH  27  31
HETATM   31  O1  UNL     1      28.673  -3.472  53.229  1.00  0.00    -0.380 OA
HETATM   32  H11 UNL     1      28.803  -3.941  52.362  1.00  0.00     0.211 HD
ENDBRANCH  27  31
ENDBRANCH  24  25
ENDBRANCH   7  24
TORSDOF 8
ENDMDL
MODEL 2
REMARK VINA RESULT:      -8.0      3.302      3.956
REMARK  8 active torsions:
REMARK  status: ('A' for Active; 'I' for Inactive)
REMARK    1  A    between atoms: C2_2  and  S1_23 
REMARK    2  A    between atoms: C3_3  and  C4_4 
REMARK    3  A    between atoms: C10_10  and  C11_11 
REMARK    4  A    between atoms: C11_11  and  C12_12 
REMARK    5  A    between atoms: C14_14  and  O1_15 
REMARK    6  A    between atoms: S1_23  and  C19_24 
REMARK    7  A    between atoms: C19_24  and  C20_25 
REMARK    8  A    between atoms: C20_25  and  N4_27 
ROOT
HETATM    1  C4  UNL     1      19.321   3.623  51.564  1.00  0.00     0.028 C 
HETATM    2  C5  UNL     1      19.979   2.482  51.794  1.00  0.00     0.041 C 
HETATM    3  C6  UNL     1      21.452   2.551  51.551  1.00  0.00     0.118 C 
HETATM    4  C7  UNL     1      22.073   1.378  52.201  1.00  0.00     0.049 C 
HETATM    5  C8  UNL     1      23.309   1.676  52.136  1.00  0.00     0.179 A 
HETATM    6  C9  UNL     1      24.777   1.945  52.103  1.00  0.00     0.317 A 
HETATM    7  C10 UNL     1      25.414   0.882  52.665  1.00  0.00     0.157 A 
HETATM    8  N1  UNL     1      24.093   0.588  52.715  1.00  0.00     0.004 N 
HETATM    9  N2  UNL     1      21.224   0.344  52.645  1.00  0.00    -0.352 N 
HETATM   10  C18 UNL     1      19.817   0.320  52.681  1.00  0.00     0.207 C 
HETATM   11  N3  UNL     1      19.219   1.380  52.257  1.00  0.00    -0.248 NA
HETATM   12  H14 UNL     1      24.122  -0.403  53.192  1.00  0.00     0.294 HD
HETATM   13  H15 UNL     1      21.749  -0.488  52.972  1.00  0.00     0.166 HD
ENDROOT
BRANCH   1  14
HETATM   14  C3  UNL     1      17.860   3.681  51.765  1.00  0.00     0.017 C 
HETATM   15  C2  UNL     1      17.029   4.029  50.781  1.00  0.00    -0.014 C 
HETATM   16  C1  UNL     1      17.568   4.374  49.447  1.00  0.00     0.057 C 
BRANCH  15  17
HETATM   17  S1  UNL     1      15.562   3.967  51.211  1.00  0.00    -0.055 SA
BRANCH  17  18
HETATM   18  C19 UNL     1      14.335   3.936  51.575  1.00  0.00    -0.072 C 
BRANCH  18  19
HETATM   19  C20 UNL     1      12.968   3.914  51.975  1.00  0.00     0.291 C 
HETATM   20  C21 UNL     1      12.833   4.442  53.393  1.00  0.00     0.056 C 
BRANCH  19  21
HETATM   21  N4  UNL     1      12.163   4.710  51.057  1.00  0.00     0.093 N 
HETATM   22  H21 UNL     1      12.856   5.198  50.418  1.00  0.00     0.314 HD
HETATM   23  H22 UNL     1      11.675   4.037  50.425  1.00  0.00     0.314 HD
ENDBRANCH  19  21
ENDBRANCH  18  19
ENDBRANCH  17  18
ENDBRANCH  15  17
ENDBRANCH   1  14
BRANCH   7  24
HETATM   24  C11 UNL     1      26.865   0.899  52.741  1.00  0.00     0.040 C 
BRANCH  24  25
HETATM   25  C12 UNL     1      27.305  -0.209  52.857  1.00  0.00    -0.059 A 
HETATM   26  C13 UNL     1      28.011  -1.685  53.046  1.00  0.00     0.102 A 
HETATM   27  C14 UNL     1      29.380  -2.440  53.436  1.00  0.00     0.132 A 
HETATM   28  C16 UNL     1      29.134  -0.425  53.390  1.00  0.00    -0.055 A 
HETATM   29  C15 UNL     1      29.255  -1.322  53.413  1.00  0.00    -0.023 A 
HETATM   30  C17 UNL     1      28.937   0.815  53.349  1.00  0.00     0.071 A 
BRANCH  27  31
HETATM   31  O1  UNL     1      28.574  -3.562  53.186  1.00  0.00    -0.380 OA
HETATM   32  H11 UNL     1      28.037  -3.931  53.938  1.00  0.00     0.211 HD
ENDBRANCH  27  31
ENDBRANCH  24  25
ENDBRANCH   7  24
TORSDOF 8
ENDMDL
MODEL 3
REMARK VINA RESULT:      -7.9      7.092     11.941
REMARK  8 active torsions:
REMARK  status: ('A' for Active; 'I' for Inactive)
REMARK    1  A    between atoms: C2_2  and  S1_23 
REMARK    2  A    between atoms: C3_3  and  C4_4 
REMARK    3  A    between atoms: C10_10  and  C11_11 
REMARK    4  A    between atoms: C11_11  and  C12_12 
REMARK    5  A    between atoms: C14_14  and  O1_15 
REMARK    6  A    between atoms: S1_23  and  C19_24 
REMARK    7  A    between atoms: C19_24  and  C20_25 
REMARK    8  A    between atoms: C20_25  and  N4_27 
ROOT
HETATM    1  C4  UNL     1      27.133   5.800  48.581  1.00  0.00     0.028 C 
HETATM    2  C5  UNL     1      26.050   5.796  49.366  1.00  0.00     0.041 C 
HETATM    3  C6  UNL     1      25.342   4.482  49.443  1.00  0.00     0.118 C 
HETATM    4  C7  UNL     1      24.435   4.525  50.610  1.00  0.00     0.049 C 
HETATM    5  C8  UNL     1      24.088   3.304  50.708  1.00  0.00     0.179 A 
HETATM    6  C9  UNL     1      23.630   1.896  50.897  1.00  0.00     0.317 A 
HETATM    7  C10 UNL     1      22.763   1.870  51.945  1.00  0.00     0.157 A 
HETATM    8  N1  UNL     1      23.144   3.163  51.813  1.00  0.00     0.004 N 
HETATM    9  N2  UNL     1      24.200   5.776  51.216  1.00  0.00    -0.352 N 
HETATM   10  C18 UNL     1      24.824   7.009  50.950  1.00  0.00     0.207 C 
HETATM   11  N3  UNL     1      25.732   7.002  50.036  1.00  0.00    -0.248 NA
HETATM   12  H14 UNL     1      22.567   3.631  52.625  1.00  0.00     0.294 HD
HETATM   13  H15 UNL     1      23.461   5.733  51.941  1.00  0.00     0.166 HD
ENDROOT
BRANCH   1  14
HETATM   14  C3  UNL     1      27.917   7.040  48.421  1.00  0.00     0.017 C 
HETATM   15  C2  UNL     1      29.230   7.016  48.187  1.00  0.00    -0.014 C 
HETATM   16  C1  UNL     1      29.937   5.721  48.085  1.00  0.00     0.057 C 
BRANCH  15  17
HETATM   17  S1  UNL     1      29.814   8.418  48.007  1.00  0.00    -0.055 SA
BRANCH  17  18
HETATM   18  C19 UNL     1      30.322   9.586  47.866  1.00  0.00    -0.072 C 
BRANCH  18  19
HETATM   19  C20 UNL     1      30.894  10.879  47.701  1.00  0.00     0.291 C 
HETATM   20  C21 UNL     1      30.688  11.703  48.961  1.00  0.00     0.056 C 
BRANCH  19  21
HETATM   21  N4  UNL     1      32.315  10.765  47.394  1.00  0.00     0.093 N 
HETATM   22  H21 UNL     1      32.591  11.696  46.968  1.00  0.00     0.314 HD
HETATM   23  H22 UNL     1      32.818  10.751  48.310  1.00  0.00     0.314 HD
ENDBRANCH  19  21
ENDBRANCH  18  19
ENDBRANCH  17  18
ENDBRANCH  15  17
ENDBRANCH   1  14
BRANCH   7  24
HETATM   24  C11 UNL     1      22.163   0.602  52.324  1.00  0.00     0.040 C 
BRANCH  24  25
HETATM   25  C12 UNL     1      22.805   0.057  53.176  1.00  0.00    -0.059 A 
HETATM   26  C13 UNL     1      23.588  -0.725  54.395  1.00  0.00     0.102 A 
HETATM   27  C14 UNL     1      23.382  -1.619  55.720  1.00  0.00     0.132 A 
HETATM   28  C16 UNL     1      21.882  -0.904  54.554  1.00  0.00    -0.055 A 
HETATM   29  C15 UNL     1      22.543  -1.228  55.081  1.00  0.00    -0.023 A 
HETATM   30  C17 UNL     1      20.986  -0.442  53.804  1.00  0.00     0.071 A 
BRANCH  27  31
HETATM   31  O1  UNL     1      24.784  -1.554  55.714  1.00  0.00    -0.380 OA
HETATM   32  H11 UNL     1      25.285  -2.158  56.326  1.00  0.00     0.211 HD
ENDBRANCH  27  31
ENDBRANCH  24  25
ENDBRANCH   7  24
TORSDOF 8
ENDMDL
MODEL 4
REMARK VINA RESULT:      -7.9      7.515     12.140
REMARK  8 active torsions:
REMARK  status: ('A' for Active; 'I' for Inactive)
REMARK    1  A    between atoms: C2_2  and  S1_23 
REMARK    2  A    between atoms: C3_3  and  C4_4 
REMARK    3  A    between atoms: C10_10  and  C11_11 
REMARK    4  A    between atoms: C11_11  and  C12_12 
REMARK    5  A    between atoms: C14_14  and  O1_15 
REMARK    6  A    between atoms: S1_23  and  C19_24 
REMARK    7  A    between atoms: C19_24  and  C20_25 
REMARK    8  A    between atoms: C20_25  and  N4_27 
ROOT
HETATM    1  C4  UNL     1      28.241   5.611  48.227  1.00  0.00     0.028 C 
HETATM    2  C5  UNL     1      27.119   5.421  48.928  1.00  0.00     0.041 C 
HETATM    3  C6  UNL     1      26.881   4.009  49.354  1.00  0.00     0.118 C 
HETATM    4  C7  UNL     1      25.851   4.023  50.415  1.00  0.00     0.049 C 
HETATM    5  C8  UNL     1      25.917   2.829  50.850  1.00  0.00     0.179 A 
HETATM    6  C9  UNL     1      25.928   1.450  51.422  1.00  0.00     0.317 A 
HETATM    7  C10 UNL     1      24.975   1.387  52.391  1.00  0.00     0.157 A 
HETATM    8  N1  UNL     1      24.922   2.650  51.904  1.00  0.00     0.004 N 
HETATM    9  N2  UNL     1      25.131   5.218  50.617  1.00  0.00    -0.352 N 
HETATM   10  C18 UNL     1      25.344   6.479  50.030  1.00  0.00     0.207 C 
HETATM   11  N3  UNL     1      26.325   6.563  49.200  1.00  0.00    -0.248 NA
HETATM   12  H14 UNL     1      24.111   3.072  52.516  1.00  0.00     0.294 HD
HETATM   13  H15 UNL     1      24.349   5.102  51.288  1.00  0.00     0.166 HD
ENDROOT
BRANCH   1  14
HETATM   14  C3  UNL     1      28.586   6.963  47.746  1.00  0.00     0.017 C 
HETATM   15  C2  UNL     1      29.782   7.507  47.977  1.00  0.00    -0.014 C 
HETATM   16  C1  UNL     1      30.802   6.751  48.736  1.00  0.00     0.057 C 
BRANCH  15  17
HETATM   17  S1  UNL     1      29.923   8.891  47.340  1.00  0.00    -0.055 SA
BRANCH  17  18
HETATM   18  C19 UNL     1      30.021  10.048  46.801  1.00  0.00    -0.072 C 
BRANCH  18  19
HETATM   19  C20 UNL     1      30.121  11.332  46.192  1.00  0.00     0.291 C 
HETATM   20  C21 UNL     1      28.743  11.963  46.082  1.00  0.00     0.056 C 
BRANCH  19  21
HETATM   21  N4  UNL     1      31.012  12.187  46.967  1.00  0.00     0.093 N 
HETATM   22  H21 UNL     1      31.994  11.934  46.654  1.00  0.00     0.314 HD
HETATM   23  H22 UNL     1      30.881  13.159  46.608  1.00  0.00     0.314 HD
ENDBRANCH  19  21
ENDBRANCH  18  19
ENDBRANCH  17  18
ENDBRANCH  15  17
ENDBRANCH   1  14
BRANCH   7  24
HETATM   24  C11 UNL     1      24.779   0.132  53.097  1.00  0.00     0.040 C 
BRANCH  24  25
HETATM   25  C12 UNL     1      23.614  -0.112  53.231  1.00  0.00    -0.059 A 
HETATM   26  C13 UNL     1      22.040  -0.505  53.511  1.00  0.00     0.102 A 
HETATM   27  C14 UNL     1      21.041  -1.260  54.525  1.00  0.00     0.132 A 
HETATM   28  C16 UNL     1      23.052  -1.117  54.763  1.00  0.00    -0.055 A 
HETATM   29  C15 UNL     1      22.155  -1.188  54.667  1.00  0.00    -0.023 A 
HETATM   30  C17 UNL     1      24.299  -1.005  54.870  1.00  0.00     0.071 A 
BRANCH  27  31
HETATM   31  O1  UNL     1      20.102  -0.821  53.578  1.00  0.00    -0.380 OA
HETATM   32  H11 UNL     1      19.972  -1.369  52.757  1.00  0.00     0.211 HD
ENDBRANCH  27  31
ENDBRANCH  24  25
ENDBRANCH   7  24
TORSDOF 8
ENDMDL
MODEL 5
REMARK VINA RESULT:      -7.8      5.945     12.155
REMARK  8 active torsions:
REMARK  status: ('A' for Active; 'I' for Inactive)
REMARK    1  A    between atoms: C2_2  and  S1_23 
REMARK    2  A    between atoms: C3_3  and  C4_4 
REMARK    3  A    between atoms: C10_10  and  C11_11 
REMARK    4  A    between atoms: C11_11  and  C12_12 
REMARK    5  A    between atoms: C14_14  and  O1_15 
REMARK    6  A    between atoms: S1_23  and  C19_24 
REMARK    7  A    between atoms: C19_24  and  C20_25 
REMARK    8  A    between atoms: C20_25  and  N4_27 
ROOT
HETATM    1  C4  UNL     1      26.376   4.864  48.895  1.00  0.00     0.028 C 
HETATM    2  C5  UNL     1      25.906   3.977  49.779  1.00  0.00     0.041 C 
HETATM    3  C6  UNL     1      24.415   3.915  49.867  1.00  0.00     0.118 C 
HETATM    4  C7  UNL     1      24.055   2.663  50.567  1.00  0.00     0.049 C 
HETATM    5  C8  UNL     1      22.800   2.610  50.364  1.00  0.00     0.179 A 
HETATM    6  C9  UNL     1      21.326   2.467  50.173  1.00  0.00     0.317 A 
HETATM    7  C10 UNL     1      20.923   1.342  50.823  1.00  0.00     0.157 A 
HETATM    8  N1  UNL     1      22.259   1.427  51.029  1.00  0.00     0.004 N 
HETATM    9  N2  UNL     1      25.083   1.958  51.225  1.00  0.00    -0.352 N 
HETATM   10  C18 UNL     1      26.469   2.204  51.202  1.00  0.00     0.207 C 
HETATM   11  N3  UNL     1      26.858   3.203  50.487  1.00  0.00    -0.248 NA
HETATM   12  H14 UNL     1      22.428   0.534  51.648  1.00  0.00     0.294 HD
HETATM   13  H15 UNL     1      24.723   1.167  51.790  1.00  0.00     0.166 HD
ENDROOT
BRANCH   1  14
HETATM   14  C3  UNL     1      27.833   5.021  48.719  1.00  0.00     0.017 C 
HETATM   15  C2  UNL     1      28.363   6.132  48.204  1.00  0.00    -0.014 C 
HETATM   16  C1  UNL     1      27.481   7.245  47.789  1.00  0.00     0.057 C 
BRANCH  15  17
HETATM   17  S1  UNL     1      29.891   6.084  48.167  1.00  0.00    -0.055 SA
BRANCH  17  18
HETATM   18  C19 UNL     1      31.170   6.022  48.142  1.00  0.00    -0.072 C 
BRANCH  18  19
HETATM   19  C20 UNL     1      32.592   5.944  48.121  1.00  0.00     0.291 C 
HETATM   20  C21 UNL     1      33.190   7.213  48.704  1.00  0.00     0.056 C 
BRANCH  19  21
HETATM   21  N4  UNL     1      33.042   4.778  48.871  1.00  0.00     0.093 N 
HETATM   22  H21 UNL     1      32.430   4.742  49.737  1.00  0.00     0.314 HD
HETATM   23  H22 UNL     1      32.747   3.938  48.324  1.00  0.00     0.314 HD
ENDBRANCH  19  21
ENDBRANCH  18  19
ENDBRANCH  17  18
ENDBRANCH  15  17
ENDBRANCH   1  14
BRANCH   7  24
HETATM   24  C11 UNL     1      19.514   0.988  50.796  1.00  0.00     0.040 C 
BRANCH  24  25
HETATM   25  C12 UNL     1      19.249   0.199  51.658  1.00  0.00    -0.059 A 
HETATM   26  C13 UNL     1      18.779  -0.889  52.800  1.00  0.00     0.102 A 
HETATM   27  C14 UNL     1      17.544  -1.779  53.329  1.00  0.00     0.132 A 
HETATM   28  C16 UNL     1      17.479  -0.532  51.728  1.00  0.00    -0.055 A 
HETATM   29  C15 UNL     1      17.497  -1.091  52.440  1.00  0.00    -0.023 A 
HETATM   30  C17 UNL     1      17.484   0.250  50.746  1.00  0.00     0.071 A 
BRANCH  27  31
HETATM   31  O1  UNL     1      18.511  -2.162  54.273  1.00  0.00    -0.380 OA
HETATM   32  H11 UNL     1      18.232  -2.241  55.224  1.00  0.00     0.211 HD
ENDBRANCH  27  31
ENDBRANCH  24  25
ENDBRANCH   7  24
TORSDOF 8
ENDMDL
MODEL 6
REMARK VINA RESULT:      -7.8      5.576     11.659
REMARK  8 active torsions:
REMARK  status: ('A' for Active; 'I' for Inactive)
REMARK    1  A    between atoms: C2_2  and  S1_23 
REMARK    2  A    between atoms: C3_3  and  C4_4 
REMARK    3  A    between atoms: C10_10  and  C11_11 
REMARK    4  A    between atoms: C11_11  and  C12_12 
REMARK    5  A    between atoms: C14_14  and  O1_15 
REMARK    6  A    between atoms: S1_23  and  C19_24 
REMARK    7  A    between atoms: C19_24  and  C20_25 
REMARK    8  A    between atoms: C20_25  and  N4_27 
ROOT
HETATM    1  C4  UNL     1      22.791   0.725  52.251  1.00  0.00     0.028 C 
HETATM    2  C5  UNL     1      22.177   1.888  52.009  1.00  0.00     0.041 C 
HETATM    3  C6  UNL     1      20.794   1.760  51.459  1.00  0.00     0.118 C 
HETATM    4  C7  UNL     1      20.124   3.070  51.610  1.00  0.00     0.049 C 
HETATM    5  C8  UNL     1      18.917   2.771  51.342  1.00  0.00     0.179 A 
HETATM    6  C9  UNL     1      17.478   2.509  51.043  1.00  0.00     0.317 A 
HETATM    7  C10 UNL     1      16.805   3.688  51.137  1.00  0.00     0.157 A 
HETATM    8  N1  UNL     1      18.099   3.979  51.411  1.00  0.00     0.004 N 
HETATM    9  N2  UNL     1      20.923   4.183  51.945  1.00  0.00    -0.352 N 
HETATM   10  C18 UNL     1      22.284   4.209  52.299  1.00  0.00     0.207 C 
HETATM   11  N3  UNL     1      22.889   3.072  52.324  1.00  0.00    -0.248 NA
HETATM   12  H14 UNL     1      18.033   5.063  51.586  1.00  0.00     0.294 HD
HETATM   13  H15 UNL     1      20.396   5.075  51.907  1.00  0.00     0.166 HD
ENDROOT
BRANCH   1  14
HETATM   14  C3  UNL     1      24.164   0.719  52.793  1.00  0.00     0.017 C 
HETATM   15  C2  UNL     1      24.512  -0.065  53.815  1.00  0.00    -0.014 C 
HETATM   16  C1  UNL     1      23.508  -0.956  54.437  1.00  0.00     0.057 C 
BRANCH  15  17
HETATM   17  S1  UNL     1      25.995   0.064  54.167  1.00  0.00    -0.055 SA
BRANCH  17  18
HETATM   18  C19 UNL     1      27.242   0.170  54.440  1.00  0.00    -0.072 C 
BRANCH  18  19
HETATM   19  C20 UNL     1      28.629   0.276  54.745  1.00  0.00     0.291 C 
HETATM   20  C21 UNL     1      29.440  -0.561  53.770  1.00  0.00     0.056 C 
BRANCH  19  21
HETATM   21  N4  UNL     1      29.050   1.670  54.691  1.00  0.00     0.093 N 
HETATM   22  H21 UNL     1      28.182   2.240  54.910  1.00  0.00     0.314 HD
HETATM   23  H22 UNL     1      29.666   1.829  55.520  1.00  0.00     0.314 HD
ENDBRANCH  19  21
ENDBRANCH  18  19
ENDBRANCH  17  18
ENDBRANCH  15  17
ENDBRANCH   1  14
BRANCH   7  24
HETATM   24  C11 UNL     1      15.376   3.699  50.876  1.00  0.00     0.040 C 
BRANCH  24  25
HETATM   25  C12 UNL     1      14.751   3.806  51.893  1.00  0.00    -0.059 A 
HETATM   26  C13 UNL     1      13.804   3.991  53.227  1.00  0.00     0.102 A 
HETATM   27  C14 UNL     1      12.337   4.415  53.741  1.00  0.00     0.132 A 
HETATM   28  C16 UNL     1      12.930   4.397  51.799  1.00  0.00    -0.055 A 
HETATM   29  C15 UNL     1      12.655   4.409  52.661  1.00  0.00    -0.023 A 
HETATM   30  C17 UNL     1      13.340   4.371  50.612  1.00  0.00     0.071 A 
BRANCH  27  31
HETATM   31  O1  UNL     1      12.926   4.116  54.980  1.00  0.00    -0.380 OA
HETATM   32  H11 UNL     1      13.404   4.845  55.460  1.00  0.00     0.211 HD
ENDBRANCH  27  31
ENDBRANCH  24  25
ENDBRANCH   7  24
TORSDOF 8
ENDMDL
MODEL 7
REMARK VINA RESULT:      -7.8      4.260     11.380
REMARK  8 active torsions:
REMARK  status: ('A' for Active; 'I' for Inactive)
REMARK    1  A    between atoms: C2_2  and  S1_23 
REMARK    2  A    between atoms: C3_3  and  C4_4 
REMARK    3  A    between atoms: C10_10  and  C11_11 
REMARK    4  A    between atoms: C11_11  and  C12_12 
REMARK    5  A    between atoms: C14_14  and  O1_15 
REMARK    6  A    between atoms: S1_23  and  C19_24 
REMARK    7  A    between atoms: C19_24  and  C20_25 
REMARK    8  A    between atoms: C20_25  and  N4_27 
ROOT
HETATM    1  C4  UNL     1      22.961   0.891  52.616  1.00  0.00     0.028 C 
HETATM    2  C5  UNL     1      22.072   0.180  53.319  1.00  0.00     0.041 C 
HETATM    3  C6  UNL     1      20.658   0.316  52.855  1.00  0.00     0.118 C 
HETATM    4  C7  UNL     1      19.878  -0.789  53.451  1.00  0.00     0.049 C 
HETATM    5  C8  UNL     1      18.786  -0.709  52.803  1.00  0.00     0.179 A 
HETATM    6  C9  UNL     1      17.474  -0.687  52.091  1.00  0.00     0.317 A 
HETATM    7  C10 UNL     1      16.691  -1.668  52.617  1.00  0.00     0.157 A 
HETATM    8  N1  UNL     1      17.862  -1.727  53.296  1.00  0.00     0.004 N 
HETATM    9  N2  UNL     1      20.478  -1.535  54.486  1.00  0.00    -0.352 N 
HETATM   10  C18 UNL     1      21.801  -1.468  54.960  1.00  0.00     0.207 C 
HETATM   11  N3  UNL     1      22.573  -0.618  54.377  1.00  0.00    -0.248 NA
HETATM   12  H14 UNL     1      17.655  -2.555  53.990  1.00  0.00     0.294 HD
HETATM   13  H15 UNL     1      19.819  -2.202  54.928  1.00  0.00     0.166 HD
ENDROOT
BRANCH   1  14
HETATM   14  C3  UNL     1      24.390   0.842  52.981  1.00  0.00     0.017 C 
HETATM   15  C2  UNL     1      25.088   1.950  53.239  1.00  0.00    -0.014 C 
HETATM   16  C1  UNL     1      24.428   3.272  53.159  1.00  0.00     0.057 C 
BRANCH  15  17
HETATM   17  S1  UNL     1      26.531   1.647  53.643  1.00  0.00    -0.055 SA
BRANCH  17  18
HETATM   18  C19 UNL     1      27.733   1.388  54.001  1.00  0.00    -0.072 C 
BRANCH  18  19
HETATM   19  C20 UNL     1      29.065   1.092  54.409  1.00  0.00     0.291 C 
HETATM   20  C21 UNL     1      29.692   0.093  53.449  1.00  0.00     0.056 C 
BRANCH  19  21
HETATM   21  N4  UNL     1      29.858   2.314  54.460  1.00  0.00     0.093 N 
HETATM   22  H21 UNL     1      30.313   2.320  55.418  1.00  0.00     0.314 HD
HETATM   23  H22 UNL     1      30.660   2.178  53.805  1.00  0.00     0.314 HD
ENDBRANCH  19  21
ENDBRANCH  18  19
ENDBRANCH  17  18
ENDBRANCH  15  17
ENDBRANCH   1  14
BRANCH   7  24
HETATM   24  C11 UNL     1      15.347  -1.844  52.095  1.00  0.00     0.040 C 
BRANCH  24  25
HETATM   25  C12 UNL     1      14.968  -2.970  52.244  1.00  0.00    -0.059 A 
HETATM   26  C13 UNL     1      14.418  -4.519  52.338  1.00  0.00     0.102 A 
HETATM   27  C14 UNL     1      13.762  -5.728  51.498  1.00  0.00     0.132 A 
HETATM   28  C16 UNL     1      14.249  -3.910  50.736  1.00  0.00    -0.055 A 
HETATM   29  C15 UNL     1      14.028  -4.724  51.065  1.00  0.00    -0.023 A 
HETATM   30  C17 UNL     1      14.565  -2.772  50.307  1.00  0.00     0.071 A 
BRANCH  27  31
HETATM   31  O1  UNL     1      13.842  -6.351  52.753  1.00  0.00    -0.380 OA
HETATM   32  H11 UNL     1      13.114  -6.178  53.410  1.00  0.00     0.211 HD
ENDBRANCH  27  31
ENDBRANCH  24  25
ENDBRANCH   7  24
TORSDOF 8
ENDMDL
MODEL 8
REMARK VINA RESULT:      -7.7      4.704     11.632
REMARK  8 active torsions:
REMARK  status: ('A' for Active; 'I' for Inactive)
REMARK    1  A    between atoms: C2_2  and  S1_23 
REMARK    2  A    between atoms: C3_3  and  C4_4 
REMARK    3  A    between atoms: C10_10  and  C11_11 
REMARK    4  A    between atoms: C11_11  and  C12_12 
REMARK    5  A    between atoms: C14_14  and  O1_15 
REMARK    6  A    between atoms: S1_23  and  C19_24 
REMARK    7  A    between atoms: C19_24  and  C20_25 
REMARK    8  A    between atoms: C20_25  and  N4_27 
ROOT
HETATM    1  C4  UNL     1      23.122   0.576  52.438  1.00  0.00     0.028 C 
HETATM    2  C5  UNL     1      22.143   0.008  53.150  1.00  0.00     0.041 C 
HETATM    3  C6  UNL     1      20.761   0.380  52.719  1.00  0.00     0.118 C 
HETATM    4  C7  UNL     1      19.823  -0.593  53.318  1.00  0.00     0.049 C 
HETATM    5  C8  UNL     1      18.746  -0.325  52.695  1.00  0.00     0.179 A 
HETATM    6  C9  UNL     1      17.441  -0.077  52.014  1.00  0.00     0.317 A 
HETATM    7  C10 UNL     1      16.520  -0.927  52.543  1.00  0.00     0.157 A 
HETATM    8  N1  UNL     1      17.678  -1.187  53.195  1.00  0.00     0.004 N 
HETATM    9  N2  UNL     1      20.314  -1.445  54.329  1.00  0.00    -0.352 N 
HETATM   10  C18 UNL     1      21.639  -1.602  54.775  1.00  0.00     0.207 C 
HETATM   11  N3  UNL     1      22.528  -0.879  54.186  1.00  0.00    -0.248 NA
HETATM   12  H14 UNL     1      17.353  -1.982  53.882  1.00  0.00     0.294 HD
HETATM   13  H15 UNL     1      19.563  -2.003  54.776  1.00  0.00     0.166 HD
ENDROOT
BRANCH   1  14
HETATM   14  C3  UNL     1      24.531   0.289  52.769  1.00  0.00     0.017 C 
HETATM   15  C2  UNL     1      25.354   1.238  53.219  1.00  0.00    -0.014 C 
HETATM   16  C1  UNL     1      24.859   2.622  53.392  1.00  0.00     0.057 C 
BRANCH  15  17
HETATM   17  S1  UNL     1      26.746   0.694  53.542  1.00  0.00    -0.055 SA
BRANCH  17  18
HETATM   18  C19 UNL     1      27.921   0.252  53.798  1.00  0.00    -0.072 C 
BRANCH  18  19
HETATM   19  C20 UNL     1      29.231  -0.230  54.077  1.00  0.00     0.291 C 
HETATM   20  C21 UNL     1      29.425  -1.602  53.453  1.00  0.00     0.056 C 
BRANCH  19  21
HETATM   21  N4  UNL     1      30.229   0.705  53.570  1.00  0.00     0.093 N 
HETATM   22  H21 UNL     1      31.077   0.584  54.194  1.00  0.00     0.314 HD
HETATM   23  H22 UNL     1      30.545   0.332  52.646  1.00  0.00     0.314 HD
ENDBRANCH  19  21
ENDBRANCH  18  19
ENDBRANCH  17  18
ENDBRANCH  15  17
ENDBRANCH   1  14
BRANCH   7  24
HETATM   24  C11 UNL     1      15.154  -0.872  52.049  1.00  0.00     0.040 C 
BRANCH  24  25
HETATM   25  C12 UNL     1      14.469  -0.179  52.745  1.00  0.00    -0.059 A 
HETATM   26  C13 UNL     1      13.483   0.820  53.606  1.00  0.00     0.102 A 
HETATM   27  C14 UNL     1      12.345   1.955  53.488  1.00  0.00     0.132 A 
HETATM   28  C16 UNL     1      13.238   1.034  51.915  1.00  0.00    -0.055 A 
HETATM   29  C15 UNL     1      12.834   1.451  52.609  1.00  0.00    -0.023 A 
HETATM   30  C17 UNL     1      13.817   0.439  50.971  1.00  0.00     0.071 A 
BRANCH  27  31
HETATM   31  O1  UNL     1      12.441   1.884  54.887  1.00  0.00    -0.380 OA
HETATM   32  H11 UNL     1      12.607   0.995  55.302  1.00  0.00     0.211 HD
ENDBRANCH  27  31
ENDBRANCH  24  25
ENDBRANCH   7  24
TORSDOF 8
ENDMDL
MODEL 9
REMARK VINA RESULT:      -7.6      6.531      7.923
REMARK  8 active torsions:
REMARK  status: ('A' for Active; 'I' for Inactive)
REMARK    1  A    between atoms: C2_2  and  S1_23 
REMARK    2  A    between atoms: C3_3  and  C4_4 
REMARK    3  A    between atoms: C10_10  and  C11_11 
REMARK    4  A    between atoms: C11_11  and  C12_12 
REMARK    5  A    between atoms: C14_14  and  O1_15 
REMARK    6  A    between atoms: S1_23  and  C19_24 
REMARK    7  A    between atoms: C19_24  and  C20_25 
REMARK    8  A    between atoms: C20_25  and  N4_27 
ROOT
HETATM    1  C4  UNL     1      23.537   1.544  50.780  1.00  0.00     0.028 C 
HETATM    2  C5  UNL     1      23.957   2.794  51.000  1.00  0.00     0.041 C 
HETATM    3  C6  UNL     1      25.234   3.153  50.310  1.00  0.00     0.118 C 
HETATM    4  C7  UNL     1      25.357   4.627  50.326  1.00  0.00     0.049 C 
HETATM    5  C8  UNL     1      26.324   4.810  49.519  1.00  0.00     0.179 A 
HETATM    6  C9  UNL     1      27.450   5.116  48.587  1.00  0.00     0.317 A 
HETATM    7  C10 UNL     1      27.636   6.463  48.578  1.00  0.00     0.157 A 
HETATM    8  N1  UNL     1      26.613   6.239  49.437  1.00  0.00     0.004 N 
HETATM    9  N2  UNL     1      24.484   5.352  51.162  1.00  0.00    -0.352 N 
HETATM   10  C18 UNL     1      23.389   4.877  51.907  1.00  0.00     0.207 C 
HETATM   11  N3  UNL     1      23.144   3.615  51.818  1.00  0.00    -0.248 NA
HETATM   12  H14 UNL     1      26.386   7.266  49.757  1.00  0.00     0.294 HD
HETATM   13  H15 UNL     1      24.722   6.360  51.206  1.00  0.00     0.166 HD
ENDROOT
BRANCH   1  14
HETATM   14  C3  UNL     1      22.290   1.068  51.409  1.00  0.00     0.017 C 
HETATM   15  C2  UNL     1      21.199   0.800  50.690  1.00  0.00    -0.014 C 
HETATM   16  C1  UNL     1      21.219   0.982  49.222  1.00  0.00     0.057 C 
BRANCH  15  17
HETATM   17  S1  UNL     1      20.050   0.274  51.552  1.00  0.00    -0.055 SA
BRANCH  17  18
HETATM   18  C19 UNL     1      19.088  -0.147  52.286  1.00  0.00    -0.072 C 
BRANCH  18  19
HETATM   19  C20 UNL     1      18.010  -0.613  53.092  1.00  0.00     0.291 C 
HETATM   20  C21 UNL     1      16.804  -0.917  52.220  1.00  0.00     0.056 C 
BRANCH  19  21
HETATM   21  N4  UNL     1      18.415  -1.802  53.833  1.00  0.00     0.093 N 
HETATM   22  H21 UNL     1      19.471  -1.848  53.744  1.00  0.00     0.314 HD
HETATM   23  H22 UNL     1      18.260  -1.591  54.844  1.00  0.00     0.314 HD
ENDBRANCH  19  21
ENDBRANCH  18  19
ENDBRANCH  17  18
ENDBRANCH  15  17
ENDBRANCH   1  14
BRANCH   7  24
HETATM   24  C11 UNL     1      28.694   7.016  47.748  1.00  0.00     0.040 C 
BRANCH  24  25
HETATM   25  C12 UNL     1      29.139   8.020  48.226  1.00  0.00    -0.059 A 
HETATM   26  C13 UNL     1      29.841   9.389  48.812  1.00  0.00     0.102 A 
HETATM   27  C14 UNL     1      31.104  10.379  48.662  1.00  0.00     0.132 A 
HETATM   28  C16 UNL     1      30.789   8.716  47.541  1.00  0.00    -0.055 A 
HETATM   29  C15 UNL     1      30.939   9.459  48.035  1.00  0.00    -0.023 A 
HETATM   30  C17 UNL     1      30.554   7.679  46.872  1.00  0.00     0.071 A 
BRANCH  27  31
HETATM   31  O1  UNL     1      30.434  11.035  49.707  1.00  0.00    -0.380 OA
HETATM   32  H11 UNL     1      30.763  11.931  49.986  1.00  0.00     0.211 HD
ENDBRANCH  27  31
ENDBRANCH  24  25
ENDBRANCH   7  24
TORSDOF 8
ENDMDL
