MODEL 1
REMARK VINA RESULT:      -8.3      0.000      0.000
REMARK  5 active torsions:
REMARK  status: ('A' for Active; 'I' for Inactive)
REMARK    1  A    between atoms: C5_5  and  N1_6 
REMARK    2  A    between atoms: N1_6  and  C6_7 
REMARK    3  A    between atoms: C8_9  and  O1_10 
REMARK    4  A    between atoms: O1_10  and  C9_11 
REMARK    5  A    between atoms: C9_11  and  O2_12 
ROOT
HETATM    1  C6  UNL     1      25.796   0.897  52.917  1.00  0.00     0.151 C 
HETATM    2  C7  UNL     1      25.524  -0.386  53.750  1.00  0.00     0.068 C 
HETATM    3  C8  UNL     1      26.808  -0.498  54.145  1.00  0.00     0.105 C 
HETATM    4  C10 UNL     1      27.629  -0.907  52.974  1.00  0.00     0.098 C 
HETATM    5  C11 UNL     1      26.864  -1.058  51.873  1.00  0.00     0.017 C 
HETATM    6  C12 UNL     1      26.227   0.286  51.568  1.00  0.00     0.090 C 
HETATM    7  O3  UNL     1      28.564  -0.788  54.045  1.00  0.00    -0.344 OA
HETATM    8  C13 UNL     1      29.577   0.220  53.905  1.00  0.00     0.222 C 
HETATM    9  C14 UNL     1      29.163   1.350  54.803  1.00  0.00     0.117 C 
HETATM   10  N2  UNL     1      28.353   2.298  54.349  1.00  0.00    -0.256 NA
HETATM   11  C15 UNL     1      27.900   2.190  52.980  1.00  0.00     0.229 C 
HETATM   12  N3  UNL     1      26.946   1.547  53.435  1.00  0.00    -0.247 NA
ENDROOT
BRANCH   1  13
HETATM   13  N1  UNL     1      24.606   1.628  52.887  1.00  0.00    -0.359 N 
HETATM   14  H6  UNL     1      24.649   2.647  53.204  1.00  0.00     0.162 HD
BRANCH  13  15
HETATM   15  C5  UNL     1      23.289   1.279  52.503  1.00  0.00     0.031 A 
HETATM   16  C4  UNL     1      22.301   0.872  53.372  1.00  0.00     0.030 A 
HETATM   17  C3  UNL     1      21.013   0.514  53.053  1.00  0.00     0.011 A 
HETATM   18  C2  UNL     1      20.673   0.569  51.724  1.00  0.00    -0.040 A 
HETATM   19  C1  UNL     1      19.309   0.203  51.276  1.00  0.00     0.050 C 
HETATM   20  C17 UNL     1      21.583   0.962  50.777  1.00  0.00     0.042 A 
HETATM   21  C16 UNL     1      22.845   1.298  51.198  1.00  0.00     0.053 A 
HETATM   22 CL1  UNL     1      21.143   1.027  49.099  1.00  0.00    -0.084 Cl
ENDBRANCH  13  15
ENDBRANCH   1  13
BRANCH   3  23
HETATM   23  O1  UNL     1      26.290  -0.118  55.401  1.00  0.00    -0.324 OA
BRANCH  23  24
HETATM   24  C9  UNL     1      25.136  -0.881  55.795  1.00  0.00     0.341 C 
BRANCH  24  25
HETATM   25  O2  UNL     1      25.250  -1.324  57.083  1.00  0.00    -0.377 OA
HETATM   26  H10 UNL     1      25.875  -2.078  57.232  1.00  0.00     0.212 HD
ENDBRANCH  24  25
ENDBRANCH  23  24
ENDBRANCH   3  23
TORSDOF 5
ENDMDL
MODEL 2
REMARK VINA RESULT:      -8.3      1.707      1.948
REMARK  5 active torsions:
REMARK  status: ('A' for Active; 'I' for Inactive)
REMARK    1  A    between atoms: C5_5  and  N1_6 
REMARK    2  A    between atoms: N1_6  and  C6_7 
REMARK    3  A    between atoms: C8_9  and  O1_10 
REMARK    4  A    between atoms: O1_10  and  C9_11 
REMARK    5  A    between atoms: C9_11  and  O2_12 
ROOT
HETATM    1  C6  UNL     1      26.112   1.761  53.224  1.00  0.00     0.151 C 
HETATM    2  C7  UNL     1      25.402   0.444  53.645  1.00  0.00     0.068 C 
HETATM    3  C8  UNL     1      26.562  -0.194  53.900  1.00  0.00     0.105 C 
HETATM    4  C10 UNL     1      27.246  -0.465  52.606  1.00  0.00     0.098 C 
HETATM    5  C11 UNL     1      26.516  -0.012  51.566  1.00  0.00     0.017 C 
HETATM    6  C12 UNL     1      26.369   1.490  51.727  1.00  0.00     0.090 C 
HETATM    7  O3  UNL     1      28.127  -0.992  53.597  1.00  0.00    -0.344 OA
HETATM    8  C13 UNL     1      29.420  -0.376  53.701  1.00  0.00     0.222 C 
HETATM    9  C14 UNL     1      29.367   0.492  54.926  1.00  0.00     0.117 C 
HETATM   10  N2  UNL     1      28.932   1.742  54.837  1.00  0.00    -0.256 NA
HETATM   11  C15 UNL     1      28.520   2.215  53.534  1.00  0.00     0.229 C 
HETATM   12  N3  UNL     1      27.391   1.809  53.835  1.00  0.00    -0.247 NA
ENDROOT
BRANCH   1  13
HETATM   13  N1  UNL     1      25.231   2.809  53.497  1.00  0.00    -0.359 N 
HETATM   14  H6  UNL     1      25.525   3.514  54.245  1.00  0.00     0.162 HD
BRANCH  13  15
HETATM   15  C5  UNL     1      23.966   3.147  52.962  1.00  0.00     0.031 A 
HETATM   16  C4  UNL     1      23.515   4.435  52.770  1.00  0.00     0.030 A 
HETATM   17  C3  UNL     1      22.296   4.819  52.264  1.00  0.00     0.011 A 
HETATM   18  C2  UNL     1      21.434   3.811  51.911  1.00  0.00    -0.040 A 
HETATM   19  C1  UNL     1      20.095   4.120  51.357  1.00  0.00     0.050 C 
HETATM   20  C17 UNL     1      21.785   2.494  52.062  1.00  0.00     0.042 A 
HETATM   21  C16 UNL     1      23.025   2.215  52.577  1.00  0.00     0.053 A 
HETATM   22 CL1  UNL     1      20.687   1.227  51.613  1.00  0.00    -0.084 Cl
ENDBRANCH  13  15
ENDBRANCH   1  13
BRANCH   3  23
HETATM   23  O1  UNL     1      26.150  -0.075  55.243  1.00  0.00    -0.324 OA
BRANCH  23  24
HETATM   24  C9  UNL     1      25.047  -0.934  55.579  1.00  0.00     0.341 C 
BRANCH  24  25
HETATM   25  O2  UNL     1      25.135  -1.371  56.871  1.00  0.00    -0.377 OA
HETATM   26  H10 UNL     1      25.599  -2.235  57.009  1.00  0.00     0.212 HD
ENDBRANCH  24  25
ENDBRANCH  23  24
ENDBRANCH   3  23
TORSDOF 5
ENDMDL
MODEL 3
REMARK VINA RESULT:      -8.1      4.196      6.948
REMARK  5 active torsions:
REMARK  status: ('A' for Active; 'I' for Inactive)
REMARK    1  A    between atoms: C5_5  and  N1_6 
REMARK    2  A    between atoms: N1_6  and  C6_7 
REMARK    3  A    between atoms: C8_9  and  O1_10 
REMARK    4  A    between atoms: O1_10  and  C9_11 
REMARK    5  A    between atoms: C9_11  and  O2_12 
ROOT
HETATM    1  C6  UNL     1      24.666   3.228  51.610  1.00  0.00     0.151 C 
HETATM    2  C7  UNL     1      25.598   3.029  50.382  1.00  0.00     0.068 C 
HETATM    3  C8  UNL     1      25.000   4.004  49.669  1.00  0.00     0.105 C 
HETATM    4  C10 UNL     1      23.647   3.533  49.267  1.00  0.00     0.098 C 
HETATM    5  C11 UNL     1      23.415   2.282  49.714  1.00  0.00     0.017 C 
HETATM    6  C12 UNL     1      23.482   2.315  51.231  1.00  0.00     0.090 C 
HETATM    7  O3  UNL     1      23.743   4.852  48.732  1.00  0.00    -0.344 OA
HETATM    8  C13 UNL     1      22.821   5.824  49.247  1.00  0.00     0.222 C 
HETATM    9  C14 UNL     1      23.612   6.687  50.187  1.00  0.00     0.117 C 
HETATM   10  N2  UNL     1      23.741   6.339  51.461  1.00  0.00    -0.256 NA
HETATM   11  C15 UNL     1      23.097   5.116  51.887  1.00  0.00     0.229 C 
HETATM   12  N3  UNL     1      24.158   4.553  51.592  1.00  0.00    -0.247 NA
ENDROOT
BRANCH   1  13
HETATM   13  N1  UNL     1      25.385   2.833  52.740  1.00  0.00    -0.359 N 
HETATM   14  H6  UNL     1      25.135   3.300  53.668  1.00  0.00     0.162 HD
BRANCH  13  15
HETATM   15  C5  UNL     1      26.428   1.893  52.920  1.00  0.00     0.031 A 
HETATM   16  C4  UNL     1      27.707   2.208  53.321  1.00  0.00     0.030 A 
HETATM   17  C3  UNL     1      28.757   1.340  53.501  1.00  0.00     0.011 A 
HETATM   18  C2  UNL     1      28.503   0.013  53.256  1.00  0.00    -0.040 A 
HETATM   19  C1  UNL     1      29.568  -1.003  53.421  1.00  0.00     0.050 C 
HETATM   20  C17 UNL     1      27.262  -0.407  52.852  1.00  0.00     0.042 A 
HETATM   21  C16 UNL     1      26.281   0.539  52.700  1.00  0.00     0.053 A 
HETATM   22 CL1  UNL     1      26.953  -2.087  52.544  1.00  0.00    -0.084 Cl
ENDBRANCH  13  15
ENDBRANCH   1  13
BRANCH   3  23
HETATM   23  O1  UNL     1      26.206   4.697  49.902  1.00  0.00    -0.324 OA
BRANCH  23  24
HETATM   24  C9  UNL     1      27.236   4.384  48.947  1.00  0.00     0.341 C 
BRANCH  24  25
HETATM   25  O2  UNL     1      28.380   5.084  49.206  1.00  0.00    -0.377 OA
HETATM   26  H10 UNL     1      29.132   4.566  49.590  1.00  0.00     0.212 HD
ENDBRANCH  24  25
ENDBRANCH  23  24
ENDBRANCH   3  23
TORSDOF 5
ENDMDL
MODEL 4
REMARK VINA RESULT:      -7.8      3.766      6.724
REMARK  5 active torsions:
REMARK  status: ('A' for Active; 'I' for Inactive)
REMARK    1  A    between atoms: C5_5  and  N1_6 
REMARK    2  A    between atoms: N1_6  and  C6_7 
REMARK    3  A    between atoms: C8_9  and  O1_10 
REMARK    4  A    between atoms: O1_10  and  C9_11 
REMARK    5  A    between atoms: C9_11  and  O2_12 
ROOT
HETATM    1  C6  UNL     1      23.216   1.988  51.677  1.00  0.00     0.151 C 
HETATM    2  C7  UNL     1      24.259   2.129  50.534  1.00  0.00     0.068 C 
HETATM    3  C8  UNL     1      23.705   3.262  50.060  1.00  0.00     0.105 C 
HETATM    4  C10 UNL     1      22.405   2.922  49.421  1.00  0.00     0.098 C 
HETATM    5  C11 UNL     1      22.163   1.597  49.488  1.00  0.00     0.017 C 
HETATM    6  C12 UNL     1      22.092   1.215  50.956  1.00  0.00     0.090 C 
HETATM    7  O3  UNL     1      22.518   4.336  49.276  1.00  0.00    -0.344 OA
HETATM    8  C13 UNL     1      21.531   5.134  49.947  1.00  0.00     0.222 C 
HETATM    9  C14 UNL     1      22.214   5.706  51.157  1.00  0.00     0.117 C 
HETATM   10  N2  UNL     1      22.235   5.023  52.294  1.00  0.00    -0.256 NA
HETATM   11  C15 UNL     1      21.585   3.731  52.309  1.00  0.00     0.229 C 
HETATM   12  N3  UNL     1      22.681   3.268  51.973  1.00  0.00    -0.247 NA
ENDROOT
BRANCH   1  13
HETATM   13  N1  UNL     1      23.839   1.297  52.719  1.00  0.00    -0.359 N 
HETATM   14  H6  UNL     1      23.231   1.012  53.550  1.00  0.00     0.162 HD
BRANCH  13  15
HETATM   15  C5  UNL     1      25.176   0.875  52.910  1.00  0.00     0.031 A 
HETATM   16  C4  UNL     1      25.601  -0.434  52.852  1.00  0.00     0.030 A 
HETATM   17  C3  UNL     1      26.880  -0.899  53.039  1.00  0.00     0.011 A 
HETATM   18  C2  UNL     1      27.840   0.042  53.312  1.00  0.00    -0.040 A 
HETATM   19  C1  UNL     1      29.251  -0.356  53.530  1.00  0.00     0.050 C 
HETATM   20  C17 UNL     1      27.523   1.374  53.392  1.00  0.00     0.042 A 
HETATM   21  C16 UNL     1      26.216   1.737  53.190  1.00  0.00     0.053 A 
HETATM   22 CL1  UNL     1      28.746   2.557  53.739  1.00  0.00    -0.084 Cl
ENDBRANCH  13  15
ENDBRANCH   1  13
BRANCH   3  23
HETATM   23  O1  UNL     1      24.869   3.863  50.583  1.00  0.00    -0.324 OA
BRANCH  23  24
HETATM   24  C9  UNL     1      26.039   3.631  49.780  1.00  0.00     0.341 C 
BRANCH  24  25
HETATM   25  O2  UNL     1      27.182   3.817  50.505  1.00  0.00    -0.377 OA
HETATM   26  H10 UNL     1      27.926   3.190  50.318  1.00  0.00     0.212 HD
ENDBRANCH  24  25
ENDBRANCH  23  24
ENDBRANCH   3  23
TORSDOF 5
ENDMDL
MODEL 5
REMARK VINA RESULT:      -7.7      3.186      6.498
REMARK  5 active torsions:
REMARK  status: ('A' for Active; 'I' for Inactive)
REMARK    1  A    between atoms: C5_5  and  N1_6 
REMARK    2  A    between atoms: N1_6  and  C6_7 
REMARK    3  A    between atoms: C8_9  and  O1_10 
REMARK    4  A    between atoms: O1_10  and  C9_11 
REMARK    5  A    between atoms: C9_11  and  O2_12 
ROOT
HETATM    1  C6  UNL     1      24.251   2.787  51.269  1.00  0.00     0.151 C 
HETATM    2  C7  UNL     1      23.874   2.314  52.700  1.00  0.00     0.068 C 
HETATM    3  C8  UNL     1      22.573   2.148  52.389  1.00  0.00     0.105 C 
HETATM    4  C10 UNL     1      21.957   3.489  52.199  1.00  0.00     0.098 C 
HETATM    5  C11 UNL     1      22.860   4.471  52.402  1.00  0.00     0.017 C 
HETATM    6  C12 UNL     1      23.965   4.300  51.375  1.00  0.00     0.090 C 
HETATM    7  O3  UNL     1      20.896   2.568  51.954  1.00  0.00    -0.344 OA
HETATM    8  C13 UNL     1      20.344   2.562  50.628  1.00  0.00     0.222 C 
HETATM    9  C14 UNL     1      20.894   1.337  49.956  1.00  0.00     0.117 C 
HETATM   10  N2  UNL     1      22.057   1.393  49.321  1.00  0.00    -0.256 NA
HETATM   11  C15 UNL     1      22.752   2.661  49.310  1.00  0.00     0.229 C 
HETATM   12  N3  UNL     1      23.301   2.275  50.349  1.00  0.00    -0.247 NA
ENDROOT
BRANCH   1  13
HETATM   13  N1  UNL     1      25.590   2.448  51.064  1.00  0.00    -0.359 N 
HETATM   14  H6  UNL     1      26.059   2.818  50.177  1.00  0.00     0.162 HD
BRANCH  13  15
HETATM   15  C5  UNL     1      26.501   1.678  51.826  1.00  0.00     0.031 A 
HETATM   16  C4  UNL     1      27.531   2.198  52.577  1.00  0.00     0.030 A 
HETATM   17  C3  UNL     1      28.447   1.498  53.325  1.00  0.00     0.011 A 
HETATM   18  C2  UNL     1      28.321   0.132  53.325  1.00  0.00    -0.040 A 
HETATM   19  C1  UNL     1      29.259  -0.714  54.100  1.00  0.00     0.050 C 
HETATM   20  C17 UNL     1      27.329  -0.488  52.611  1.00  0.00     0.042 A 
HETATM   21  C16 UNL     1      26.464   0.301  51.894  1.00  0.00     0.053 A 
HETATM   22 CL1  UNL     1      27.179  -2.217  52.618  1.00  0.00    -0.084 Cl
ENDBRANCH  13  15
ENDBRANCH   1  13
BRANCH   3  23
HETATM   23  O1  UNL     1      22.882   0.777  52.506  1.00  0.00    -0.324 OA
BRANCH  23  24
HETATM   24  C9  UNL     1      22.388   0.183  53.720  1.00  0.00     0.341 C 
BRANCH  24  25
HETATM   25  O2  UNL     1      21.030   0.307  53.814  1.00  0.00    -0.377 OA
HETATM   26  H10 UNL     1      20.579  -0.309  54.445  1.00  0.00     0.212 HD
ENDBRANCH  24  25
ENDBRANCH  23  24
ENDBRANCH   3  23
TORSDOF 5
ENDMDL
MODEL 6
REMARK VINA RESULT:      -7.5      5.095      7.216
REMARK  5 active torsions:
REMARK  status: ('A' for Active; 'I' for Inactive)
REMARK    1  A    between atoms: C5_5  and  N1_6 
REMARK    2  A    between atoms: N1_6  and  C6_7 
REMARK    3  A    between atoms: C8_9  and  O1_10 
REMARK    4  A    between atoms: O1_10  and  C9_11 
REMARK    5  A    between atoms: C9_11  and  O2_12 
ROOT
HETATM    1  C6  UNL     1      24.326   4.613  50.730  1.00  0.00     0.151 C 
HETATM    2  C7  UNL     1      25.325   4.317  49.577  1.00  0.00     0.068 C 
HETATM    3  C8  UNL     1      25.033   5.459  48.923  1.00  0.00     0.105 C 
HETATM    4  C10 UNL     1      23.664   5.340  48.352  1.00  0.00     0.098 C 
HETATM    5  C11 UNL     1      23.120   4.138  48.637  1.00  0.00     0.017 C 
HETATM    6  C12 UNL     1      23.023   4.025  50.148  1.00  0.00     0.090 C 
HETATM    7  O3  UNL     1      24.099   6.644  47.974  1.00  0.00    -0.344 OA
HETATM    8  C13 UNL     1      23.355   7.751  48.507  1.00  0.00     0.222 C 
HETATM    9  C14 UNL     1      24.202   8.330  49.603  1.00  0.00     0.117 C 
HETATM   10  N2  UNL     1      24.110   7.853  50.837  1.00  0.00    -0.256 NA
HETATM   11  C15 UNL     1      23.176   6.773  51.068  1.00  0.00     0.229 C 
HETATM   12  N3  UNL     1      24.118   6.014  50.810  1.00  0.00    -0.247 NA
ENDROOT
BRANCH   1  13
HETATM   13  N1  UNL     1      24.812   3.970  51.870  1.00  0.00    -0.359 N 
HETATM   14  H6  UNL     1      24.901   4.554  52.761  1.00  0.00     0.162 HD
BRANCH  13  15
HETATM   15  C5  UNL     1      25.232   2.639  52.102  1.00  0.00     0.031 A 
HETATM   16  C4  UNL     1      26.480   2.145  51.792  1.00  0.00     0.030 A 
HETATM   17  C3  UNL     1      26.935   0.863  51.987  1.00  0.00     0.011 A 
HETATM   18  C2  UNL     1      26.051  -0.022  52.551  1.00  0.00    -0.040 A 
HETATM   19  C1  UNL     1      26.444  -1.428  52.802  1.00  0.00     0.050 C 
HETATM   20  C17 UNL     1      24.783   0.368  52.897  1.00  0.00     0.042 A 
HETATM   21  C16 UNL     1      24.424   1.671  52.661  1.00  0.00     0.053 A 
HETATM   22 CL1  UNL     1      23.672  -0.760  53.610  1.00  0.00    -0.084 Cl
ENDBRANCH  13  15
ENDBRANCH   1  13
BRANCH   3  23
HETATM   23  O1  UNL     1      26.325   5.841  49.337  1.00  0.00    -0.324 OA
BRANCH  23  24
HETATM   24  C9  UNL     1      27.374   5.231  48.565  1.00  0.00     0.341 C 
BRANCH  24  25
HETATM   25  O2  UNL     1      28.573   5.297  49.218  1.00  0.00    -0.377 OA
HETATM   26  H10 UNL     1      29.345   4.881  48.758  1.00  0.00     0.212 HD
ENDBRANCH  24  25
ENDBRANCH  23  24
ENDBRANCH   3  23
TORSDOF 5
ENDMDL
MODEL 7
REMARK VINA RESULT:      -7.4      4.178      7.240
REMARK  5 active torsions:
REMARK  status: ('A' for Active; 'I' for Inactive)
REMARK    1  A    between atoms: C5_5  and  N1_6 
REMARK    2  A    between atoms: N1_6  and  C6_7 
REMARK    3  A    between atoms: C8_9  and  O1_10 
REMARK    4  A    between atoms: O1_10  and  C9_11 
REMARK    5  A    between atoms: C9_11  and  O2_12 
ROOT
HETATM    1  C6  UNL     1      22.942   2.415  51.972  1.00  0.00     0.151 C 
HETATM    2  C7  UNL     1      23.568   3.703  51.371  1.00  0.00     0.068 C 
HETATM    3  C8  UNL     1      22.393   4.139  50.875  1.00  0.00     0.105 C 
HETATM    4  C10 UNL     1      22.011   3.268  49.730  1.00  0.00     0.098 C 
HETATM    5  C11 UNL     1      22.941   2.314  49.513  1.00  0.00     0.017 C 
HETATM    6  C12 UNL     1      23.021   1.458  50.764  1.00  0.00     0.090 C 
HETATM    7  O3  UNL     1      20.947   4.211  49.836  1.00  0.00    -0.344 OA
HETATM    8  C13 UNL     1      19.651   3.685  50.160  1.00  0.00     0.222 C 
HETATM    9  C14 UNL     1      19.419   4.015  51.606  1.00  0.00     0.117 C 
HETATM   10  N2  UNL     1      19.840   3.186  52.553  1.00  0.00    -0.256 NA
HETATM   11  C15 UNL     1      20.516   1.978  52.132  1.00  0.00     0.229 C 
HETATM   12  N3  UNL     1      21.560   2.638  52.201  1.00  0.00    -0.247 NA
ENDROOT
BRANCH   1  13
HETATM   13  N1  UNL     1      23.723   2.052  53.072  1.00  0.00    -0.359 N 
HETATM   14  H6  UNL     1      23.333   2.270  54.043  1.00  0.00     0.162 HD
BRANCH  13  15
HETATM   15  C5  UNL     1      24.986   1.423  53.171  1.00  0.00     0.031 A 
HETATM   16  C4  UNL     1      25.192   0.062  53.105  1.00  0.00     0.030 A 
HETATM   17  C3  UNL     1      26.393  -0.600  53.204  1.00  0.00     0.011 A 
HETATM   18  C2  UNL     1      27.508   0.178  53.388  1.00  0.00    -0.040 A 
HETATM   19  C1  UNL     1      28.849  -0.438  53.507  1.00  0.00     0.050 C 
HETATM   20  C17 UNL     1      27.413   1.544  53.467  1.00  0.00     0.042 A 
HETATM   21  C16 UNL     1      26.168   2.109  53.357  1.00  0.00     0.053 A 
HETATM   22 CL1  UNL     1      28.831   2.519  53.700  1.00  0.00    -0.084 Cl
ENDBRANCH  13  15
ENDBRANCH   1  13
BRANCH   3  23
HETATM   23  O1  UNL     1      22.501   5.106  51.895  1.00  0.00    -0.324 OA
BRANCH  23  24
HETATM   24  C9  UNL     1      23.564   6.050  51.675  1.00  0.00     0.341 C 
BRANCH  24  25
HETATM   25  O2  UNL     1      23.074   7.272  51.311  1.00  0.00    -0.377 OA
HETATM   26  H10 UNL     1      22.863   7.390  50.351  1.00  0.00     0.212 HD
ENDBRANCH  24  25
ENDBRANCH  23  24
ENDBRANCH   3  23
TORSDOF 5
ENDMDL
MODEL 8
REMARK VINA RESULT:      -7.3      4.418      7.108
REMARK  5 active torsions:
REMARK  status: ('A' for Active; 'I' for Inactive)
REMARK    1  A    between atoms: C5_5  and  N1_6 
REMARK    2  A    between atoms: N1_6  and  C6_7 
REMARK    3  A    between atoms: C8_9  and  O1_10 
REMARK    4  A    between atoms: O1_10  and  C9_11 
REMARK    5  A    between atoms: C9_11  and  O2_12 
ROOT
HETATM    1  C6  UNL     1      23.493   4.523  51.333  1.00  0.00     0.151 C 
HETATM    2  C7  UNL     1      22.226   4.442  52.229  1.00  0.00     0.068 C 
HETATM    3  C8  UNL     1      21.391   4.336  51.177  1.00  0.00     0.105 C 
HETATM    4  C10 UNL     1      21.344   5.649  50.477  1.00  0.00     0.098 C 
HETATM    5  C11 UNL     1      22.129   6.557  51.093  1.00  0.00     0.017 C 
HETATM    6  C12 UNL     1      23.555   6.038  51.048  1.00  0.00     0.090 C 
HETATM    7  O3  UNL     1      20.479   4.805  49.719  1.00  0.00    -0.344 OA
HETATM    8  C13 UNL     1      20.866   4.540  48.362  1.00  0.00     0.222 C 
HETATM    9  C14 UNL     1      21.415   3.142  48.354  1.00  0.00     0.117 C 
HETATM   10  N2  UNL     1      22.698   2.930  48.616  1.00  0.00    -0.256 NA
HETATM   11  C15 UNL     1      23.521   4.084  48.902  1.00  0.00     0.229 C 
HETATM   12  N3  UNL     1      23.216   3.903  50.088  1.00  0.00    -0.247 NA
ENDROOT
BRANCH   1  13
HETATM   13  N1  UNL     1      24.558   4.013  52.080  1.00  0.00    -0.359 N 
HETATM   14  H6  UNL     1      25.110   4.704  52.680  1.00  0.00     0.162 HD
BRANCH  13  15
HETATM   15  C5  UNL     1      25.082   2.706  52.213  1.00  0.00     0.031 A 
HETATM   16  C4  UNL     1      26.213   2.246  51.576  1.00  0.00     0.030 A 
HETATM   17  C3  UNL     1      26.759   0.987  51.663  1.00  0.00     0.011 A 
HETATM   18  C2  UNL     1      26.108   0.092  52.473  1.00  0.00    -0.040 A 
HETATM   19  C1  UNL     1      26.615  -1.291  52.635  1.00  0.00     0.050 C 
HETATM   20  C17 UNL     1      24.972   0.449  53.153  1.00  0.00     0.042 A 
HETATM   21  C16 UNL     1      24.506   1.730  52.999  1.00  0.00     0.053 A 
HETATM   22 CL1  UNL     1      24.156  -0.693  54.176  1.00  0.00    -0.084 Cl
ENDBRANCH  13  15
ENDBRANCH   1  13
BRANCH   3  23
HETATM   23  O1  UNL     1      21.242   3.009  51.629  1.00  0.00    -0.324 OA
BRANCH  23  24
HETATM   24  C9  UNL     1      20.129   2.833  52.523  1.00  0.00     0.341 C 
BRANCH  24  25
HETATM   25  O2  UNL     1      19.003   3.436  52.038  1.00  0.00    -0.377 OA
HETATM   26  H10 UNL     1      18.142   3.110  52.400  1.00  0.00     0.212 HD
ENDBRANCH  24  25
ENDBRANCH  23  24
ENDBRANCH   3  23
TORSDOF 5
ENDMDL
MODEL 9
REMARK VINA RESULT:      -7.2      4.663      6.837
REMARK  5 active torsions:
REMARK  status: ('A' for Active; 'I' for Inactive)
REMARK    1  A    between atoms: C5_5  and  N1_6 
REMARK    2  A    between atoms: N1_6  and  C6_7 
REMARK    3  A    between atoms: C8_9  and  O1_10 
REMARK    4  A    between atoms: O1_10  and  C9_11 
REMARK    5  A    between atoms: C9_11  and  O2_12 
ROOT
HETATM    1  C6  UNL     1      23.406   3.056  50.150  1.00  0.00     0.151 C 
HETATM    2  C7  UNL     1      24.513   3.705  49.274  1.00  0.00     0.068 C 
HETATM    3  C8  UNL     1      23.849   4.873  49.160  1.00  0.00     0.105 C 
HETATM    4  C10 UNL     1      22.667   4.661  48.280  1.00  0.00     0.098 C 
HETATM    5  C11 UNL     1      22.607   3.385  47.846  1.00  0.00     0.017 C 
HETATM    6  C12 UNL     1      22.465   2.492  49.066  1.00  0.00     0.090 C 
HETATM    7  O3  UNL     1      22.596   6.036  48.655  1.00  0.00    -0.344 OA
HETATM    8  C13 UNL     1      21.454   6.433  49.430  1.00  0.00     0.222 C 
HETATM    9  C14 UNL     1      21.946   6.591  50.840  1.00  0.00     0.117 C 
HETATM   10  N2  UNL     1      21.965   5.547  51.659  1.00  0.00    -0.256 NA
HETATM   11  C15 UNL     1      21.501   4.280  51.137  1.00  0.00     0.229 C 
HETATM   12  N3  UNL     1      22.675   4.082  50.804  1.00  0.00    -0.247 NA
ENDROOT
BRANCH   1  13
HETATM   13  N1  UNL     1      24.028   2.100  50.955  1.00  0.00    -0.359 N 
HETATM   14  H6  UNL     1      25.092   2.025  50.895  1.00  0.00     0.162 HD
BRANCH  13  15
HETATM   15  C5  UNL     1      23.514   1.162  51.882  1.00  0.00     0.031 A 
HETATM   16  C4  UNL     1      22.211   0.716  51.907  1.00  0.00     0.030 A 
HETATM   17  C3  UNL     1      21.659  -0.183  52.787  1.00  0.00     0.011 A 
HETATM   18  C2  UNL     1      22.497  -0.694  53.746  1.00  0.00    -0.040 A 
HETATM   19  C1  UNL     1      22.000  -1.671  54.743  1.00  0.00     0.050 C 
HETATM   20  C17 UNL     1      23.813  -0.316  53.810  1.00  0.00     0.042 A 
HETATM   21  C16 UNL     1      24.268   0.589  52.885  1.00  0.00     0.053 A 
HETATM   22 CL1  UNL     1      24.864  -0.969  55.028  1.00  0.00    -0.084 Cl
ENDBRANCH  13  15
ENDBRANCH   1  13
BRANCH   3  23
HETATM   23  O1  UNL     1      24.869   5.355  50.006  1.00  0.00    -0.324 OA
BRANCH  23  24
HETATM   24  C9  UNL     1      26.151   5.444  49.358  1.00  0.00     0.341 C 
BRANCH  24  25
HETATM   25  O2  UNL     1      26.808   6.587  49.716  1.00  0.00    -0.377 OA
HETATM   26  H10 UNL     1      26.827   6.796  50.684  1.00  0.00     0.212 HD
ENDBRANCH  24  25
ENDBRANCH  23  24
ENDBRANCH   3  23
TORSDOF 5
ENDMDL
