MODEL 1
REMARK VINA RESULT:      -8.0      0.000      0.000
REMARK  4 active torsions:
REMARK  status: ('A' for Active; 'I' for Inactive)
REMARK    1  A    between atoms: C2_2  and  C3_4 
REMARK    2  A    between atoms: C8_9  and  C9_10 
REMARK    3  A    between atoms: C9_10  and  C10_11 
REMARK    4  A    between atoms: C11_12  and  C12_13 
ROOT
HETATM    1  C3  UNL     1      23.445   0.031  53.660  1.00  0.00     0.106 C 
HETATM    2  C4  UNL     1      22.531   0.840  52.961  1.00  0.00     0.037 C 
HETATM    3  C5  UNL     1      22.865   2.001  52.036  1.00  0.00     0.027 C 
HETATM    4  C6  UNL     1      24.080   2.642  52.089  1.00  0.00     0.013 C 
HETATM    5  C7  UNL     1      24.747   3.137  50.853  1.00  0.00     0.093 C 
HETATM    6  C8  UNL     1      26.255   2.836  50.828  1.00  0.00     0.090 C 
HETATM    7  N1  UNL     1      27.226   2.168  51.640  1.00  0.00    -0.270 NA
HETATM    8  C14 UNL     1      26.638   1.026  52.422  1.00  0.00     0.117 A 
HETATM    9  C15 UNL     1      26.779  -0.390  52.503  1.00  0.00     0.174 A 
HETATM   10  N2  UNL     1      25.660  -0.935  53.150  1.00  0.00    -0.175 NA
HETATM   11  N3  UNL     1      24.906   0.148  53.427  1.00  0.00    -0.212 N 
HETATM   12  C16 UNL     1      25.405   1.392  53.059  1.00  0.00     0.160 A 
HETATM   13  N4  UNL     1      24.832   2.760  53.362  1.00  0.00    -0.342 N 
HETATM   14  H15 UNL     1      25.040   3.394  54.262  1.00  0.00     0.167 HD
ENDROOT
BRANCH   6  15
HETATM   15  C9  UNL     1      26.672   3.491  49.518  1.00  0.00     0.063 C 
BRANCH  15  16
HETATM   16  C10 UNL     1      26.094   4.827  49.394  1.00  0.00    -0.024 C 
HETATM   17  C11 UNL     1      26.600   5.917  48.846  1.00  0.00    -0.003 C 
BRANCH  17  18
HETATM   18  C12 UNL     1      27.902   5.936  48.246  1.00  0.00     0.011 C 
HETATM   19  C13 UNL     1      28.430   7.068  47.810  1.00  0.00     0.217 C 
HETATM   20 CL1  UNL     1      30.000   7.209  47.066  1.00  0.00    -0.230 Cl
ENDBRANCH  17  18
ENDBRANCH  15  16
ENDBRANCH   6  15
BRANCH   1  21
HETATM   21  C2  UNL     1      23.001  -0.958  54.511  1.00  0.00     0.174 C 
HETATM   22  C1  UNL     1      21.760  -1.651  54.119  1.00  0.00     0.098 C 
HETATM   23  O1  UNL     1      23.675  -1.174  55.515  1.00  0.00    -0.291 OA
ENDBRANCH   1  21
TORSDOF 4
ENDMDL
MODEL 2
REMARK VINA RESULT:      -7.8      3.792      5.767
REMARK  4 active torsions:
REMARK  status: ('A' for Active; 'I' for Inactive)
REMARK    1  A    between atoms: C2_2  and  C3_4 
REMARK    2  A    between atoms: C8_9  and  C9_10 
REMARK    3  A    between atoms: C9_10  and  C10_11 
REMARK    4  A    between atoms: C11_12  and  C12_13 
ROOT
HETATM    1  C3  UNL     1      27.367   0.869  53.981  1.00  0.00     0.106 C 
HETATM    2  C4  UNL     1      27.101   2.101  53.355  1.00  0.00     0.037 C 
HETATM    3  C5  UNL     1      25.784   2.540  52.731  1.00  0.00     0.027 C 
HETATM    4  C6  UNL     1      24.822   1.632  52.359  1.00  0.00     0.013 C 
HETATM    5  C7  UNL     1      23.372   1.934  52.520  1.00  0.00     0.093 C 
HETATM    6  C8  UNL     1      22.574   0.745  53.083  1.00  0.00     0.090 C 
HETATM    7  N1  UNL     1      22.823  -0.585  53.549  1.00  0.00    -0.270 NA
HETATM    8  C14 UNL     1      24.187  -0.737  54.163  1.00  0.00     0.117 A 
HETATM    9  C15 UNL     1      24.751  -1.050  55.433  1.00  0.00     0.174 A 
HETATM   10  N2  UNL     1      26.093  -0.640  55.464  1.00  0.00    -0.175 NA
HETATM   11  N3  UNL     1      26.281  -0.109  54.239  1.00  0.00    -0.212 N 
HETATM   12  C16 UNL     1      25.208  -0.134  53.354  1.00  0.00     0.160 A 
HETATM   13  N4  UNL     1      25.186   0.271  51.896  1.00  0.00    -0.342 N 
HETATM   14  H15 UNL     1      25.407  -0.380  51.012  1.00  0.00     0.167 HD
ENDROOT
BRANCH   6  15
HETATM   15  C9  UNL     1      21.158   1.305  53.082  1.00  0.00     0.063 C 
BRANCH  15  16
HETATM   16  C10 UNL     1      20.244   0.416  52.368  1.00  0.00    -0.024 C 
HETATM   17  C11 UNL     1      19.939   0.376  51.084  1.00  0.00    -0.003 C 
BRANCH  17  18
HETATM   18  C12 UNL     1      20.515   1.282  50.133  1.00  0.00     0.011 C 
HETATM   19  C13 UNL     1      21.429   0.868  49.272  1.00  0.00     0.217 C 
HETATM   20 CL1  UNL     1      22.195   1.878  48.075  1.00  0.00    -0.230 Cl
ENDBRANCH  17  18
ENDBRANCH  15  16
ENDBRANCH   6  15
BRANCH   1  21
HETATM   21  C2  UNL     1      28.628   0.580  54.457  1.00  0.00     0.174 C 
HETATM   22  C1  UNL     1      29.313  -0.569  53.838  1.00  0.00     0.098 C 
HETATM   23  O1  UNL     1      29.065   1.302  55.349  1.00  0.00    -0.291 OA
ENDBRANCH   1  21
TORSDOF 4
ENDMDL
MODEL 3
REMARK VINA RESULT:      -7.7      4.517      7.024
REMARK  4 active torsions:
REMARK  status: ('A' for Active; 'I' for Inactive)
REMARK    1  A    between atoms: C2_2  and  C3_4 
REMARK    2  A    between atoms: C8_9  and  C9_10 
REMARK    3  A    between atoms: C9_10  and  C10_11 
REMARK    4  A    between atoms: C11_12  and  C12_13 
ROOT
HETATM    1  C3  UNL     1      27.845   1.056  53.755  1.00  0.00     0.106 C 
HETATM    2  C4  UNL     1      27.503   2.104  52.881  1.00  0.00     0.037 C 
HETATM    3  C5  UNL     1      26.149   2.338  52.225  1.00  0.00     0.027 C 
HETATM    4  C6  UNL     1      25.223   1.330  52.099  1.00  0.00     0.013 C 
HETATM    5  C7  UNL     1      23.765   1.599  52.243  1.00  0.00     0.093 C 
HETATM    6  C8  UNL     1      23.042   0.533  53.084  1.00  0.00     0.090 C 
HETATM    7  N1  UNL     1      23.368  -0.648  53.823  1.00  0.00    -0.270 NA
HETATM    8  C14 UNL     1      24.754  -0.601  54.405  1.00  0.00     0.117 A 
HETATM    9  C15 UNL     1      25.367  -0.599  55.691  1.00  0.00     0.174 A 
HETATM   10  N2  UNL     1      26.687  -0.137  55.581  1.00  0.00    -0.175 NA
HETATM   11  N3  UNL     1      26.816   0.115  54.263  1.00  0.00    -0.212 N 
HETATM   12  C16 UNL     1      25.722  -0.152  53.445  1.00  0.00     0.160 A 
HETATM   13  N4  UNL     1      25.641  -0.083  51.936  1.00  0.00    -0.342 N 
HETATM   14  H15 UNL     1      25.871  -0.905  51.210  1.00  0.00     0.167 HD
ENDROOT
BRANCH   6  15
HETATM   15  C9  UNL     1      21.601   1.019  53.011  1.00  0.00     0.063 C 
BRANCH  15  16
HETATM   16  C10 UNL     1      20.699   0.085  53.682  1.00  0.00    -0.024 C 
HETATM   17  C11 UNL     1      19.566  -0.444  53.258  1.00  0.00    -0.003 C 
BRANCH  17  18
HETATM   18  C12 UNL     1      19.019  -0.145  51.967  1.00  0.00     0.011 C 
HETATM   19  C13 UNL     1      17.762  -0.440  51.680  1.00  0.00     0.217 C 
HETATM   20 CL1  UNL     1      16.993  -0.122  50.148  1.00  0.00    -0.230 Cl
ENDBRANCH  17  18
ENDBRANCH  15  16
ENDBRANCH   6  15
BRANCH   1  21
HETATM   21  C2  UNL     1      29.131   0.933  54.236  1.00  0.00     0.174 C 
HETATM   22  C1  UNL     1      29.869  -0.276  53.828  1.00  0.00     0.098 C 
HETATM   23  O1  UNL     1      29.545   1.838  54.957  1.00  0.00    -0.291 OA
ENDBRANCH   1  21
TORSDOF 4
ENDMDL
MODEL 4
REMARK VINA RESULT:      -7.5      4.331      6.761
REMARK  4 active torsions:
REMARK  status: ('A' for Active; 'I' for Inactive)
REMARK    1  A    between atoms: C2_2  and  C3_4 
REMARK    2  A    between atoms: C8_9  and  C9_10 
REMARK    3  A    between atoms: C9_10  and  C10_11 
REMARK    4  A    between atoms: C11_12  and  C12_13 
ROOT
HETATM    1  C3  UNL     1      27.183   1.240  53.436  1.00  0.00     0.106 C 
HETATM    2  C4  UNL     1      26.502   0.103  53.909  1.00  0.00     0.037 C 
HETATM    3  C5  UNL     1      25.051  -0.266  53.639  1.00  0.00     0.027 C 
HETATM    4  C6  UNL     1      24.130   0.668  53.230  1.00  0.00     0.013 C 
HETATM    5  C7  UNL     1      23.063   0.323  52.250  1.00  0.00     0.093 C 
HETATM    6  C8  UNL     1      22.863   1.410  51.179  1.00  0.00     0.090 C 
HETATM    7  N1  UNL     1      23.439   2.666  50.810  1.00  0.00    -0.270 NA
HETATM    8  C14 UNL     1      24.901   2.753  51.151  1.00  0.00     0.117 A 
HETATM    9  C15 UNL     1      26.144   2.896  50.468  1.00  0.00     0.174 A 
HETATM   10  N2  UNL     1      27.192   2.508  51.317  1.00  0.00    -0.175 NA
HETATM   11  N3  UNL     1      26.554   2.155  52.452  1.00  0.00    -0.212 N 
HETATM   12  C16 UNL     1      25.170   2.285  52.480  1.00  0.00     0.160 A 
HETATM   13  N4  UNL     1      24.233   2.086  53.653  1.00  0.00    -0.342 N 
HETATM   14  H15 UNL     1      23.916   2.857  54.401  1.00  0.00     0.167 HD
ENDROOT
BRANCH   6  15
HETATM   15  C9  UNL     1      21.704   0.833  50.377  1.00  0.00     0.063 C 
BRANCH  15  16
HETATM   16  C10 UNL     1      20.484   1.608  50.588  1.00  0.00    -0.024 C 
HETATM   17  C11 UNL     1      19.451   1.357  51.372  1.00  0.00    -0.003 C 
BRANCH  17  18
HETATM   18  C12 UNL     1      19.383   0.185  52.195  1.00  0.00     0.011 C 
HETATM   19  C13 UNL     1      18.235  -0.443  52.385  1.00  0.00     0.217 C 
HETATM   20 CL1  UNL     1      18.036  -1.873  53.363  1.00  0.00    -0.230 Cl
ENDBRANCH  17  18
ENDBRANCH  15  16
ENDBRANCH   6  15
BRANCH   1  21
HETATM   21  C2  UNL     1      28.489   1.481  53.805  1.00  0.00     0.174 C 
HETATM   22  C1  UNL     1      29.443   0.377  53.596  1.00  0.00     0.098 C 
HETATM   23  O1  UNL     1      28.741   2.590  54.270  1.00  0.00    -0.291 OA
ENDBRANCH   1  21
TORSDOF 4
ENDMDL
MODEL 5
REMARK VINA RESULT:      -7.3      3.831      6.250
REMARK  4 active torsions:
REMARK  status: ('A' for Active; 'I' for Inactive)
REMARK    1  A    between atoms: C2_2  and  C3_4 
REMARK    2  A    between atoms: C8_9  and  C9_10 
REMARK    3  A    between atoms: C9_10  and  C10_11 
REMARK    4  A    between atoms: C11_12  and  C12_13 
ROOT
HETATM    1  C3  UNL     1      27.207   1.372  53.343  1.00  0.00     0.106 C 
HETATM    2  C4  UNL     1      26.475   0.265  53.808  1.00  0.00     0.037 C 
HETATM    3  C5  UNL     1      25.016  -0.052  53.512  1.00  0.00     0.027 C 
HETATM    4  C6  UNL     1      24.140   0.915  53.080  1.00  0.00     0.013 C 
HETATM    5  C7  UNL     1      23.079   0.605  52.082  1.00  0.00     0.093 C 
HETATM    6  C8  UNL     1      22.941   1.692  51.002  1.00  0.00     0.090 C 
HETATM    7  N1  UNL     1      23.571   2.923  50.637  1.00  0.00    -0.270 NA
HETATM    8  C14 UNL     1      25.029   2.957  51.006  1.00  0.00     0.117 A 
HETATM    9  C15 UNL     1      26.289   3.049  50.347  1.00  0.00     0.174 A 
HETATM   10  N2  UNL     1      27.305   2.626  51.218  1.00  0.00    -0.175 NA
HETATM   11  N3  UNL     1      26.633   2.304  52.341  1.00  0.00    -0.212 N 
HETATM   12  C16 UNL     1      25.254   2.487  52.343  1.00  0.00     0.160 A 
HETATM   13  N4  UNL     1      24.288   2.330  53.498  1.00  0.00    -0.342 N 
HETATM   14  H15 UNL     1      23.986   3.117  54.235  1.00  0.00     0.167 HD
ENDROOT
BRANCH   6  15
HETATM   15  C9  UNL     1      21.776   1.154  50.180  1.00  0.00     0.063 C 
BRANCH  15  16
HETATM   16  C10 UNL     1      20.879   0.351  51.007  1.00  0.00    -0.024 C 
HETATM   17  C11 UNL     1      19.606   0.541  51.299  1.00  0.00    -0.003 C 
BRANCH  17  18
HETATM   18  C12 UNL     1      18.866   1.663  50.799  1.00  0.00     0.011 C 
HETATM   19  C13 UNL     1      18.625   2.713  51.568  1.00  0.00     0.217 C 
HETATM   20 CL1  UNL     1      17.740   4.128  51.066  1.00  0.00    -0.230 Cl
ENDBRANCH  17  18
ENDBRANCH  15  16
ENDBRANCH   6  15
BRANCH   1  21
HETATM   21  C2  UNL     1      28.514   1.566  53.735  1.00  0.00     0.174 C 
HETATM   22  C1  UNL     1      29.425   0.418  53.569  1.00  0.00     0.098 C 
HETATM   23  O1  UNL     1      28.802   2.672  54.185  1.00  0.00    -0.291 OA
ENDBRANCH   1  21
TORSDOF 4
ENDMDL
MODEL 6
REMARK VINA RESULT:      -7.3      1.656      1.805
REMARK  4 active torsions:
REMARK  status: ('A' for Active; 'I' for Inactive)
REMARK    1  A    between atoms: C2_2  and  C3_4 
REMARK    2  A    between atoms: C8_9  and  C9_10 
REMARK    3  A    between atoms: C9_10  and  C10_11 
REMARK    4  A    between atoms: C11_12  and  C12_13 
ROOT
HETATM    1  C3  UNL     1      23.346  -0.076  53.649  1.00  0.00     0.106 C 
HETATM    2  C4  UNL     1      22.390   0.619  52.886  1.00  0.00     0.037 C 
HETATM    3  C5  UNL     1      22.659   1.731  51.881  1.00  0.00     0.027 C 
HETATM    4  C6  UNL     1      23.829   2.451  51.896  1.00  0.00     0.013 C 
HETATM    5  C7  UNL     1      24.477   2.899  50.632  1.00  0.00     0.093 C 
HETATM    6  C8  UNL     1      26.002   2.695  50.639  1.00  0.00     0.090 C 
HETATM    7  N1  UNL     1      27.004   2.153  51.504  1.00  0.00    -0.270 NA
HETATM    8  C14 UNL     1      26.482   1.035  52.363  1.00  0.00     0.117 A 
HETATM    9  C15 UNL     1      26.714  -0.359  52.548  1.00  0.00     0.174 A 
HETATM   10  N2  UNL     1      25.624  -0.929  53.225  1.00  0.00    -0.175 NA
HETATM   11  N3  UNL     1      24.799   0.120  53.418  1.00  0.00    -0.212 N 
HETATM   12  C16 UNL     1      25.221   1.364  52.963  1.00  0.00     0.160 A 
HETATM   13  N4  UNL     1      24.557   2.710  53.163  1.00  0.00    -0.342 N 
HETATM   14  H15 UNL     1      24.713   3.419  54.015  1.00  0.00     0.167 HD
ENDROOT
BRANCH   6  15
HETATM   15  C9  UNL     1      26.390   3.280  49.288  1.00  0.00     0.063 C 
BRANCH  15  16
HETATM   16  C10 UNL     1      26.939   4.626  49.437  1.00  0.00    -0.024 C 
HETATM   17  C11 UNL     1      26.391   5.795  49.163  1.00  0.00    -0.003 C 
BRANCH  17  18
HETATM   18  C12 UNL     1      25.064   5.911  48.632  1.00  0.00     0.011 C 
HETATM   19  C13 UNL     1      24.697   6.985  47.953  1.00  0.00     0.217 C 
HETATM   20 CL1  UNL     1      23.115   7.232  47.265  1.00  0.00    -0.230 Cl
ENDBRANCH  17  18
ENDBRANCH  15  16
ENDBRANCH   6  15
BRANCH   1  21
HETATM   21  C2  UNL     1      22.957  -1.027  54.567  1.00  0.00     0.174 C 
HETATM   22  C1  UNL     1      21.685  -1.721  54.291  1.00  0.00     0.098 C 
HETATM   23  O1  UNL     1      23.701  -1.212  55.527  1.00  0.00    -0.291 OA
ENDBRANCH   1  21
TORSDOF 4
ENDMDL
MODEL 7
REMARK VINA RESULT:      -7.2      4.081      7.612
REMARK  4 active torsions:
REMARK  status: ('A' for Active; 'I' for Inactive)
REMARK    1  A    between atoms: C2_2  and  C3_4 
REMARK    2  A    between atoms: C8_9  and  C9_10 
REMARK    3  A    between atoms: C9_10  and  C10_11 
REMARK    4  A    between atoms: C11_12  and  C12_13 
ROOT
HETATM    1  C3  UNL     1      25.663   4.178  50.141  1.00  0.00     0.106 C 
HETATM    2  C4  UNL     1      26.719   3.277  50.368  1.00  0.00     0.037 C 
HETATM    3  C5  UNL     1      26.696   2.059  51.280  1.00  0.00     0.027 C 
HETATM    4  C6  UNL     1      25.770   1.926  52.287  1.00  0.00     0.013 C 
HETATM    5  C7  UNL     1      25.185   0.600  52.629  1.00  0.00     0.093 C 
HETATM    6  C8  UNL     1      23.667   0.661  52.867  1.00  0.00     0.090 C 
HETATM    7  N1  UNL     1      22.615   1.630  52.817  1.00  0.00    -0.270 NA
HETATM    8  C14 UNL     1      22.868   2.706  51.798  1.00  0.00     0.117 A 
HETATM    9  C15 UNL     1      22.279   3.189  50.594  1.00  0.00     0.174 A 
HETATM   10  N2  UNL     1      23.215   3.965  49.893  1.00  0.00    -0.175 NA
HETATM   11  N3  UNL     1      24.306   3.921  50.684  1.00  0.00    -0.212 N 
HETATM   12  C16 UNL     1      24.209   3.212  51.877  1.00  0.00     0.160 A 
HETATM   13  N4  UNL     1      25.226   3.112  52.993  1.00  0.00    -0.342 N 
HETATM   14  H15 UNL     1      25.327   3.793  53.877  1.00  0.00     0.167 HD
ENDROOT
BRANCH   6  15
HETATM   15  C9  UNL     1      23.363  -0.782  53.248  1.00  0.00     0.063 C 
BRANCH  15  16
HETATM   16  C10 UNL     1      22.642  -0.848  54.516  1.00  0.00    -0.024 C 
HETATM   17  C11 UNL     1      21.359  -1.058  54.746  1.00  0.00    -0.003 C 
BRANCH  17  18
HETATM   18  C12 UNL     1      20.417  -1.269  53.686  1.00  0.00     0.011 C 
HETATM   19  C13 UNL     1      19.569  -0.316  53.335  1.00  0.00     0.217 C 
HETATM   20 CL1  UNL     1      18.384  -0.460  52.064  1.00  0.00    -0.230 Cl
ENDBRANCH  17  18
ENDBRANCH  15  16
ENDBRANCH   6  15
BRANCH   1  21
HETATM   21  C2  UNL     1      25.838   5.277  49.327  1.00  0.00     0.174 C 
HETATM   22  C1  UNL     1      27.139   5.383  48.642  1.00  0.00     0.098 C 
HETATM   23  O1  UNL     1      24.899   6.065  49.245  1.00  0.00    -0.291 OA
ENDBRANCH   1  21
TORSDOF 4
ENDMDL
MODEL 8
REMARK VINA RESULT:      -7.1      3.096      4.608
REMARK  4 active torsions:
REMARK  status: ('A' for Active; 'I' for Inactive)
REMARK    1  A    between atoms: C2_2  and  C3_4 
REMARK    2  A    between atoms: C8_9  and  C9_10 
REMARK    3  A    between atoms: C9_10  and  C10_11 
REMARK    4  A    between atoms: C11_12  and  C12_13 
ROOT
HETATM    1  C3  UNL     1      26.676   1.079  53.295  1.00  0.00     0.106 C 
HETATM    2  C4  UNL     1      25.725   0.080  53.570  1.00  0.00     0.037 C 
HETATM    3  C5  UNL     1      24.279   0.044  53.095  1.00  0.00     0.027 C 
HETATM    4  C6  UNL     1      23.628   1.178  52.673  1.00  0.00     0.013 C 
HETATM    5  C7  UNL     1      22.656   1.135  51.545  1.00  0.00     0.093 C 
HETATM    6  C8  UNL     1      22.824   2.313  50.569  1.00  0.00     0.090 C 
HETATM    7  N1  UNL     1      23.684   3.443  50.395  1.00  0.00    -0.270 NA
HETATM    8  C14 UNL     1      25.074   3.197  50.913  1.00  0.00     0.117 A 
HETATM    9  C15 UNL     1      26.402   3.124  50.400  1.00  0.00     0.174 A 
HETATM   10  N2  UNL     1      27.225   2.465  51.326  1.00  0.00    -0.175 NA
HETATM   11  N3  UNL     1      26.382   2.174  52.336  1.00  0.00    -0.212 N 
HETATM   12  C16 UNL     1      25.060   2.589  52.213  1.00  0.00     0.160 A 
HETATM   13  N4  UNL     1      23.953   2.508  53.242  1.00  0.00    -0.342 N 
HETATM   14  H15 UNL     1      23.696   3.274  54.018  1.00  0.00     0.167 HD
ENDROOT
BRANCH   6  15
HETATM   15  C9  UNL     1      21.694   2.051  49.583  1.00  0.00     0.063 C 
BRANCH  15  16
HETATM   16  C10 UNL     1      22.216   1.812  48.239  1.00  0.00    -0.024 C 
HETATM   17  C11 UNL     1      22.245   2.615  47.192  1.00  0.00    -0.003 C 
BRANCH  17  18
HETATM   18  C12 UNL     1      21.720   3.949  47.236  1.00  0.00     0.011 C 
HETATM   19  C13 UNL     1      22.529   4.991  47.333  1.00  0.00     0.217 C 
HETATM   20 CL1  UNL     1      22.003   6.652  47.395  1.00  0.00    -0.230 Cl
ENDBRANCH  17  18
ENDBRANCH  15  16
ENDBRANCH   6  15
BRANCH   1  21
HETATM   21  C2  UNL     1      27.942   1.014  53.837  1.00  0.00     0.174 C 
HETATM   22  C1  UNL     1      28.681  -0.244  53.625  1.00  0.00     0.098 C 
HETATM   23  O1  UNL     1      28.339   2.006  54.444  1.00  0.00    -0.291 OA
ENDBRANCH   1  21
TORSDOF 4
ENDMDL
MODEL 9
REMARK VINA RESULT:      -7.1      3.962      7.500
REMARK  4 active torsions:
REMARK  status: ('A' for Active; 'I' for Inactive)
REMARK    1  A    between atoms: C2_2  and  C3_4 
REMARK    2  A    between atoms: C8_9  and  C9_10 
REMARK    3  A    between atoms: C9_10  and  C10_11 
REMARK    4  A    between atoms: C11_12  and  C12_13 
ROOT
HETATM    1  C3  UNL     1      25.343   5.897  49.823  1.00  0.00     0.106 C 
HETATM    2  C4  UNL     1      25.867   4.687  49.333  1.00  0.00     0.037 C 
HETATM    3  C5  UNL     1      25.411   3.282  49.700  1.00  0.00     0.027 C 
HETATM    4  C6  UNL     1      24.702   3.029  50.850  1.00  0.00     0.013 C 
HETATM    5  C7  UNL     1      23.621   2.006  50.882  1.00  0.00     0.093 C 
HETATM    6  C8  UNL     1      22.370   2.484  51.640  1.00  0.00     0.090 C 
HETATM    7  N1  UNL     1      21.909   3.663  52.306  1.00  0.00    -0.270 NA
HETATM    8  C14 UNL     1      22.481   4.922  51.715  1.00  0.00     0.117 A 
HETATM    9  C15 UNL     1      22.011   6.090  51.046  1.00  0.00     0.174 A 
HETATM   10  N2  UNL     1      23.081   6.713  50.386  1.00  0.00    -0.175 NA
HETATM   11  N3  UNL     1      24.129   5.916  50.677  1.00  0.00    -0.212 N 
HETATM   12  C16 UNL     1      23.895   4.815  51.494  1.00  0.00     0.160 A 
HETATM   13  N4  UNL     1      24.903   3.846  52.072  1.00  0.00    -0.342 N 
HETATM   14  H15 UNL     1      25.449   3.942  53.045  1.00  0.00     0.167 HD
ENDROOT
BRANCH   6  15
HETATM   15  C9  UNL     1      21.482   1.249  51.566  1.00  0.00     0.063 C 
BRANCH  15  16
HETATM   16  C10 UNL     1      21.136   0.771  52.902  1.00  0.00    -0.024 C 
HETATM   17  C11 UNL     1      21.766  -0.090  53.679  1.00  0.00    -0.003 C 
BRANCH  17  18
HETATM   18  C12 UNL     1      22.985  -0.729  53.280  1.00  0.00     0.011 C 
HETATM   19  C13 UNL     1      24.156  -0.275  53.695  1.00  0.00     0.217 C 
HETATM   20 CL1  UNL     1      25.697  -0.972  53.274  1.00  0.00    -0.230 Cl
ENDBRANCH  17  18
ENDBRANCH  15  16
ENDBRANCH   6  15
BRANCH   1  21
HETATM   21  C2  UNL     1      25.889   7.105  49.444  1.00  0.00     0.174 C 
HETATM   22  C1  UNL     1      25.932   7.379  47.997  1.00  0.00     0.098 C 
HETATM   23  O1  UNL     1      26.289   7.841  50.343  1.00  0.00    -0.291 OA
ENDBRANCH   1  21
TORSDOF 4
ENDMDL
