MODEL 1
REMARK VINA RESULT:      -7.5      0.000      0.000
REMARK  5 active torsions:
REMARK  status: ('A' for Active; 'I' for Inactive)
REMARK    1  A    between atoms: O1_2  and  C2_3 
REMARK    2  A    between atoms: C5_6  and  C6_7 
REMARK    3  A    between atoms: C6_7  and  N1_8 
REMARK    4  A    between atoms: C6_7  and  N2_9 
REMARK    5  A    between atoms: N2_9  and  C7_10 
ROOT
HETATM    1  C6  UNL     1      25.746   0.588  53.671  1.00  0.00     0.107 C 
ENDROOT
BRANCH   1   2
HETATM    2  C5  UNL     1      25.594   1.575  52.821  1.00  0.00     0.009 A 
HETATM    3  C4  UNL     1      25.037   2.784  52.114  1.00  0.00     0.080 A 
HETATM    4  C3  UNL     1      25.798   3.361  50.878  1.00  0.00     0.141 A 
HETATM    5  N3  UNL     1      23.814   3.330  52.712  1.00  0.00    -0.233 NA
HETATM    6  C14 UNL     1      26.379   2.718  50.992  1.00  0.00     0.041 A 
HETATM    7  O2  UNL     1      24.828   3.332  51.034  1.00  0.00     0.000 OA
HETATM    8  C2  UNL     1      26.559   3.593  49.975  1.00  0.00     0.064 A 
HETATM    9  C16 UNL     1      22.618   3.389  51.705  1.00  0.00     0.109 C 
HETATM   10  C15 UNL     1      23.567   3.213  50.433  1.00  0.00     0.017 C 
HETATM   11  C13 UNL     1      26.504   1.709  51.906  1.00  0.00     0.001 A 
BRANCH   8  12
HETATM   12  O1  UNL     1      27.481   3.877  48.878  1.00  0.00    -0.389 OA
HETATM   13  C1  UNL     1      27.502   5.273  48.575  1.00  0.00     0.202 C 
ENDBRANCH   8  12
ENDBRANCH   1   2
BRANCH   1  14
HETATM   14  N1  UNL     1      26.645   0.793  54.788  1.00  0.00    -0.385 N 
HETATM   15  H5  UNL     1      27.279   0.936  55.585  1.00  0.00     0.157 HD
HETATM   16  H6  UNL     1      27.676   1.027  55.007  1.00  0.00     0.157 HD
ENDBRANCH   1  14
BRANCH   1  17
HETATM   17  N2  UNL     1      25.081  -0.609  53.471  1.00  0.00    -0.342 N 
HETATM   18  H7  UNL     1      25.378  -1.632  53.368  1.00  0.00     0.167 HD
BRANCH  17  19
HETATM   19  C7  UNL     1      23.702  -0.508  53.403  1.00  0.00     0.034 A 
HETATM   20  C8  UNL     1      23.222  -0.994  54.700  1.00  0.00     0.029 A 
HETATM   21  C9  UNL     1      21.821  -1.012  54.937  1.00  0.00     0.004 A 
HETATM   22  C10 UNL     1      20.864  -0.617  54.063  1.00  0.00     0.019 A 
HETATM   23  C11 UNL     1      21.223  -0.113  52.729  1.00  0.00     0.013 A 
HETATM   24 BR1  UNL     1      20.141   0.497  51.331  1.00  0.00    -0.051 Br
HETATM   25  C12 UNL     1      22.573  -0.214  52.806  1.00  0.00     0.048 A 
ENDBRANCH  17  19
ENDBRANCH   1  17
TORSDOF 5
ENDMDL
MODEL 2
REMARK VINA RESULT:      -7.3      3.121      6.188
REMARK  5 active torsions:
REMARK  status: ('A' for Active; 'I' for Inactive)
REMARK    1  A    between atoms: O1_2  and  C2_3 
REMARK    2  A    between atoms: C5_6  and  C6_7 
REMARK    3  A    between atoms: C6_7  and  N1_8 
REMARK    4  A    between atoms: C6_7  and  N2_9 
REMARK    5  A    between atoms: N2_9  and  C7_10 
ROOT
HETATM    1  C6  UNL     1      24.646   2.555  51.761  1.00  0.00     0.107 C 
ENDROOT
BRANCH   1   2
HETATM    2  C5  UNL     1      24.952   1.370  52.232  1.00  0.00     0.009 A 
HETATM    3  C4  UNL     1      24.832  -0.009  52.830  1.00  0.00     0.080 A 
HETATM    4  C3  UNL     1      26.124  -0.860  53.044  1.00  0.00     0.141 A 
HETATM    5  N3  UNL     1      23.457  -0.431  53.118  1.00  0.00    -0.233 NA
HETATM    6  C14 UNL     1      26.570  -0.184  52.716  1.00  0.00     0.041 A 
HETATM    7  O2  UNL     1      25.314  -0.836  53.601  1.00  0.00     0.000 OA
HETATM    8  C2  UNL     1      27.247  -1.290  53.105  1.00  0.00     0.064 A 
HETATM    9  C16 UNL     1      23.242  -0.814  54.620  1.00  0.00     0.109 C 
HETATM   10  C15 UNL     1      24.808  -0.941  54.903  1.00  0.00     0.017 C 
HETATM   11  C13 UNL     1      26.206   1.038  52.223  1.00  0.00     0.001 A 
BRANCH   8  12
HETATM   12  O1  UNL     1      28.608  -1.814  53.179  1.00  0.00    -0.389 OA
HETATM   13  C1  UNL     1      29.478  -0.889  53.833  1.00  0.00     0.202 C 
ENDBRANCH   8  12
ENDBRANCH   1   2
BRANCH   1  14
HETATM   14  N1  UNL     1      24.542   3.649  52.704  1.00  0.00    -0.385 N 
HETATM   15  H5  UNL     1      24.461   4.425  53.373  1.00  0.00     0.157 HD
HETATM   16  H6  UNL     1      25.150   4.275  53.338  1.00  0.00     0.157 HD
ENDBRANCH   1  14
BRANCH   1  17
HETATM   17  N2  UNL     1      24.409   2.723  50.407  1.00  0.00    -0.342 N 
HETATM   18  H7  UNL     1      23.848   2.194  49.666  1.00  0.00     0.167 HD
BRANCH  17  19
HETATM   19  C7  UNL     1      25.001   3.840  49.844  1.00  0.00     0.034 A 
HETATM   20  C8  UNL     1      26.384   3.439  49.571  1.00  0.00     0.029 A 
HETATM   21  C9  UNL     1      27.259   4.391  48.981  1.00  0.00     0.004 A 
HETATM   22  C10 UNL     1      26.933   5.662  48.640  1.00  0.00     0.019 A 
HETATM   23  C11 UNL     1      25.576   6.180  48.869  1.00  0.00     0.013 A 
HETATM   24 BR1  UNL     1      24.843   7.862  48.506  1.00  0.00    -0.051 Br
HETATM   25  C12 UNL     1      25.005   5.080  49.418  1.00  0.00     0.048 A 
ENDBRANCH  17  19
ENDBRANCH   1  17
TORSDOF 5
ENDMDL
MODEL 3
REMARK VINA RESULT:      -7.2      3.087      6.787
REMARK  5 active torsions:
REMARK  status: ('A' for Active; 'I' for Inactive)
REMARK    1  A    between atoms: O1_2  and  C2_3 
REMARK    2  A    between atoms: C5_6  and  C6_7 
REMARK    3  A    between atoms: C6_7  and  N1_8 
REMARK    4  A    between atoms: C6_7  and  N2_9 
REMARK    5  A    between atoms: N2_9  and  C7_10 
ROOT
HETATM    1  C6  UNL     1      24.022   4.252  51.837  1.00  0.00     0.107 C 
ENDROOT
BRANCH   1   2
HETATM    2  C5  UNL     1      24.201   3.077  52.391  1.00  0.00     0.009 A 
HETATM    3  C4  UNL     1      24.818   1.929  53.151  1.00  0.00     0.080 A 
HETATM    4  C3  UNL     1      24.017   0.597  53.297  1.00  0.00     0.141 A 
HETATM    5  N3  UNL     1      26.136   2.218  53.726  1.00  0.00    -0.233 NA
HETATM    6  C14 UNL     1      23.386   0.976  52.828  1.00  0.00     0.041 A 
HETATM    7  O2  UNL     1      24.989   0.714  53.207  1.00  0.00     0.000 OA
HETATM    8  C2  UNL     1      23.211  -0.296  53.257  1.00  0.00     0.064 A 
HETATM    9  C16 UNL     1      27.242   1.224  53.238  1.00  0.00     0.109 C 
HETATM   10  C15 UNL     1      26.175   0.162  52.706  1.00  0.00     0.017 C 
HETATM   11  C13 UNL     1      23.235   2.217  52.276  1.00  0.00     0.001 A 
BRANCH   8  12
HETATM   12  O1  UNL     1      22.233  -1.380  53.210  1.00  0.00    -0.389 OA
HETATM   13  C1  UNL     1      21.737  -1.679  54.516  1.00  0.00     0.202 C 
ENDBRANCH   8  12
ENDBRANCH   1   2
BRANCH   1  14
HETATM   14  N1  UNL     1      23.893   5.397  52.714  1.00  0.00    -0.385 N 
HETATM   15  H5  UNL     1      23.798   6.207  53.342  1.00  0.00     0.157 HD
HETATM   16  H6  UNL     1      24.216   6.422  52.814  1.00  0.00     0.157 HD
ENDBRANCH   1  14
BRANCH   1  17
HETATM   17  N2  UNL     1      23.933   4.364  50.460  1.00  0.00    -0.342 N 
HETATM   18  H7  UNL     1      23.212   4.081  49.723  1.00  0.00     0.167 HD
BRANCH  17  19
HETATM   19  C7  UNL     1      24.999   5.007  49.857  1.00  0.00     0.034 A 
HETATM   20  C8  UNL     1      25.972   3.947  49.576  1.00  0.00     0.029 A 
HETATM   21  C9  UNL     1      27.196   4.303  48.947  1.00  0.00     0.004 A 
HETATM   22  C10 UNL     1      27.560   5.554  48.573  1.00  0.00     0.019 A 
HETATM   23  C11 UNL     1      26.668   6.700  48.805  1.00  0.00     0.013 A 
HETATM   24 BR1  UNL     1      26.893   8.513  48.403  1.00  0.00    -0.051 Br
HETATM   25  C12 UNL     1      25.628   6.060  49.394  1.00  0.00     0.048 A 
ENDBRANCH  17  19
ENDBRANCH   1  17
TORSDOF 5
ENDMDL
MODEL 4
REMARK VINA RESULT:      -7.2      2.785      4.564
REMARK  5 active torsions:
REMARK  status: ('A' for Active; 'I' for Inactive)
REMARK    1  A    between atoms: O1_2  and  C2_3 
REMARK    2  A    between atoms: C5_6  and  C6_7 
REMARK    3  A    between atoms: C6_7  and  N1_8 
REMARK    4  A    between atoms: C6_7  and  N2_9 
REMARK    5  A    between atoms: N2_9  and  C7_10 
ROOT
HETATM    1  C6  UNL     1      22.703   0.060  53.262  1.00  0.00     0.107 C 
ENDROOT
BRANCH   1   2
HETATM    2  C5  UNL     1      23.989   0.313  53.219  1.00  0.00     0.009 A 
HETATM    3  C4  UNL     1      25.303   1.040  53.087  1.00  0.00     0.080 A 
HETATM    4  C3  UNL     1      26.635   0.242  53.255  1.00  0.00     0.141 A 
HETATM    5  N3  UNL     1      25.180   2.482  52.845  1.00  0.00    -0.233 NA
HETATM    6  C14 UNL     1      26.141  -0.467  53.382  1.00  0.00     0.041 A 
HETATM    7  O2  UNL     1      26.455   1.004  52.660  1.00  0.00     0.000 OA
HETATM    8  C2  UNL     1      27.489  -0.589  53.421  1.00  0.00     0.064 A 
HETATM    9  C16 UNL     1      25.897   2.941  51.532  1.00  0.00     0.109 C 
HETATM   10  C15 UNL     1      26.751   1.596  51.425  1.00  0.00     0.017 C 
HETATM   11  C13 UNL     1      24.793  -0.684  53.430  1.00  0.00     0.001 A 
BRANCH   8  12
HETATM   12  O1  UNL     1      28.528  -1.596  53.622  1.00  0.00    -0.389 OA
HETATM   13  C1  UNL     1      29.826  -1.000  53.623  1.00  0.00     0.202 C 
ENDBRANCH   8  12
ENDBRANCH   1   2
BRANCH   1  14
HETATM   14  N1  UNL     1      22.290  -1.257  53.701  1.00  0.00    -0.385 N 
HETATM   15  H5  UNL     1      22.003  -2.193  54.016  1.00  0.00     0.157 HD
HETATM   16  H6  UNL     1      21.436  -1.917  53.695  1.00  0.00     0.157 HD
ENDBRANCH   1  14
BRANCH   1  17
HETATM   17  N2  UNL     1      21.792   1.025  52.869  1.00  0.00    -0.342 N 
HETATM   18  H7  UNL     1      20.974   1.529  53.339  1.00  0.00     0.167 HD
BRANCH  17  19
HETATM   19  C7  UNL     1      21.956   1.493  51.577  1.00  0.00     0.034 A 
HETATM   20  C8  UNL     1      21.287   0.503  50.728  1.00  0.00     0.029 A 
HETATM   21  C9  UNL     1      21.286   0.711  49.322  1.00  0.00     0.004 A 
HETATM   22  C10 UNL     1      21.856   1.757  48.675  1.00  0.00     0.019 A 
HETATM   23  C11 UNL     1      22.558   2.812  49.420  1.00  0.00     0.013 A 
HETATM   24 BR1  UNL     1      23.427   4.353  48.812  1.00  0.00    -0.051 Br
HETATM   25  C12 UNL     1      22.391   2.347  50.682  1.00  0.00     0.048 A 
ENDBRANCH  17  19
ENDBRANCH   1  17
TORSDOF 5
ENDMDL
MODEL 5
REMARK VINA RESULT:      -7.2      3.232      6.235
REMARK  5 active torsions:
REMARK  status: ('A' for Active; 'I' for Inactive)
REMARK    1  A    between atoms: O1_2  and  C2_3 
REMARK    2  A    between atoms: C5_6  and  C6_7 
REMARK    3  A    between atoms: C6_7  and  N1_8 
REMARK    4  A    between atoms: C6_7  and  N2_9 
REMARK    5  A    between atoms: N2_9  and  C7_10 
ROOT
HETATM    1  C6  UNL     1      23.982   3.965  52.246  1.00  0.00     0.107 C 
ENDROOT
BRANCH   1   2
HETATM    2  C5  UNL     1      24.249   2.726  52.583  1.00  0.00     0.009 A 
HETATM    3  C4  UNL     1      24.180   1.224  52.693  1.00  0.00     0.080 A 
HETATM    4  C3  UNL     1      25.238   0.475  53.563  1.00  0.00     0.141 A 
HETATM    5  N3  UNL     1      23.108   0.604  51.906  1.00  0.00    -0.233 NA
HETATM    6  C14 UNL     1      25.579   1.259  53.743  1.00  0.00     0.041 A 
HETATM    7  O2  UNL     1      24.292   0.245  53.427  1.00  0.00     0.000 OA
HETATM    8  C2  UNL     1      26.148   0.155  54.283  1.00  0.00     0.064 A 
HETATM    9  C16 UNL     1      22.132  -0.253  52.779  1.00  0.00     0.109 C 
HETATM   10  C15 UNL     1      23.147  -0.315  54.009  1.00  0.00     0.017 C 
HETATM   11  C13 UNL     1      25.272   2.534  53.358  1.00  0.00     0.001 A 
BRANCH   8  12
HETATM   12  O1  UNL     1      27.252  -0.235  55.156  1.00  0.00    -0.389 OA
HETATM   13  C1  UNL     1      28.505  -0.120  54.479  1.00  0.00     0.202 C 
ENDBRANCH   8  12
ENDBRANCH   1   2
BRANCH   1  14
HETATM   14  N1  UNL     1      23.932   4.954  53.302  1.00  0.00    -0.385 N 
HETATM   15  H5  UNL     1      23.892   5.661  54.049  1.00  0.00     0.157 HD
HETATM   16  H6  UNL     1      24.229   5.106  54.329  1.00  0.00     0.157 HD
ENDBRANCH   1  14
BRANCH   1  17
HETATM   17  N2  UNL     1      23.733   4.286  50.923  1.00  0.00    -0.342 N 
HETATM   18  H7  UNL     1      22.880   4.231  50.279  1.00  0.00     0.167 HD
BRANCH  17  19
HETATM   19  C7  UNL     1      24.807   4.830  50.241  1.00  0.00     0.034 A 
HETATM   20  C8  UNL     1      25.645   3.683  49.877  1.00  0.00     0.029 A 
HETATM   21  C9  UNL     1      26.845   3.927  49.155  1.00  0.00     0.004 A 
HETATM   22  C10 UNL     1      27.301   5.141  48.762  1.00  0.00     0.019 A 
HETATM   23  C11 UNL     1      26.548   6.366  49.071  1.00  0.00     0.013 A 
HETATM   24 BR1  UNL     1      26.919   8.153  48.665  1.00  0.00    -0.051 Br
HETATM   25  C12 UNL     1      25.499   5.823  49.737  1.00  0.00     0.048 A 
ENDBRANCH  17  19
ENDBRANCH   1  17
TORSDOF 5
ENDMDL
MODEL 6
REMARK VINA RESULT:      -7.1      2.865      6.475
REMARK  5 active torsions:
REMARK  status: ('A' for Active; 'I' for Inactive)
REMARK    1  A    between atoms: O1_2  and  C2_3 
REMARK    2  A    between atoms: C5_6  and  C6_7 
REMARK    3  A    between atoms: C6_7  and  N1_8 
REMARK    4  A    between atoms: C6_7  and  N2_9 
REMARK    5  A    between atoms: N2_9  and  C7_10 
ROOT
HETATM    1  C6  UNL     1      26.260   2.461  51.176  1.00  0.00     0.107 C 
ENDROOT
BRANCH   1   2
HETATM    2  C5  UNL     1      25.089   1.942  51.456  1.00  0.00     0.009 A 
HETATM    3  C4  UNL     1      23.620   1.604  51.401  1.00  0.00     0.080 A 
HETATM    4  C3  UNL     1      23.027   0.616  52.454  1.00  0.00     0.141 A 
HETATM    5  N3  UNL     1      22.891   2.234  50.295  1.00  0.00    -0.233 NA
HETATM    6  C14 UNL     1      23.830   0.566  52.794  1.00  0.00     0.041 A 
HETATM    7  O2  UNL     1      22.593   1.396  52.042  1.00  0.00     0.000 OA
HETATM    8  C2  UNL     1      22.830  -0.147  53.364  1.00  0.00     0.064 A 
HETATM    9  C16 UNL     1      21.685   3.105  50.781  1.00  0.00     0.109 C 
HETATM   10  C15 UNL     1      21.676   2.439  52.232  1.00  0.00     0.017 C 
HETATM   11  C13 UNL     1      25.033   1.122  52.461  1.00  0.00     0.001 A 
BRANCH   8  12
HETATM   12  O1  UNL     1      22.591  -1.074  54.467  1.00  0.00    -0.389 OA
HETATM   13  C1  UNL     1      21.235  -1.527  54.469  1.00  0.00     0.202 C 
ENDBRANCH   8  12
ENDBRANCH   1   2
BRANCH   1  14
HETATM   14  N1  UNL     1      27.223   2.570  52.251  1.00  0.00    -0.385 N 
HETATM   15  H5  UNL     1      27.912   2.644  53.011  1.00  0.00     0.157 HD
HETATM   16  H6  UNL     1      27.321   2.941  53.260  1.00  0.00     0.157 HD
ENDBRANCH   1  14
BRANCH   1  17
HETATM   17  N2  UNL     1      26.532   2.910  49.894  1.00  0.00    -0.342 N 
HETATM   18  H7  UNL     1      26.852   2.449  48.984  1.00  0.00     0.167 HD
BRANCH  17  19
HETATM   19  C7  UNL     1      26.336   4.265  49.695  1.00  0.00     0.034 A 
HETATM   20  C8  UNL     1      27.417   4.676  48.794  1.00  0.00     0.029 A 
HETATM   21  C9  UNL     1      27.485   6.039  48.399  1.00  0.00     0.004 A 
HETATM   22  C10 UNL     1      26.630   7.019  48.783  1.00  0.00     0.019 A 
HETATM   23  C11 UNL     1      25.508   6.729  49.688  1.00  0.00     0.013 A 
HETATM   24 BR1  UNL     1      24.185   7.856  50.379  1.00  0.00    -0.051 Br
HETATM   25  C12 UNL     1      25.707   5.401  49.875  1.00  0.00     0.048 A 
ENDBRANCH  17  19
ENDBRANCH   1  17
TORSDOF 5
ENDMDL
MODEL 7
REMARK VINA RESULT:      -6.9      1.903      3.038
REMARK  5 active torsions:
REMARK  status: ('A' for Active; 'I' for Inactive)
REMARK    1  A    between atoms: O1_2  and  C2_3 
REMARK    2  A    between atoms: C5_6  and  C6_7 
REMARK    3  A    between atoms: C6_7  and  N1_8 
REMARK    4  A    between atoms: C6_7  and  N2_9 
REMARK    5  A    between atoms: N2_9  and  C7_10 
ROOT
HETATM    1  C6  UNL     1      25.389   1.884  52.995  1.00  0.00     0.107 C 
ENDROOT
BRANCH   1   2
HETATM    2  C5  UNL     1      24.929   2.770  52.144  1.00  0.00     0.009 A 
HETATM    3  C4  UNL     1      24.733   3.590  50.893  1.00  0.00     0.080 A 
HETATM    4  C3  UNL     1      23.628   4.692  50.872  1.00  0.00     0.141 A 
HETATM    5  N3  UNL     1      25.610   3.217  49.778  1.00  0.00    -0.233 NA
HETATM    6  C14 UNL     1      23.451   4.468  51.697  1.00  0.00     0.041 A 
HETATM    7  O2  UNL     1      24.503   4.701  50.424  1.00  0.00     0.000 OA
HETATM    8  C2  UNL     1      22.735   5.461  51.118  1.00  0.00     0.064 A 
HETATM    9  C16 UNL     1      26.480   4.412  49.265  1.00  0.00     0.109 C 
HETATM   10  C15 UNL     1      25.571   5.502  49.995  1.00  0.00     0.017 C 
HETATM   11  C13 UNL     1      23.952   3.523  52.548  1.00  0.00     0.001 A 
BRANCH   8  12
HETATM   12  O1  UNL     1      21.650   6.393  51.415  1.00  0.00    -0.389 OA
HETATM   13  C1  UNL     1      21.392   7.249  50.300  1.00  0.00     0.202 C 
ENDBRANCH   8  12
ENDBRANCH   1   2
BRANCH   1  14
HETATM   14  N1  UNL     1      26.195   2.365  54.097  1.00  0.00    -0.385 N 
HETATM   15  H5  UNL     1      26.769   2.699  54.883  1.00  0.00     0.157 HD
HETATM   16  H6  UNL     1      26.647   3.267  54.480  1.00  0.00     0.157 HD
ENDBRANCH   1  14
BRANCH   1  17
HETATM   17  N2  UNL     1      25.122   0.539  52.808  1.00  0.00    -0.342 N 
HETATM   18  H7  UNL     1      25.679  -0.299  52.445  1.00  0.00     0.167 HD
BRANCH  17  19
HETATM   19  C7  UNL     1      23.854   0.136  53.188  1.00  0.00     0.034 A 
HETATM   20  C8  UNL     1      24.058  -0.669  54.396  1.00  0.00     0.029 A 
HETATM   21  C9  UNL     1      22.919  -1.233  55.032  1.00  0.00     0.004 A 
HETATM   22  C10 UNL     1      21.634  -1.098  54.620  1.00  0.00     0.019 A 
HETATM   23  C11 UNL     1      21.305  -0.316  53.420  1.00  0.00     0.013 A 
HETATM   24 BR1  UNL     1      19.652   0.043  52.622  1.00  0.00    -0.051 Br
HETATM   25  C12 UNL     1      22.551   0.075  53.057  1.00  0.00     0.048 A 
ENDBRANCH  17  19
ENDBRANCH   1  17
TORSDOF 5
ENDMDL
MODEL 8
REMARK VINA RESULT:      -6.9      2.665      4.921
REMARK  5 active torsions:
REMARK  status: ('A' for Active; 'I' for Inactive)
REMARK    1  A    between atoms: O1_2  and  C2_3 
REMARK    2  A    between atoms: C5_6  and  C6_7 
REMARK    3  A    between atoms: C6_7  and  N1_8 
REMARK    4  A    between atoms: C6_7  and  N2_9 
REMARK    5  A    between atoms: N2_9  and  C7_10 
ROOT
HETATM    1  C6  UNL     1      25.458   2.726  51.447  1.00  0.00     0.107 C 
ENDROOT
BRANCH   1   2
HETATM    2  C5  UNL     1      25.526   1.510  51.931  1.00  0.00     0.009 A 
HETATM    3  C4  UNL     1      25.134   0.174  52.513  1.00  0.00     0.080 A 
HETATM    4  C3  UNL     1      26.246  -0.883  52.805  1.00  0.00     0.141 A 
HETATM    5  N3  UNL     1      23.692  -0.005  52.710  1.00  0.00    -0.233 NA
HETATM    6  C14 UNL     1      26.820  -0.295  52.510  1.00  0.00     0.041 A 
HETATM    7  O2  UNL     1      25.418  -0.717  53.309  1.00  0.00     0.000 OA
HETATM    8  C2  UNL     1      27.272  -1.498  52.936  1.00  0.00     0.064 A 
HETATM    9  C16 UNL     1      23.319  -0.336  54.193  1.00  0.00     0.109 C 
HETATM   10  C15 UNL     1      24.819  -0.727  54.576  1.00  0.00     0.017 C 
HETATM   11  C13 UNL     1      26.703   0.968  52.000  1.00  0.00     0.001 A 
BRANCH   8  12
HETATM   12  O1  UNL     1      28.516  -2.246  53.095  1.00  0.00    -0.389 OA
HETATM   13  C1  UNL     1      29.567  -1.399  53.562  1.00  0.00     0.202 C 
ENDBRANCH   8  12
ENDBRANCH   1   2
BRANCH   1  14
HETATM   14  N1  UNL     1      26.678   3.318  50.938  1.00  0.00    -0.385 N 
HETATM   15  H5  UNL     1      27.542   3.744  50.578  1.00  0.00     0.157 HD
HETATM   16  H6  UNL     1      27.652   3.046  50.560  1.00  0.00     0.157 HD
ENDBRANCH   1  14
BRANCH   1  17
HETATM   17  N2  UNL     1      24.255   3.412  51.458  1.00  0.00    -0.342 N 
HETATM   18  H7  UNL     1      23.902   4.313  51.915  1.00  0.00     0.167 HD
BRANCH  17  19
HETATM   19  C7  UNL     1      23.251   2.844  50.694  1.00  0.00     0.034 A 
HETATM   20  C8  UNL     1      23.667   3.057  49.304  1.00  0.00     0.029 A 
HETATM   21  C9  UNL     1      22.823   2.576  48.266  1.00  0.00     0.004 A 
HETATM   22  C10 UNL     1      21.646   1.926  48.439  1.00  0.00     0.019 A 
HETATM   23  C11 UNL     1      21.124   1.656  49.787  1.00  0.00     0.013 A 
HETATM   24 BR1  UNL     1      19.557   0.793  50.331  1.00  0.00    -0.051 Br
HETATM   25  C12 UNL     1      22.114   2.214  50.527  1.00  0.00     0.048 A 
ENDBRANCH  17  19
ENDBRANCH   1  17
TORSDOF 5
ENDMDL
MODEL 9
REMARK VINA RESULT:      -6.7      3.226      5.799
REMARK  5 active torsions:
REMARK  status: ('A' for Active; 'I' for Inactive)
REMARK    1  A    between atoms: O1_2  and  C2_3 
REMARK    2  A    between atoms: C5_6  and  C6_7 
REMARK    3  A    between atoms: C6_7  and  N1_8 
REMARK    4  A    between atoms: C6_7  and  N2_9 
REMARK    5  A    between atoms: N2_9  and  C7_10 
ROOT
HETATM    1  C6  UNL     1      25.547   2.653  52.070  1.00  0.00     0.107 C 
ENDROOT
BRANCH   1   2
HETATM    2  C5  UNL     1      24.390   2.115  51.769  1.00  0.00     0.009 A 
HETATM    3  C4  UNL     1      23.131   1.745  51.027  1.00  0.00     0.080 A 
HETATM    4  C3  UNL     1      22.111   0.770  51.697  1.00  0.00     0.141 A 
HETATM    5  N3  UNL     1      23.019   2.332  49.688  1.00  0.00    -0.233 NA
HETATM    6  C14 UNL     1      22.652   0.746  52.382  1.00  0.00     0.041 A 
HETATM    7  O2  UNL     1      21.923   1.531  51.103  1.00  0.00     0.000 OA
HETATM    8  C2  UNL     1      21.507   0.025  52.424  1.00  0.00     0.064 A 
HETATM    9  C16 UNL     1      21.721   3.188  49.507  1.00  0.00     0.109 C 
HETATM   10  C15 UNL     1      21.021   2.558  50.795  1.00  0.00     0.017 C 
HETATM   11  C13 UNL     1      23.864   1.319  52.650  1.00  0.00     0.001 A 
BRANCH   8  12
HETATM   12  O1  UNL     1      20.773  -0.880  53.305  1.00  0.00    -0.389 OA
HETATM   13  C1  UNL     1      19.389  -0.530  53.359  1.00  0.00     0.202 C 
ENDBRANCH   8  12
ENDBRANCH   1   2
BRANCH   1  14
HETATM   14  N1  UNL     1      26.225   3.412  51.039  1.00  0.00    -0.385 N 
HETATM   15  H5  UNL     1      26.700   3.951  50.304  1.00  0.00     0.157 HD
HETATM   16  H6  UNL     1      27.172   3.884  50.826  1.00  0.00     0.157 HD
ENDBRANCH   1  14
BRANCH   1  17
HETATM   17  N2  UNL     1      26.096   2.464  53.327  1.00  0.00    -0.342 N 
HETATM   18  H7  UNL     1      25.925   2.882  54.297  1.00  0.00     0.167 HD
BRANCH  17  19
HETATM   19  C7  UNL     1      27.086   1.500  53.394  1.00  0.00     0.034 A 
HETATM   20  C8  UNL     1      28.288   2.222  53.826  1.00  0.00     0.029 A 
HETATM   21  C9  UNL     1      29.494   1.487  53.988  1.00  0.00     0.004 A 
HETATM   22  C10 UNL     1      29.646   0.156  53.778  1.00  0.00     0.019 A 
HETATM   23  C11 UNL     1      28.513  -0.672  53.340  1.00  0.00     0.013 A 
HETATM   24 BR1  UNL     1      28.419  -2.504  52.977  1.00  0.00    -0.051 Br
HETATM   25  C12 UNL     1      27.548   0.279  53.279  1.00  0.00     0.048 A 
ENDBRANCH  17  19
ENDBRANCH   1  17
TORSDOF 5
ENDMDL
