MODEL 1
REMARK VINA RESULT:      -7.7      0.000      0.000
REMARK  6 active torsions:
REMARK  status: ('A' for Active; 'I' for Inactive)
REMARK    1  A    between atoms: C3_3  and  N1_4 
REMARK    2  A    between atoms: N1_4  and  C4_5 
REMARK    3  A    between atoms: C4_5  and  C5_6 
REMARK    4  A    between atoms: C5_6  and  O1_7 
REMARK    5  A    between atoms: O1_7  and  C6_8 
REMARK    6  A    between atoms: C16_21  and  O2_22 
ROOT
HETATM    1  C6  UNL     1      21.711   0.591  52.149  1.00  0.00     0.094 C 
HETATM    2  C7  UNL     1      22.398  -0.049  53.081  1.00  0.00     0.123 C 
HETATM    3  N2  UNL     1      23.776  -0.239  53.344  1.00  0.00    -0.363 N 
HETATM    4  C8  UNL     1      24.973   0.532  53.110  1.00  0.00     0.047 A 
HETATM    5  C9  UNL     1      25.980   0.064  53.925  1.00  0.00     0.057 A 
HETATM    6  C10 UNL     1      27.227   0.642  53.888  1.00  0.00     0.077 A 
HETATM    7 CL1  UNL     1      28.501   0.040  54.929  1.00  0.00    -0.081 Cl
HETATM    8  C11 UNL     1      27.406   1.689  53.009  1.00  0.00     0.165 A 
HETATM    9  F1  UNL     1      28.673   2.221  53.020  1.00  0.00    -0.202 F 
HETATM   10  C12 UNL     1      26.425   2.184  52.178  1.00  0.00     0.082 A 
HETATM   11  C13 UNL     1      25.180   1.597  52.225  1.00  0.00     0.028 A 
HETATM   12  C14 UNL     1      24.385   2.352  51.231  1.00  0.00    -0.027 A 
HETATM   13  C15 UNL     1      23.131   2.163  50.846  1.00  0.00     0.021 C 
HETATM   14  C16 UNL     1      21.887   1.407  50.949  1.00  0.00     0.202 C 
HETATM   15  C18 UNL     1      25.204   3.446  50.651  1.00  0.00     0.159 A 
HETATM   16  N3  UNL     1      26.495   3.251  51.240  1.00  0.00    -0.382 N 
HETATM   17  H12 UNL     1      24.045  -1.118  53.812  1.00  0.00     0.165 HD
HETATM   18  H21 UNL     1      27.338   3.820  50.997  1.00  0.00     0.160 HD
ENDROOT
BRANCH   1  19
HETATM   19  O1  UNL     1      20.365   0.386  52.465  1.00  0.00    -0.349 OA
BRANCH  19  20
HETATM   20  C5  UNL     1      19.895  -0.503  53.434  1.00  0.00     0.195 C 
BRANCH  20  21
HETATM   21  C4  UNL     1      18.451  -0.907  53.203  1.00  0.00     0.145 C 
BRANCH  21  22
HETATM   22  N1  UNL     1      18.258  -2.193  53.836  1.00  0.00    -0.397 N 
HETATM   23  H6  UNL     1      18.794  -2.675  54.602  1.00  0.00     0.158 HD
BRANCH  22  24
HETATM   24  C3  UNL     1      17.170  -3.018  53.400  1.00  0.00     0.078 C 
HETATM   25  C2  UNL     1      17.025  -4.254  53.888  1.00  0.00    -0.014 C 
HETATM   26  C1  UNL     1      15.911  -5.128  53.457  1.00  0.00     0.037 C 
ENDBRANCH  22  24
ENDBRANCH  21  22
ENDBRANCH  20  21
ENDBRANCH  19  20
ENDBRANCH   1  19
BRANCH  14  27
HETATM   27  O2  UNL     1      21.786   0.560  49.821  1.00  0.00    -0.380 OA
HETATM   28  C17 UNL     1      21.175   1.356  48.837  1.00  0.00     0.202 C 
ENDBRANCH  14  27
TORSDOF 6
ENDMDL
MODEL 2
REMARK VINA RESULT:      -7.6      4.212      8.218
REMARK  6 active torsions:
REMARK  status: ('A' for Active; 'I' for Inactive)
REMARK    1  A    between atoms: C3_3  and  N1_4 
REMARK    2  A    between atoms: N1_4  and  C4_5 
REMARK    3  A    between atoms: C4_5  and  C5_6 
REMARK    4  A    between atoms: C5_6  and  O1_7 
REMARK    5  A    between atoms: O1_7  and  C6_8 
REMARK    6  A    between atoms: C16_21  and  O2_22 
ROOT
HETATM    1  C6  UNL     1      24.520   1.362  52.176  1.00  0.00     0.094 C 
HETATM    2  C7  UNL     1      23.641   1.820  51.299  1.00  0.00     0.123 C 
HETATM    3  N2  UNL     1      22.359   1.402  50.866  1.00  0.00    -0.363 N 
HETATM    4  C8  UNL     1      21.257   0.701  51.478  1.00  0.00     0.047 A 
HETATM    5  C9  UNL     1      20.115   0.921  50.741  1.00  0.00     0.057 A 
HETATM    6  C10 UNL     1      18.922   0.356  51.126  1.00  0.00     0.077 A 
HETATM    7 CL1  UNL     1      17.474   0.643  50.181  1.00  0.00    -0.081 Cl
HETATM    8  C11 UNL     1      18.935  -0.423  52.262  1.00  0.00     0.165 A 
HETATM    9  F1  UNL     1      17.713  -0.958  52.591  1.00  0.00    -0.202 F 
HETATM   10  C12 UNL     1      20.056  -0.667  53.026  1.00  0.00     0.082 A 
HETATM   11  C13 UNL     1      21.245  -0.096  52.630  1.00  0.00     0.028 A 
HETATM   12  C14 UNL     1      22.222  -0.549  53.645  1.00  0.00    -0.027 A 
HETATM   13  C15 UNL     1      23.526  -0.325  53.709  1.00  0.00     0.021 C 
HETATM   14  C16 UNL     1      24.725   0.283  53.140  1.00  0.00     0.202 C 
HETATM   15  C18 UNL     1      21.535  -1.357  54.685  1.00  0.00     0.159 A 
HETATM   16  N3  UNL     1      20.188  -1.447  54.208  1.00  0.00    -0.382 N 
HETATM   17  H12 UNL     1      22.099   1.625  49.893  1.00  0.00     0.165 HD
HETATM   18  H21 UNL     1      19.440  -2.008  54.676  1.00  0.00     0.160 HD
ENDROOT
BRANCH   1  19
HETATM   19  O1  UNL     1      25.600   2.248  52.124  1.00  0.00    -0.349 OA
BRANCH  19  20
HETATM   20  C5  UNL     1      26.445   2.545  53.194  1.00  0.00     0.195 C 
BRANCH  20  21
HETATM   21  C4  UNL     1      27.887   2.157  52.924  1.00  0.00     0.145 C 
BRANCH  21  22
HETATM   22  N1  UNL     1      28.531   1.977  54.207  1.00  0.00    -0.397 N 
HETATM   23  H6  UNL     1      28.675   2.643  55.009  1.00  0.00     0.158 HD
BRANCH  22  24
HETATM   24  C3  UNL     1      29.100   0.699  54.518  1.00  0.00     0.078 C 
HETATM   25  C2  UNL     1      29.572  -0.083  53.541  1.00  0.00    -0.014 C 
HETATM   26  C1  UNL     1      30.165  -1.407  53.832  1.00  0.00     0.037 C 
ENDBRANCH  22  24
ENDBRANCH  21  22
ENDBRANCH  20  21
ENDBRANCH  19  20
ENDBRANCH   1  19
BRANCH  14  27
HETATM   27  O2  UNL     1      25.483  -0.732  52.511  1.00  0.00    -0.380 OA
HETATM   28  C17 UNL     1      26.193  -1.341  53.559  1.00  0.00     0.202 C 
ENDBRANCH  14  27
TORSDOF 6
ENDMDL
MODEL 3
REMARK VINA RESULT:      -7.6      4.145      8.852
REMARK  6 active torsions:
REMARK  status: ('A' for Active; 'I' for Inactive)
REMARK    1  A    between atoms: C3_3  and  N1_4 
REMARK    2  A    between atoms: N1_4  and  C4_5 
REMARK    3  A    between atoms: C4_5  and  C5_6 
REMARK    4  A    between atoms: C5_6  and  O1_7 
REMARK    5  A    between atoms: O1_7  and  C6_8 
REMARK    6  A    between atoms: C16_21  and  O2_22 
ROOT
HETATM    1  C6  UNL     1      24.697   1.710  51.914  1.00  0.00     0.094 C 
HETATM    2  C7  UNL     1      23.641   2.011  51.176  1.00  0.00     0.123 C 
HETATM    3  N2  UNL     1      22.366   1.427  50.982  1.00  0.00    -0.363 N 
HETATM    4  C8  UNL     1      21.468   0.649  51.799  1.00  0.00     0.047 A 
HETATM    5  C9  UNL     1      20.205   0.694  51.252  1.00  0.00     0.057 A 
HETATM    6  C10 UNL     1      19.165   0.027  51.855  1.00  0.00     0.077 A 
HETATM    7 CL1  UNL     1      17.561   0.090  51.153  1.00  0.00    -0.081 Cl
HETATM    8  C11 UNL     1      19.453  -0.673  53.007  1.00  0.00     0.165 A 
HETATM    9  F1  UNL     1      18.372  -1.317  53.559  1.00  0.00    -0.202 F 
HETATM   10  C12 UNL     1      20.702  -0.742  53.584  1.00  0.00     0.082 A 
HETATM   11  C13 UNL     1      21.736  -0.069  52.971  1.00  0.00     0.028 A 
HETATM   12  C14 UNL     1      22.910  -0.346  53.829  1.00  0.00    -0.027 A 
HETATM   13  C15 UNL     1      24.171   0.024  53.665  1.00  0.00     0.021 C 
HETATM   14  C16 UNL     1      25.182   0.724  52.877  1.00  0.00     0.202 C 
HETATM   15  C18 UNL     1      22.500  -1.158  55.003  1.00  0.00     0.159 A 
HETATM   16  N3  UNL     1      21.114  -1.426  54.761  1.00  0.00    -0.382 N 
HETATM   17  H12 UNL     1      21.929   1.558  50.056  1.00  0.00     0.165 HD
HETATM   18  H21 UNL     1      20.523  -2.035  55.372  1.00  0.00     0.160 HD
ENDROOT
BRANCH   1  19
HETATM   19  O1  UNL     1      25.642   2.705  51.644  1.00  0.00    -0.349 OA
BRANCH  19  20
HETATM   20  C5  UNL     1      26.446   2.760  50.504  1.00  0.00     0.195 C 
BRANCH  20  21
HETATM   21  C4  UNL     1      26.173   3.989  49.657  1.00  0.00     0.145 C 
BRANCH  21  22
HETATM   22  N1  UNL     1      27.448   4.465  49.167  1.00  0.00    -0.397 N 
HETATM   23  H6  UNL     1      28.406   4.031  49.194  1.00  0.00     0.158 HD
BRANCH  22  24
HETATM   24  C3  UNL     1      27.502   5.742  48.519  1.00  0.00     0.078 C 
HETATM   25  C2  UNL     1      28.650   6.183  47.995  1.00  0.00    -0.014 C 
HETATM   26  C1  UNL     1      28.736   7.497  47.321  1.00  0.00     0.037 C 
ENDBRANCH  22  24
ENDBRANCH  21  22
ENDBRANCH  20  21
ENDBRANCH  19  20
ENDBRANCH   1  19
BRANCH  14  27
HETATM   27  O2  UNL     1      25.945  -0.239  52.177  1.00  0.00    -0.380 OA
HETATM   28  C17 UNL     1      27.158  -0.307  52.883  1.00  0.00     0.202 C 
ENDBRANCH  14  27
TORSDOF 6
ENDMDL
MODEL 4
REMARK VINA RESULT:      -7.5      3.875      8.412
REMARK  6 active torsions:
REMARK  status: ('A' for Active; 'I' for Inactive)
REMARK    1  A    between atoms: C3_3  and  N1_4 
REMARK    2  A    between atoms: N1_4  and  C4_5 
REMARK    3  A    between atoms: C4_5  and  C5_6 
REMARK    4  A    between atoms: C5_6  and  O1_7 
REMARK    5  A    between atoms: O1_7  and  C6_8 
REMARK    6  A    between atoms: C16_21  and  O2_22 
ROOT
HETATM    1  C6  UNL     1      24.804   4.587  50.013  1.00  0.00     0.094 C 
HETATM    2  C7  UNL     1      26.045   4.159  50.176  1.00  0.00     0.123 C 
HETATM    3  N2  UNL     1      26.677   3.260  51.068  1.00  0.00    -0.363 N 
HETATM    4  C8  UNL     1      26.266   2.074  51.779  1.00  0.00     0.047 A 
HETATM    5  C9  UNL     1      27.383   1.374  52.177  1.00  0.00     0.057 A 
HETATM    6  C10 UNL     1      27.250   0.197  52.876  1.00  0.00     0.077 A 
HETATM    7 CL1  UNL     1      28.678  -0.687  53.377  1.00  0.00    -0.081 Cl
HETATM    8  C11 UNL     1      25.969  -0.229  53.149  1.00  0.00     0.165 A 
HETATM    9  F1  UNL     1      25.906  -1.409  53.850  1.00  0.00    -0.202 F 
HETATM   10  C12 UNL     1      24.827   0.444  52.769  1.00  0.00     0.082 A 
HETATM   11  C13 UNL     1      24.972   1.621  52.069  1.00  0.00     0.028 A 
HETATM   12  C14 UNL     1      23.585   2.072  51.824  1.00  0.00    -0.027 A 
HETATM   13  C15 UNL     1      23.157   3.177  51.232  1.00  0.00     0.021 C 
HETATM   14  C16 UNL     1      23.457   4.439  50.560  1.00  0.00     0.202 C 
HETATM   15  C18 UNL     1      22.624   1.072  52.356  1.00  0.00     0.159 A 
HETATM   16  N3  UNL     1      23.465   0.102  52.992  1.00  0.00    -0.382 N 
HETATM   17  H12 UNL     1      27.665   3.448  51.299  1.00  0.00     0.165 HD
HETATM   18  H21 UNL     1      23.104  -0.718  53.531  1.00  0.00     0.160 HD
ENDROOT
BRANCH   1  19
HETATM   19  O1  UNL     1      24.851   5.482  48.939  1.00  0.00    -0.349 OA
BRANCH  19  20
HETATM   20  C5  UNL     1      25.741   6.551  48.824  1.00  0.00     0.195 C 
BRANCH  20  21
HETATM   21  C4  UNL     1      25.408   7.692  49.766  1.00  0.00     0.145 C 
BRANCH  21  22
HETATM   22  N1  UNL     1      26.628   8.049  50.457  1.00  0.00    -0.397 N 
HETATM   23  H6  UNL     1      27.123   7.597  51.268  1.00  0.00     0.158 HD
BRANCH  22  24
HETATM   24  C3  UNL     1      27.348   9.210  50.023  1.00  0.00     0.078 C 
HETATM   25  C2  UNL     1      28.575   9.086  49.507  1.00  0.00    -0.014 C 
HETATM   26  C1  UNL     1      29.342  10.267  49.051  1.00  0.00     0.037 C 
ENDBRANCH  22  24
ENDBRANCH  21  22
ENDBRANCH  20  21
ENDBRANCH  19  20
ENDBRANCH   1  19
BRANCH  14  27
HETATM   27  O2  UNL     1      23.233   5.494  51.475  1.00  0.00    -0.380 OA
HETATM   28  C17 UNL     1      21.917   5.911  51.215  1.00  0.00     0.202 C 
ENDBRANCH  14  27
TORSDOF 6
ENDMDL
MODEL 5
REMARK VINA RESULT:      -7.5      4.129      7.691
REMARK  6 active torsions:
REMARK  status: ('A' for Active; 'I' for Inactive)
REMARK    1  A    between atoms: C3_3  and  N1_4 
REMARK    2  A    between atoms: N1_4  and  C4_5 
REMARK    3  A    between atoms: C4_5  and  C5_6 
REMARK    4  A    between atoms: C5_6  and  O1_7 
REMARK    5  A    between atoms: O1_7  and  C6_8 
REMARK    6  A    between atoms: C16_21  and  O2_22 
ROOT
HETATM    1  C6  UNL     1      24.385   1.557  52.173  1.00  0.00     0.094 C 
HETATM    2  C7  UNL     1      23.711   0.870  53.082  1.00  0.00     0.123 C 
HETATM    3  N2  UNL     1      22.339   0.611  53.315  1.00  0.00    -0.363 N 
HETATM    4  C8  UNL     1      21.170   0.489  52.479  1.00  0.00     0.047 A 
HETATM    5  C9  UNL     1      20.180  -0.166  53.177  1.00  0.00     0.057 A 
HETATM    6  C10 UNL     1      18.961  -0.408  52.589  1.00  0.00     0.077 A 
HETATM    7 CL1  UNL     1      17.708  -1.244  53.485  1.00  0.00    -0.081 Cl
HETATM    8  C11 UNL     1      18.791   0.034  51.294  1.00  0.00     0.165 A 
HETATM    9  F1  UNL     1      17.552  -0.237  50.766  1.00  0.00    -0.202 F 
HETATM   10  C12 UNL     1      19.756   0.694  50.564  1.00  0.00     0.082 A 
HETATM   11  C13 UNL     1      20.973   0.929  51.163  1.00  0.00     0.028 A 
HETATM   12  C14 UNL     1      21.757   1.639  50.129  1.00  0.00    -0.027 A 
HETATM   13  C15 UNL     1      22.982   2.138  50.204  1.00  0.00     0.021 C 
HETATM   14  C16 UNL     1      24.194   2.381  50.981  1.00  0.00     0.202 C 
HETATM   15  C18 UNL     1      20.965   1.749  48.878  1.00  0.00     0.159 A 
HETATM   16  N3  UNL     1      19.694   1.191  49.233  1.00  0.00    -0.382 N 
HETATM   17  H12 UNL     1      22.051   0.467  54.295  1.00  0.00     0.165 HD
HETATM   18  H21 UNL     1      18.867   1.169  48.593  1.00  0.00     0.160 HD
ENDROOT
BRANCH   1  19
HETATM   19  O1  UNL     1      25.733   1.411  52.514  1.00  0.00    -0.349 OA
BRANCH  19  20
HETATM   20  C5  UNL     1      26.342   1.974  53.637  1.00  0.00     0.195 C 
BRANCH  20  21
HETATM   21  C4  UNL     1      27.806   2.296  53.406  1.00  0.00     0.145 C 
BRANCH  21  22
HETATM   22  N1  UNL     1      28.566   1.590  54.415  1.00  0.00    -0.397 N 
HETATM   23  H6  UNL     1      28.671   1.760  55.448  1.00  0.00     0.158 HD
BRANCH  22  24
HETATM   24  C3  UNL     1      29.338   0.449  54.021  1.00  0.00     0.078 C 
HETATM   25  C2  UNL     1      28.730  -0.700  53.709  1.00  0.00    -0.014 C 
HETATM   26  C1  UNL     1      29.501  -1.894  53.298  1.00  0.00     0.037 C 
ENDBRANCH  22  24
ENDBRANCH  21  22
ENDBRANCH  20  21
ENDBRANCH  19  20
ENDBRANCH   1  19
BRANCH  14  27
HETATM   27  O2  UNL     1      24.205   3.738  51.377  1.00  0.00    -0.380 OA
HETATM   28  C17 UNL     1      25.154   4.342  50.536  1.00  0.00     0.202 C 
ENDBRANCH  14  27
TORSDOF 6
ENDMDL
MODEL 6
REMARK VINA RESULT:      -7.3      3.474      5.820
REMARK  6 active torsions:
REMARK  status: ('A' for Active; 'I' for Inactive)
REMARK    1  A    between atoms: C3_3  and  N1_4 
REMARK    2  A    between atoms: N1_4  and  C4_5 
REMARK    3  A    between atoms: C4_5  and  C5_6 
REMARK    4  A    between atoms: C5_6  and  O1_7 
REMARK    5  A    between atoms: O1_7  and  C6_8 
REMARK    6  A    between atoms: C16_21  and  O2_22 
ROOT
HETATM    1  C6  UNL     1      23.401   1.963  52.765  1.00  0.00     0.094 C 
HETATM    2  C7  UNL     1      24.315   2.858  53.104  1.00  0.00     0.123 C 
HETATM    3  N2  UNL     1      25.599   2.791  53.696  1.00  0.00    -0.363 N 
HETATM    4  C8  UNL     1      26.668   1.822  53.702  1.00  0.00     0.047 A 
HETATM    5  C9  UNL     1      27.835   2.437  54.095  1.00  0.00     0.057 A 
HETATM    6  C10 UNL     1      29.004   1.718  54.178  1.00  0.00     0.077 A 
HETATM    7 CL1  UNL     1      30.484   2.511  54.678  1.00  0.00    -0.081 Cl
HETATM    8  C11 UNL     1      28.941   0.380  53.854  1.00  0.00     0.165 A 
HETATM    9  F1  UNL     1      30.141  -0.281  53.958  1.00  0.00    -0.202 F 
HETATM   10  C12 UNL     1      27.793  -0.271  53.458  1.00  0.00     0.082 A 
HETATM   11  C13 UNL     1      26.628   0.459  53.378  1.00  0.00     0.028 A 
HETATM   12  C14 UNL     1      25.613  -0.521  52.934  1.00  0.00    -0.027 A 
HETATM   13  C15 UNL     1      24.313  -0.351  52.746  1.00  0.00     0.021 C 
HETATM   14  C16 UNL     1      23.144   0.524  52.772  1.00  0.00     0.202 C 
HETATM   15  C18 UNL     1      26.251  -1.841  52.696  1.00  0.00     0.159 A 
HETATM   16  N3  UNL     1      27.610  -1.636  53.101  1.00  0.00    -0.382 N 
HETATM   17  H12 UNL     1      25.892   3.597  54.269  1.00  0.00     0.165 HD
HETATM   18  H21 UNL     1      28.332  -2.393  53.123  1.00  0.00     0.160 HD
ENDROOT
BRANCH   1  19
HETATM   19  O1  UNL     1      22.341   2.694  52.218  1.00  0.00    -0.349 OA
BRANCH  19  20
HETATM   20  C5  UNL     1      21.970   2.685  50.873  1.00  0.00     0.195 C 
BRANCH  20  21
HETATM   21  C4  UNL     1      22.107   4.048  50.221  1.00  0.00     0.145 C 
BRANCH  21  22
HETATM   22  N1  UNL     1      22.974   3.890  49.074  1.00  0.00    -0.397 N 
HETATM   23  H6  UNL     1      22.836   4.143  48.062  1.00  0.00     0.158 HD
BRANCH  22  24
HETATM   24  C3  UNL     1      24.263   3.293  49.263  1.00  0.00     0.078 C 
HETATM   25  C2  UNL     1      25.267   4.009  49.780  1.00  0.00    -0.014 C 
HETATM   26  C1  UNL     1      26.608   3.419  49.988  1.00  0.00     0.037 C 
ENDBRANCH  22  24
ENDBRANCH  21  22
ENDBRANCH  20  21
ENDBRANCH  19  20
ENDBRANCH   1  19
BRANCH  14  27
HETATM   27  O2  UNL     1      22.383   0.217  53.923  1.00  0.00    -0.380 OA
HETATM   28  C17 UNL     1      22.170  -1.170  53.844  1.00  0.00     0.202 C 
ENDBRANCH  14  27
TORSDOF 6
ENDMDL
MODEL 7
REMARK VINA RESULT:      -7.3      4.190      8.385
REMARK  6 active torsions:
REMARK  status: ('A' for Active; 'I' for Inactive)
REMARK    1  A    between atoms: C3_3  and  N1_4 
REMARK    2  A    between atoms: N1_4  and  C4_5 
REMARK    3  A    between atoms: C4_5  and  C5_6 
REMARK    4  A    between atoms: C5_6  and  O1_7 
REMARK    5  A    between atoms: O1_7  and  C6_8 
REMARK    6  A    between atoms: C16_21  and  O2_22 
ROOT
HETATM    1  C6  UNL     1      21.815   2.859  51.562  1.00  0.00     0.094 C 
HETATM    2  C7  UNL     1      20.580   2.722  51.110  1.00  0.00     0.123 C 
HETATM    3  N2  UNL     1      19.639   1.664  51.095  1.00  0.00    -0.363 N 
HETATM    4  C8  UNL     1      19.358   0.540  51.955  1.00  0.00     0.047 A 
HETATM    5  C9  UNL     1      18.090   0.073  51.691  1.00  0.00     0.057 A 
HETATM    6  C10 UNL     1      17.587  -1.000  52.388  1.00  0.00     0.077 A 
HETATM    7 CL1  UNL     1      15.971  -1.585  52.046  1.00  0.00    -0.081 Cl
HETATM    8  C11 UNL     1      18.406  -1.568  53.340  1.00  0.00     0.165 A 
HETATM    9  F1  UNL     1      17.845  -2.636  53.999  1.00  0.00    -0.202 F 
HETATM   10  C12 UNL     1      19.680  -1.131  53.632  1.00  0.00     0.082 A 
HETATM   11  C13 UNL     1      20.172  -0.055  52.927  1.00  0.00     0.028 A 
HETATM   12  C14 UNL     1      21.532   0.148  53.475  1.00  0.00    -0.027 A 
HETATM   13  C15 UNL     1      22.457   1.024  53.114  1.00  0.00     0.021 C 
HETATM   14  C16 UNL     1      22.875   2.123  52.249  1.00  0.00     0.202 C 
HETATM   15  C18 UNL     1      21.785  -0.818  54.575  1.00  0.00     0.159 A 
HETATM   16  N3  UNL     1      20.608  -1.634  54.585  1.00  0.00    -0.382 N 
HETATM   17  H12 UNL     1      18.971   1.643  50.309  1.00  0.00     0.165 HD
HETATM   18  H21 UNL     1      20.480  -2.466  55.206  1.00  0.00     0.160 HD
ENDROOT
BRANCH   1  19
HETATM   19  O1  UNL     1      22.186   4.172  51.256  1.00  0.00    -0.349 OA
BRANCH  19  20
HETATM   20  C5  UNL     1      23.167   4.905  51.924  1.00  0.00     0.195 C 
BRANCH  20  21
HETATM   21  C4  UNL     1      24.253   5.410  50.992  1.00  0.00     0.145 C 
BRANCH  21  22
HETATM   22  N1  UNL     1      24.395   4.437  49.931  1.00  0.00    -0.397 N 
HETATM   23  H6  UNL     1      23.686   3.824  49.454  1.00  0.00     0.158 HD
BRANCH  22  24
HETATM   24  C3  UNL     1      25.698   4.208  49.378  1.00  0.00     0.078 C 
HETATM   25  C2  UNL     1      26.513   5.238  49.127  1.00  0.00    -0.014 C 
HETATM   26  C1  UNL     1      27.863   5.031  48.557  1.00  0.00     0.037 C 
ENDBRANCH  22  24
ENDBRANCH  21  22
ENDBRANCH  20  21
ENDBRANCH  19  20
ENDBRANCH   1  19
BRANCH  14  27
HETATM   27  O2  UNL     1      23.760   1.609  51.273  1.00  0.00    -0.380 OA
HETATM   28  C17 UNL     1      25.000   1.534  51.927  1.00  0.00     0.202 C 
ENDBRANCH  14  27
TORSDOF 6
ENDMDL
MODEL 8
REMARK VINA RESULT:      -7.1      3.408      6.419
REMARK  6 active torsions:
REMARK  status: ('A' for Active; 'I' for Inactive)
REMARK    1  A    between atoms: C3_3  and  N1_4 
REMARK    2  A    between atoms: N1_4  and  C4_5 
REMARK    3  A    between atoms: C4_5  and  C5_6 
REMARK    4  A    between atoms: C5_6  and  O1_7 
REMARK    5  A    between atoms: O1_7  and  C6_8 
REMARK    6  A    between atoms: C16_21  and  O2_22 
ROOT
HETATM    1  C6  UNL     1      23.139   2.780  51.115  1.00  0.00     0.094 C 
HETATM    2  C7  UNL     1      24.357   3.295  51.147  1.00  0.00     0.123 C 
HETATM    3  N2  UNL     1      25.463   3.178  52.023  1.00  0.00    -0.363 N 
HETATM    4  C8  UNL     1      25.970   2.142  52.889  1.00  0.00     0.047 A 
HETATM    5  C9  UNL     1      27.286   2.411  53.195  1.00  0.00     0.057 A 
HETATM    6  C10 UNL     1      27.996   1.560  54.009  1.00  0.00     0.077 A 
HETATM    7 CL1  UNL     1      29.670   1.911  54.391  1.00  0.00    -0.081 Cl
HETATM    8  C11 UNL     1      27.331   0.454  54.492  1.00  0.00     0.165 A 
HETATM    9  F1  UNL     1      28.095  -0.353  55.299  1.00  0.00    -0.202 F 
HETATM   10  C12 UNL     1      26.016   0.152  54.210  1.00  0.00     0.082 A 
HETATM   11  C13 UNL     1      25.315   1.010  53.392  1.00  0.00     0.028 A 
HETATM   12  C14 UNL     1      23.969   0.405  53.297  1.00  0.00    -0.027 A 
HETATM   13  C15 UNL     1      22.892   0.855  52.671  1.00  0.00     0.021 C 
HETATM   14  C16 UNL     1      22.252   1.881  51.852  1.00  0.00     0.202 C 
HETATM   15  C18 UNL     1      23.935  -0.879  54.044  1.00  0.00     0.159 A 
HETATM   16  N3  UNL     1      25.233  -0.953  54.646  1.00  0.00    -0.382 N 
HETATM   17  H12 UNL     1      26.086   3.996  52.100  1.00  0.00     0.165 HD
HETATM   18  H21 UNL     1      25.529  -1.712  55.302  1.00  0.00     0.160 HD
ENDROOT
BRANCH   1  19
HETATM   19  O1  UNL     1      22.536   3.306  49.968  1.00  0.00    -0.349 OA
BRANCH  19  20
HETATM   20  C5  UNL     1      22.376   4.665  49.697  1.00  0.00     0.195 C 
BRANCH  20  21
HETATM   21  C4  UNL     1      21.326   5.315  50.578  1.00  0.00     0.145 C 
BRANCH  21  22
HETATM   22  N1  UNL     1      21.950   6.449  51.226  1.00  0.00    -0.397 N 
HETATM   23  H6  UNL     1      21.589   7.113  51.957  1.00  0.00     0.158 HD
BRANCH  22  24
HETATM   24  C3  UNL     1      23.293   6.794  50.864  1.00  0.00     0.078 C 
HETATM   25  C2  UNL     1      23.586   8.039  50.475  1.00  0.00    -0.014 C 
HETATM   26  C1  UNL     1      24.964   8.424  50.096  1.00  0.00     0.037 C 
ENDBRANCH  22  24
ENDBRANCH  21  22
ENDBRANCH  20  21
ENDBRANCH  19  20
ENDBRANCH   1  19
BRANCH  14  27
HETATM   27  O2  UNL     1      21.424   2.664  52.688  1.00  0.00    -0.380 OA
HETATM   28  C17 UNL     1      20.133   2.147  52.488  1.00  0.00     0.202 C 
ENDBRANCH  14  27
TORSDOF 6
ENDMDL
MODEL 9
REMARK VINA RESULT:      -7.0      5.061      7.404
REMARK  6 active torsions:
REMARK  status: ('A' for Active; 'I' for Inactive)
REMARK    1  A    between atoms: C3_3  and  N1_4 
REMARK    2  A    between atoms: N1_4  and  C4_5 
REMARK    3  A    between atoms: C4_5  and  C5_6 
REMARK    4  A    between atoms: C5_6  and  O1_7 
REMARK    5  A    between atoms: O1_7  and  C6_8 
REMARK    6  A    between atoms: C16_21  and  O2_22 
ROOT
HETATM    1  C6  UNL     1      24.963   2.918  51.355  1.00  0.00     0.094 C 
HETATM    2  C7  UNL     1      26.053   2.895  50.605  1.00  0.00     0.123 C 
HETATM    3  N2  UNL     1      26.593   3.747  49.612  1.00  0.00    -0.363 N 
HETATM    4  C8  UNL     1      26.548   5.166  49.354  1.00  0.00     0.047 A 
HETATM    5  C9  UNL     1      27.574   5.504  48.499  1.00  0.00     0.057 A 
HETATM    6  C10 UNL     1      27.744   6.809  48.103  1.00  0.00     0.077 A 
HETATM    7 CL1  UNL     1      29.053   7.229  47.016  1.00  0.00    -0.081 Cl
HETATM    8  C11 UNL     1      26.851   7.735  48.596  1.00  0.00     0.165 A 
HETATM    9  F1  UNL     1      27.075   9.019  48.162  1.00  0.00    -0.202 F 
HETATM   10  C12 UNL     1      25.812   7.436  49.451  1.00  0.00     0.082 A 
HETATM   11  C13 UNL     1      25.652   6.126  49.842  1.00  0.00     0.028 A 
HETATM   12  C14 UNL     1      24.474   6.153  50.737  1.00  0.00    -0.027 A 
HETATM   13  C15 UNL     1      23.864   5.149  51.347  1.00  0.00     0.021 C 
HETATM   14  C16 UNL     1      23.770   3.718  51.623  1.00  0.00     0.202 C 
HETATM   15  C18 UNL     1      23.994   7.549  50.901  1.00  0.00     0.159 A 
HETATM   16  N3  UNL     1      24.838   8.302  50.021  1.00  0.00    -0.382 N 
HETATM   17  H12 UNL     1      27.163   3.303  48.875  1.00  0.00     0.165 HD
HETATM   18  H21 UNL     1      24.728   9.327  49.843  1.00  0.00     0.160 HD
ENDROOT
BRANCH   1  19
HETATM   19  O1  UNL     1      25.023   1.763  52.142  1.00  0.00    -0.349 OA
BRANCH  19  20
HETATM   20  C5  UNL     1      25.263   1.740  53.516  1.00  0.00     0.195 C 
BRANCH  20  21
HETATM   21  C4  UNL     1      25.718   0.378  54.006  1.00  0.00     0.145 C 
BRANCH  21  22
HETATM   22  N1  UNL     1      26.842   0.594  54.891  1.00  0.00    -0.397 N 
HETATM   23  H6  UNL     1      26.886   0.734  55.933  1.00  0.00     0.158 HD
BRANCH  22  24
HETATM   24  C3  UNL     1      28.161   0.638  54.330  1.00  0.00     0.078 C 
HETATM   25  C2  UNL     1      28.827  -0.496  54.088  1.00  0.00    -0.014 C 
HETATM   26  C1  UNL     1      30.189  -0.481  53.510  1.00  0.00     0.037 C 
ENDBRANCH  22  24
ENDBRANCH  21  22
ENDBRANCH  20  21
ENDBRANCH  19  20
ENDBRANCH   1  19
BRANCH  14  27
HETATM   27  O2  UNL     1      22.703   3.187  50.863  1.00  0.00    -0.380 OA
HETATM   28  C17 UNL     1      21.683   2.958  51.802  1.00  0.00     0.202 C 
ENDBRANCH  14  27
TORSDOF 6
ENDMDL
