MODEL 1
REMARK VINA RESULT:      -8.3      0.000      0.000
REMARK  6 active torsions:
REMARK  status: ('A' for Active; 'I' for Inactive)
REMARK    1  A    between atoms: C2_2  and  C3_3 
REMARK       I    between atoms: C3_3  and  N1_5 
REMARK    2  A    between atoms: N1_5  and  C4_6 
REMARK    3  A    between atoms: C6_8  and  N2_9 
REMARK    4  A    between atoms: N2_9  and  C7_10 
REMARK    5  A    between atoms: C12_16  and  C13_17 
REMARK    6  A    between atoms: C16_22  and  O2_23 
ROOT
HETATM    1  C4  UNL     1      27.813   5.716  48.411  1.00  0.00     0.043 A 
HETATM    2  C5  UNL     1      27.499   4.469  48.908  1.00  0.00     0.063 A 
HETATM    3  C6  UNL     1      26.308   4.109  49.494  1.00  0.00     0.085 A 
HETATM    4  C16 UNL     1      25.378   5.150  49.559  1.00  0.00     0.096 A 
HETATM    5  C18 UNL     1      25.664   6.400  49.071  1.00  0.00     0.048 A 
HETATM    6  C19 UNL     1      26.864   6.710  48.497  1.00  0.00    -0.032 A 
HETATM    7  C20 UNL     1      27.117   8.082  47.987  1.00  0.00     0.050 C 
ENDROOT
BRANCH   3   8
HETATM    8  N2  UNL     1      26.026   2.818  49.992  1.00  0.00    -0.184 N 
HETATM    9  H6  UNL     1      25.489   2.213  49.324  1.00  0.00     0.184 HD
BRANCH   8  10
HETATM   10  C7  UNL     1      26.365   2.248  51.246  1.00  0.00     0.744 A 
HETATM   11  N3  UNL     1      27.488   2.476  51.934  1.00  0.00    -0.071 NA
HETATM   12  C8  UNL     1      27.795   1.931  53.117  1.00  0.00     0.168 A 
HETATM   13  C9  UNL     1      26.870   1.068  53.656  1.00  0.00     0.077 A 
HETATM   14  C10 UNL     1      26.774   0.311  54.805  1.00  0.00     0.035 A 
HETATM   15  N4  UNL     1      25.734   0.824  52.982  1.00  0.00    -0.221 N 
HETATM   16  C11 UNL     1      25.575  -0.374  54.794  1.00  0.00     0.030 A 
HETATM   17  C12 UNL     1      24.931  -0.036  53.633  1.00  0.00     0.041 A 
HETATM   18  N5  UNL     1      25.504   1.401  51.821  1.00  0.00     0.026 NA
BRANCH  17  19
HETATM   19  C13 UNL     1      23.598  -0.565  53.239  1.00  0.00     0.038 A 
HETATM   20  C14 UNL     1      22.407   0.357  53.554  1.00  0.00     0.011 A 
HETATM   21  C15 UNL     1      22.658  -0.888  54.346  1.00  0.00     0.011 A 
ENDBRANCH  17  19
ENDBRANCH   8  10
ENDBRANCH   3   8
BRANCH   4  22
HETATM   22  O2  UNL     1      24.150   4.872  50.134  1.00  0.00    -0.354 OA
HETATM   23  C17 UNL     1      23.847   5.450  51.384  1.00  0.00     0.210 C 
ENDBRANCH   4  22
BRANCH   1  24
HETATM   24  N1  UNL     1      29.050   6.047  47.816  1.00  0.00    -0.323 N 
HETATM   25  C3  UNL     1      30.439   5.916  48.134  1.00  0.00     0.244 C 
HETATM   26  O1  UNL     1      30.945   5.402  49.165  1.00  0.00    -0.268 OA
HETATM   27  H4  UNL     1      28.752   6.490  46.932  1.00  0.00     0.169 HD
BRANCH  25  28
HETATM   28  C2  UNL     1      31.381   6.436  47.154  1.00  0.00     0.064 C 
HETATM   29  C1  UNL     1      30.823   7.395  46.429  1.00  0.00     0.017 C 
ENDBRANCH  25  28
ENDBRANCH   1  24
TORSDOF 6
ENDMDL
MODEL 2
REMARK VINA RESULT:      -8.3      2.346      7.566
REMARK  6 active torsions:
REMARK  status: ('A' for Active; 'I' for Inactive)
REMARK    1  A    between atoms: C2_2  and  C3_3 
REMARK       I    between atoms: C3_3  and  N1_5 
REMARK    2  A    between atoms: N1_5  and  C4_6 
REMARK    3  A    between atoms: C6_8  and  N2_9 
REMARK    4  A    between atoms: N2_9  and  C7_10 
REMARK    5  A    between atoms: C12_16  and  C13_17 
REMARK    6  A    between atoms: C16_22  and  O2_23 
ROOT
HETATM    1  C4  UNL     1      26.229   0.887  52.453  1.00  0.00     0.043 A 
HETATM    2  C5  UNL     1      26.035   1.862  51.498  1.00  0.00     0.063 A 
HETATM    3  C6  UNL     1      24.820   2.324  51.051  1.00  0.00     0.085 A 
HETATM    4  C16 UNL     1      23.725   1.708  51.663  1.00  0.00     0.096 A 
HETATM    5  C18 UNL     1      23.890   0.735  52.617  1.00  0.00     0.048 A 
HETATM    6  C19 UNL     1      25.120   0.308  53.029  1.00  0.00    -0.032 A 
HETATM    7  C20 UNL     1      25.236  -0.749  54.066  1.00  0.00     0.050 C 
ENDROOT
BRANCH   3   8
HETATM    8  N2  UNL     1      24.664   3.326  50.068  1.00  0.00    -0.184 N 
HETATM    9  H6  UNL     1      24.291   2.972  49.154  1.00  0.00     0.184 HD
BRANCH   8  10
HETATM   10  C7  UNL     1      24.939   4.715  50.154  1.00  0.00     0.744 A 
HETATM   11  N3  UNL     1      24.287   5.599  50.916  1.00  0.00    -0.071 NA
HETATM   12  C8  UNL     1      24.559   6.908  50.988  1.00  0.00     0.168 A 
HETATM   13  C9  UNL     1      25.596   7.366  50.209  1.00  0.00     0.077 A 
HETATM   14  C10 UNL     1      26.198   8.585  49.978  1.00  0.00     0.035 A 
HETATM   15  N4  UNL     1      26.265   6.495  49.436  1.00  0.00    -0.221 N 
HETATM   16  C11 UNL     1      27.220   8.417  49.066  1.00  0.00     0.030 A 
HETATM   17  C12 UNL     1      27.249   7.088  48.735  1.00  0.00     0.041 A 
HETATM   18  N5  UNL     1      25.938   5.219  49.420  1.00  0.00     0.026 NA
BRANCH  17  19
HETATM   19  C13 UNL     1      28.213   6.492  47.773  1.00  0.00     0.038 A 
HETATM   20  C14 UNL     1      29.384   5.722  48.410  1.00  0.00     0.011 A 
HETATM   21  C15 UNL     1      29.588   7.061  47.772  1.00  0.00     0.011 A 
ENDBRANCH  17  19
ENDBRANCH   8  10
ENDBRANCH   3   8
BRANCH   4  22
HETATM   22  O2  UNL     1      22.462   2.116  51.271  1.00  0.00    -0.354 OA
HETATM   23  C17 UNL     1      21.711   2.920  52.152  1.00  0.00     0.210 C 
ENDBRANCH   4  22
BRANCH   1  24
HETATM   24  N1  UNL     1      27.496   0.437  52.885  1.00  0.00    -0.323 N 
HETATM   25  C3  UNL     1      28.591   0.954  53.647  1.00  0.00     0.244 C 
HETATM   26  O1  UNL     1      28.688   2.089  54.181  1.00  0.00    -0.268 OA
HETATM   27  H4  UNL     1      27.532  -0.517  52.494  1.00  0.00     0.169 HD
BRANCH  25  28
HETATM   28  C2  UNL     1      29.731   0.066  53.829  1.00  0.00     0.064 C 
HETATM   29  C1  UNL     1      29.432  -1.167  53.447  1.00  0.00     0.017 C 
ENDBRANCH  25  28
ENDBRANCH   1  24
TORSDOF 6
ENDMDL
MODEL 3
REMARK VINA RESULT:      -7.7      2.190      7.589
REMARK  6 active torsions:
REMARK  status: ('A' for Active; 'I' for Inactive)
REMARK    1  A    between atoms: C2_2  and  C3_3 
REMARK       I    between atoms: C3_3  and  N1_5 
REMARK    2  A    between atoms: N1_5  and  C4_6 
REMARK    3  A    between atoms: C6_8  and  N2_9 
REMARK    4  A    between atoms: N2_9  and  C7_10 
REMARK    5  A    between atoms: C12_16  and  C13_17 
REMARK    6  A    between atoms: C16_22  and  O2_23 
ROOT
HETATM    1  C4  UNL     1      26.419   1.694  51.932  1.00  0.00     0.043 A 
HETATM    2  C5  UNL     1      26.580   2.563  50.875  1.00  0.00     0.063 A 
HETATM    3  C6  UNL     1      25.568   3.163  50.162  1.00  0.00     0.085 A 
HETATM    4  C16 UNL     1      24.288   2.816  50.603  1.00  0.00     0.096 A 
HETATM    5  C18 UNL     1      24.101   1.953  51.654  1.00  0.00     0.048 A 
HETATM    6  C19 UNL     1      25.139   1.381  52.332  1.00  0.00    -0.032 A 
HETATM    7  C20 UNL     1      24.873   0.454  53.461  1.00  0.00     0.050 C 
ENDROOT
BRANCH   3   8
HETATM    8  N2  UNL     1      25.775   4.050  49.083  1.00  0.00    -0.184 N 
HETATM    9  H6  UNL     1      25.032   4.002  48.345  1.00  0.00     0.184 HD
BRANCH   8  10
HETATM   10  C7  UNL     1      26.831   4.974  48.873  1.00  0.00     0.744 A 
HETATM   11  N3  UNL     1      28.089   4.666  48.541  1.00  0.00    -0.071 NA
HETATM   12  C8  UNL     1      29.076   5.550  48.346  1.00  0.00     0.168 A 
HETATM   13  C9  UNL     1      28.754   6.878  48.503  1.00  0.00     0.077 A 
HETATM   14  C10 UNL     1      29.426   8.078  48.404  1.00  0.00     0.035 A 
HETATM   15  N4  UNL     1      27.496   7.210  48.836  1.00  0.00    -0.221 N 
HETATM   16  C11 UNL     1      28.551   9.108  48.682  1.00  0.00     0.030 A 
HETATM   17  C12 UNL     1      27.335   8.540  48.952  1.00  0.00     0.041 A 
HETATM   18  N5  UNL     1      26.579   6.280  49.011  1.00  0.00     0.026 NA
BRANCH  17  19
HETATM   19  C13 UNL     1      26.115   9.315  49.302  1.00  0.00     0.038 A 
HETATM   20  C14 UNL     1      25.084   9.464  48.168  1.00  0.00     0.011 A 
HETATM   21  C15 UNL     1      25.933  10.617  48.606  1.00  0.00     0.011 A 
ENDBRANCH  17  19
ENDBRANCH   8  10
ENDBRANCH   3   8
BRANCH   4  22
HETATM   22  O2  UNL     1      23.211   3.378  49.939  1.00  0.00    -0.354 OA
HETATM   23  C17 UNL     1      22.352   4.235  50.656  1.00  0.00     0.210 C 
ENDBRANCH   4  22
BRANCH   1  24
HETATM   24  N1  UNL     1      27.486   1.096  52.640  1.00  0.00    -0.323 N 
HETATM   25  C3  UNL     1      28.493   1.508  53.569  1.00  0.00     0.244 C 
HETATM   26  O1  UNL     1      28.684   2.661  54.033  1.00  0.00    -0.268 OA
HETATM   27  H4  UNL     1      27.427   0.113  52.329  1.00  0.00     0.169 HD
BRANCH  25  28
HETATM   28  C2  UNL     1      29.406   0.475  54.036  1.00  0.00     0.064 C 
HETATM   29  C1  UNL     1      29.161  -0.678  53.430  1.00  0.00     0.017 C 
ENDBRANCH  25  28
ENDBRANCH   1  24
TORSDOF 6
ENDMDL
MODEL 4
REMARK VINA RESULT:      -7.6      2.618      7.540
REMARK  6 active torsions:
REMARK  status: ('A' for Active; 'I' for Inactive)
REMARK    1  A    between atoms: C2_2  and  C3_3 
REMARK       I    between atoms: C3_3  and  N1_5 
REMARK    2  A    between atoms: N1_5  and  C4_6 
REMARK    3  A    between atoms: C6_8  and  N2_9 
REMARK    4  A    between atoms: N2_9  and  C7_10 
REMARK    5  A    between atoms: C12_16  and  C13_17 
REMARK    6  A    between atoms: C16_22  and  O2_23 
ROOT
HETATM    1  C4  UNL     1      26.163   0.476  52.759  1.00  0.00     0.043 A 
HETATM    2  C5  UNL     1      25.911   1.339  51.715  1.00  0.00     0.063 A 
HETATM    3  C6  UNL     1      24.692   1.889  51.398  1.00  0.00     0.085 A 
HETATM    4  C16 UNL     1      23.659   1.497  52.255  1.00  0.00     0.096 A 
HETATM    5  C18 UNL     1      23.883   0.639  53.303  1.00  0.00     0.048 A 
HETATM    6  C19 UNL     1      25.115   0.116  53.577  1.00  0.00    -0.032 A 
HETATM    7  C20 UNL     1      25.296  -0.808  54.726  1.00  0.00     0.050 C 
ENDROOT
BRANCH   3   8
HETATM    8  N2  UNL     1      24.474   2.771  50.317  1.00  0.00    -0.184 N 
HETATM    9  H6  UNL     1      23.549   2.642  49.842  1.00  0.00     0.184 HD
BRANCH   8  10
HETATM   10  C7  UNL     1      25.325   3.784  49.803  1.00  0.00     0.744 A 
HETATM   11  N3  UNL     1      26.557   3.603  49.319  1.00  0.00    -0.071 NA
HETATM   12  C8  UNL     1      27.349   4.570  48.837  1.00  0.00     0.168 A 
HETATM   13  C9  UNL     1      26.838   5.847  48.847  1.00  0.00     0.077 A 
HETATM   14  C10 UNL     1      27.283   7.094  48.464  1.00  0.00     0.035 A 
HETATM   15  N4  UNL     1      25.601   6.051  49.329  1.00  0.00    -0.221 N 
HETATM   16  C11 UNL     1      26.299   8.025  48.727  1.00  0.00     0.030 A 
HETATM   17  C12 UNL     1      25.241   7.346  49.273  1.00  0.00     0.041 A 
HETATM   18  N5  UNL     1      24.883   5.047  49.787  1.00  0.00     0.026 NA
BRANCH  17  19
HETATM   19  C13 UNL     1      23.971   7.992  49.700  1.00  0.00     0.038 A 
HETATM   20  C14 UNL     1      22.752   7.694  48.809  1.00  0.00     0.011 A 
HETATM   21  C15 UNL     1      23.419   9.034  48.795  1.00  0.00     0.011 A 
ENDBRANCH  17  19
ENDBRANCH   8  10
ENDBRANCH   3   8
BRANCH   4  22
HETATM   22  O2  UNL     1      22.396   2.007  52.007  1.00  0.00    -0.354 OA
HETATM   23  C17 UNL     1      21.324   1.104  51.862  1.00  0.00     0.210 C 
ENDBRANCH   4  22
BRANCH   1  24
HETATM   24  N1  UNL     1      27.433  -0.070  53.051  1.00  0.00    -0.323 N 
HETATM   25  C3  UNL     1      28.500   0.182  53.970  1.00  0.00     0.244 C 
HETATM   26  O1  UNL     1      28.557   1.076  54.854  1.00  0.00    -0.268 OA
HETATM   27  H4  UNL     1      27.500  -0.839  52.366  1.00  0.00     0.169 HD
BRANCH  25  28
HETATM   28  C2  UNL     1      29.658  -0.696  53.878  1.00  0.00     0.064 C 
HETATM   29  C1  UNL     1      29.328  -1.852  53.319  1.00  0.00     0.017 C 
ENDBRANCH  25  28
ENDBRANCH   1  24
TORSDOF 6
ENDMDL
MODEL 5
REMARK VINA RESULT:      -7.6      3.228      8.037
REMARK  6 active torsions:
REMARK  status: ('A' for Active; 'I' for Inactive)
REMARK    1  A    between atoms: C2_2  and  C3_3 
REMARK       I    between atoms: C3_3  and  N1_5 
REMARK    2  A    between atoms: N1_5  and  C4_6 
REMARK    3  A    between atoms: C6_8  and  N2_9 
REMARK    4  A    between atoms: N2_9  and  C7_10 
REMARK    5  A    between atoms: C12_16  and  C13_17 
REMARK    6  A    between atoms: C16_22  and  O2_23 
ROOT
HETATM    1  C4  UNL     1      23.724  -0.008  53.751  1.00  0.00     0.043 A 
HETATM    2  C5  UNL     1      23.237   0.837  52.777  1.00  0.00     0.063 A 
HETATM    3  C6  UNL     1      21.910   1.082  52.511  1.00  0.00     0.085 A 
HETATM    4  C16 UNL     1      21.032   0.380  53.341  1.00  0.00     0.096 A 
HETATM    5  C18 UNL     1      21.491  -0.467  54.319  1.00  0.00     0.048 A 
HETATM    6  C19 UNL     1      22.821  -0.680  54.545  1.00  0.00    -0.032 A 
HETATM    7  C20 UNL     1      23.258  -1.609  55.618  1.00  0.00     0.050 C 
ENDROOT
BRANCH   3   8
HETATM    8  N2  UNL     1      21.451   1.957  51.502  1.00  0.00    -0.184 N 
HETATM    9  H6  UNL     1      20.696   1.550  50.898  1.00  0.00     0.184 HD
BRANCH   8  10
HETATM   10  C7  UNL     1      21.867   3.281  51.208  1.00  0.00     0.744 A 
HETATM   11  N3  UNL     1      21.205   4.399  51.521  1.00  0.00    -0.071 NA
HETATM   12  C8  UNL     1      21.611   5.643  51.237  1.00  0.00     0.168 A 
HETATM   13  C9  UNL     1      22.807   5.764  50.568  1.00  0.00     0.077 A 
HETATM   14  C10 UNL     1      23.575   6.806  50.094  1.00  0.00     0.035 A 
HETATM   15  N4  UNL     1      23.488   4.653  50.244  1.00  0.00    -0.221 N 
HETATM   16  C11 UNL     1      24.706   6.294  49.491  1.00  0.00     0.030 A 
HETATM   17  C12 UNL     1      24.634   4.930  49.596  1.00  0.00     0.041 A 
HETATM   18  N5  UNL     1      23.023   3.462  50.560  1.00  0.00     0.026 NA
BRANCH  17  19
HETATM   19  C13 UNL     1      25.668   4.000  49.068  1.00  0.00     0.038 A 
HETATM   20  C14 UNL     1      26.674   3.477  50.109  1.00  0.00     0.011 A 
HETATM   21  C15 UNL     1      27.072   4.491  49.082  1.00  0.00     0.011 A 
ENDBRANCH  17  19
ENDBRANCH   8  10
ENDBRANCH   3   8
BRANCH   4  22
HETATM   22  O2  UNL     1      19.675   0.570  53.141  1.00  0.00    -0.354 OA
HETATM   23  C17 UNL     1      18.882  -0.546  52.807  1.00  0.00     0.210 C 
ENDBRANCH   4  22
BRANCH   1  24
HETATM   24  N1  UNL     1      25.097  -0.235  53.992  1.00  0.00    -0.323 N 
HETATM   25  C3  UNL     1      26.249   0.544  54.328  1.00  0.00     0.244 C 
HETATM   26  O1  UNL     1      26.308   1.788  54.509  1.00  0.00    -0.268 OA
HETATM   27  H4  UNL     1      25.172  -1.257  53.868  1.00  0.00     0.169 HD
BRANCH  25  28
HETATM   28  C2  UNL     1      27.503  -0.181  54.478  1.00  0.00     0.064 C 
HETATM   29  C1  UNL     1      28.029  -0.459  53.294  1.00  0.00     0.017 C 
ENDBRANCH  25  28
ENDBRANCH   1  24
TORSDOF 6
ENDMDL
MODEL 6
REMARK VINA RESULT:      -7.5      2.855      8.088
REMARK  6 active torsions:
REMARK  status: ('A' for Active; 'I' for Inactive)
REMARK    1  A    between atoms: C2_2  and  C3_3 
REMARK       I    between atoms: C3_3  and  N1_5 
REMARK    2  A    between atoms: N1_5  and  C4_6 
REMARK    3  A    between atoms: C6_8  and  N2_9 
REMARK    4  A    between atoms: N2_9  and  C7_10 
REMARK    5  A    between atoms: C12_16  and  C13_17 
REMARK    6  A    between atoms: C16_22  and  O2_23 
ROOT
HETATM    1  C4  UNL     1      23.396   0.323  53.051  1.00  0.00     0.043 A 
HETATM    2  C5  UNL     1      24.296   0.998  52.256  1.00  0.00     0.063 A 
HETATM    3  C6  UNL     1      25.666   0.924  52.346  1.00  0.00     0.085 A 
HETATM    4  C16 UNL     1      26.118   0.068  53.354  1.00  0.00     0.096 A 
HETATM    5  C18 UNL     1      25.242  -0.617  54.159  1.00  0.00     0.048 A 
HETATM    6  C19 UNL     1      23.886  -0.510  54.032  1.00  0.00    -0.032 A 
HETATM    7  C20 UNL     1      22.988  -1.277  54.933  1.00  0.00     0.050 C 
ENDROOT
BRANCH   3   8
HETATM    8  N2  UNL     1      26.557   1.634  51.511  1.00  0.00    -0.184 N 
HETATM    9  H6  UNL     1      27.510   1.203  51.441  1.00  0.00     0.184 HD
BRANCH   8  10
HETATM   10  C7  UNL     1      26.334   2.825  50.772  1.00  0.00     0.744 A 
HETATM   11  N3  UNL     1      27.103   3.290  49.783  1.00  0.00    -0.071 NA
HETATM   12  C8  UNL     1      26.880   4.416  49.094  1.00  0.00     0.168 A 
HETATM   13  C9  UNL     1      25.765   5.142  49.443  1.00  0.00     0.077 A 
HETATM   14  C10 UNL     1      25.173   6.313  49.020  1.00  0.00     0.035 A 
HETATM   15  N4  UNL     1      24.978   4.692  50.434  1.00  0.00    -0.221 N 
HETATM   16  C11 UNL     1      24.038   6.542  49.771  1.00  0.00     0.030 A 
HETATM   17  C12 UNL     1      23.930   5.505  50.660  1.00  0.00     0.041 A 
HETATM   18  N5  UNL     1      25.265   3.573  51.066  1.00  0.00     0.026 NA
BRANCH  17  19
HETATM   19  C13 UNL     1      22.833   5.376  51.656  1.00  0.00     0.038 A 
HETATM   20  C14 UNL     1      21.825   4.247  51.379  1.00  0.00     0.011 A 
HETATM   21  C15 UNL     1      21.460   5.684  51.176  1.00  0.00     0.011 A 
ENDBRANCH  17  19
ENDBRANCH   8  10
ENDBRANCH   3   8
BRANCH   4  22
HETATM   22  O2  UNL     1      27.486  -0.066  53.512  1.00  0.00    -0.354 OA
HETATM   23  C17 UNL     1      28.045   0.189  54.781  1.00  0.00     0.210 C 
ENDBRANCH   4  22
BRANCH   1  24
HETATM   24  N1  UNL     1      21.992   0.426  52.928  1.00  0.00    -0.323 N 
HETATM   25  C3  UNL     1      21.021   0.362  51.880  1.00  0.00     0.244 C 
HETATM   26  O1  UNL     1      21.226   0.171  50.654  1.00  0.00    -0.268 OA
HETATM   27  H4  UNL     1      21.702   0.589  53.905  1.00  0.00     0.169 HD
BRANCH  25  28
HETATM   28  C2  UNL     1      19.629   0.537  52.272  1.00  0.00     0.064 C 
HETATM   29  C1  UNL     1      18.819   0.282  51.255  1.00  0.00     0.017 C 
ENDBRANCH  25  28
ENDBRANCH   1  24
TORSDOF 6
ENDMDL
MODEL 7
REMARK VINA RESULT:      -7.5      2.810      7.756
REMARK  6 active torsions:
REMARK  status: ('A' for Active; 'I' for Inactive)
REMARK    1  A    between atoms: C2_2  and  C3_3 
REMARK       I    between atoms: C3_3  and  N1_5 
REMARK    2  A    between atoms: N1_5  and  C4_6 
REMARK    3  A    between atoms: C6_8  and  N2_9 
REMARK    4  A    between atoms: N2_9  and  C7_10 
REMARK    5  A    between atoms: C12_16  and  C13_17 
REMARK    6  A    between atoms: C16_22  and  O2_23 
ROOT
HETATM    1  C4  UNL     1      25.972   1.331  53.016  1.00  0.00     0.043 A 
HETATM    2  C5  UNL     1      25.628   2.628  52.700  1.00  0.00     0.063 A 
HETATM    3  C6  UNL     1      24.351   3.101  52.511  1.00  0.00     0.085 A 
HETATM    4  C16 UNL     1      23.362   2.127  52.670  1.00  0.00     0.096 A 
HETATM    5  C18 UNL     1      23.677   0.829  52.985  1.00  0.00     0.048 A 
HETATM    6  C19 UNL     1      24.964   0.405  53.162  1.00  0.00    -0.032 A 
HETATM    7  C20 UNL     1      25.243  -1.014  53.502  1.00  0.00     0.050 C 
ENDROOT
BRANCH   3   8
HETATM    8  N2  UNL     1      24.040   4.440  52.188  1.00  0.00    -0.184 N 
HETATM    9  H6  UNL     1      23.928   5.064  53.023  1.00  0.00     0.184 HD
BRANCH   8  10
HETATM   10  C7  UNL     1      23.865   5.036  50.912  1.00  0.00     0.744 A 
HETATM   11  N3  UNL     1      22.804   4.883  50.113  1.00  0.00    -0.071 NA
HETATM   12  C8  UNL     1      22.653   5.452  48.911  1.00  0.00     0.168 A 
HETATM   13  C9  UNL     1      23.681   6.256  48.476  1.00  0.00     0.077 A 
HETATM   14  C10 UNL     1      23.939   7.010  47.351  1.00  0.00     0.035 A 
HETATM   15  N4  UNL     1      24.756   6.424  49.262  1.00  0.00    -0.221 N 
HETATM   16  C11 UNL     1      25.172   7.616  47.488  1.00  0.00     0.030 A 
HETATM   17  C12 UNL     1      25.674   7.234  48.704  1.00  0.00     0.041 A 
HETATM   18  N5  UNL     1      24.831   5.829  50.435  1.00  0.00     0.026 NA
BRANCH  17  19
HETATM   19  C13 UNL     1      26.991   7.674  49.235  1.00  0.00     0.038 A 
HETATM   20  C14 UNL     1      26.950   8.909  50.152  1.00  0.00     0.011 A 
HETATM   21  C15 UNL     1      27.492   8.991  48.759  1.00  0.00     0.011 A 
ENDBRANCH  17  19
ENDBRANCH   8  10
ENDBRANCH   3   8
BRANCH   4  22
HETATM   22  O2  UNL     1      22.046   2.520  52.498  1.00  0.00    -0.354 OA
HETATM   23  C17 UNL     1      21.222   1.758  51.646  1.00  0.00     0.210 C 
ENDBRANCH   4  22
BRANCH   1  24
HETATM   24  N1  UNL     1      27.299   0.882  53.201  1.00  0.00    -0.323 N 
HETATM   25  C3  UNL     1      28.520   1.402  53.736  1.00  0.00     0.244 C 
HETATM   26  O1  UNL     1      28.716   2.539  54.235  1.00  0.00    -0.268 OA
HETATM   27  H4  UNL     1      27.259  -0.075  52.816  1.00  0.00     0.169 HD
BRANCH  25  28
HETATM   28  C2  UNL     1      29.673   0.514  53.703  1.00  0.00     0.064 C 
HETATM   29  C1  UNL     1      29.294  -0.741  53.506  1.00  0.00     0.017 C 
ENDBRANCH  25  28
ENDBRANCH   1  24
TORSDOF 6
ENDMDL
MODEL 8
REMARK VINA RESULT:      -7.4      3.600      7.313
REMARK  6 active torsions:
REMARK  status: ('A' for Active; 'I' for Inactive)
REMARK    1  A    between atoms: C2_2  and  C3_3 
REMARK       I    between atoms: C3_3  and  N1_5 
REMARK    2  A    between atoms: N1_5  and  C4_6 
REMARK    3  A    between atoms: C6_8  and  N2_9 
REMARK    4  A    between atoms: N2_9  and  C7_10 
REMARK    5  A    between atoms: C12_16  and  C13_17 
REMARK    6  A    between atoms: C16_22  and  O2_23 
ROOT
HETATM    1  C4  UNL     1      25.664   1.383  53.033  1.00  0.00     0.043 A 
HETATM    2  C5  UNL     1      25.244   2.677  52.813  1.00  0.00     0.063 A 
HETATM    3  C6  UNL     1      23.942   3.084  52.640  1.00  0.00     0.085 A 
HETATM    4  C16 UNL     1      23.013   2.042  52.706  1.00  0.00     0.096 A 
HETATM    5  C18 UNL     1      23.405   0.745  52.924  1.00  0.00     0.048 A 
HETATM    6  C19 UNL     1      24.713   0.388  53.090  1.00  0.00    -0.032 A 
HETATM    7  C20 UNL     1      25.076  -1.033  53.323  1.00  0.00     0.050 C 
ENDROOT
BRANCH   3   8
HETATM    8  N2  UNL     1      23.552   4.423  52.416  1.00  0.00    -0.184 N 
HETATM    9  H6  UNL     1      23.078   4.871  53.237  1.00  0.00     0.184 HD
BRANCH   8  10
HETATM   10  C7  UNL     1      23.714   5.220  51.254  1.00  0.00     0.744 A 
HETATM   11  N3  UNL     1      24.470   6.318  51.154  1.00  0.00    -0.071 NA
HETATM   12  C8  UNL     1      24.614   7.061  50.049  1.00  0.00     0.168 A 
HETATM   13  C9  UNL     1      23.921   6.647  48.935  1.00  0.00     0.077 A 
HETATM   14  C10 UNL     1      23.781   7.090  47.636  1.00  0.00     0.035 A 
HETATM   15  N4  UNL     1      23.156   5.547  49.012  1.00  0.00    -0.221 N 
HETATM   16  C11 UNL     1      22.929   6.240  46.960  1.00  0.00     0.030 A 
HETATM   17  C12 UNL     1      22.544   5.269  47.847  1.00  0.00     0.041 A 
HETATM   18  N5  UNL     1      23.066   4.868  50.138  1.00  0.00     0.026 NA
BRANCH  17  19
HETATM   19  C13 UNL     1      21.620   4.154  47.509  1.00  0.00     0.038 A 
HETATM   20  C14 UNL     1      22.284   2.773  47.366  1.00  0.00     0.011 A 
HETATM   21  C15 UNL     1      21.796   3.530  46.170  1.00  0.00     0.011 A 
ENDBRANCH  17  19
ENDBRANCH   8  10
ENDBRANCH   3   8
BRANCH   4  22
HETATM   22  O2  UNL     1      21.677   2.366  52.543  1.00  0.00    -0.354 OA
HETATM   23  C17 UNL     1      20.704   1.447  52.982  1.00  0.00     0.210 C 
ENDBRANCH   4  22
BRANCH   1  24
HETATM   24  N1  UNL     1      27.013   1.003  53.205  1.00  0.00    -0.323 N 
HETATM   25  C3  UNL     1      28.205   1.574  53.754  1.00  0.00     0.244 C 
HETATM   26  O1  UNL     1      28.339   2.706  54.284  1.00  0.00    -0.268 OA
HETATM   27  H4  UNL     1      27.025   0.056  52.793  1.00  0.00     0.169 HD
BRANCH  25  28
HETATM   28  C2  UNL     1      29.405   0.752  53.695  1.00  0.00     0.064 C 
HETATM   29  C1  UNL     1      29.092  -0.526  53.530  1.00  0.00     0.017 C 
ENDBRANCH  25  28
ENDBRANCH   1  24
TORSDOF 6
ENDMDL
MODEL 9
REMARK VINA RESULT:      -7.2      3.485      7.445
REMARK  6 active torsions:
REMARK  status: ('A' for Active; 'I' for Inactive)
REMARK    1  A    between atoms: C2_2  and  C3_3 
REMARK       I    between atoms: C3_3  and  N1_5 
REMARK    2  A    between atoms: N1_5  and  C4_6 
REMARK    3  A    between atoms: C6_8  and  N2_9 
REMARK    4  A    between atoms: N2_9  and  C7_10 
REMARK    5  A    between atoms: C12_16  and  C13_17 
REMARK    6  A    between atoms: C16_22  and  O2_23 
ROOT
HETATM    1  C4  UNL     1      25.929   0.678  52.774  1.00  0.00     0.043 A 
HETATM    2  C5  UNL     1      25.535   1.499  51.739  1.00  0.00     0.063 A 
HETATM    3  C6  UNL     1      24.240   1.838  51.426  1.00  0.00     0.085 A 
HETATM    4  C16 UNL     1      23.289   1.266  52.275  1.00  0.00     0.096 A 
HETATM    5  C18 UNL     1      23.654   0.446  53.313  1.00  0.00     0.048 A 
HETATM    6  C19 UNL     1      24.957   0.136  53.585  1.00  0.00    -0.032 A 
HETATM    7  C20 UNL     1      25.291  -0.757  54.723  1.00  0.00     0.050 C 
ENDROOT
BRANCH   3   8
HETATM    8  N2  UNL     1      23.877   2.683  50.354  1.00  0.00    -0.184 N 
HETATM    9  H6  UNL     1      23.619   2.171  49.477  1.00  0.00     0.184 HD
BRANCH   8  10
HETATM   10  C7  UNL     1      23.818   4.100  50.312  1.00  0.00     0.744 A 
HETATM   11  N3  UNL     1      24.852   4.934  50.463  1.00  0.00    -0.071 NA
HETATM   12  C8  UNL     1      24.781   6.270  50.420  1.00  0.00     0.168 A 
HETATM   13  C9  UNL     1      23.537   6.815  50.203  1.00  0.00     0.077 A 
HETATM   14  C10 UNL     1      23.020   8.088  50.088  1.00  0.00     0.035 A 
HETATM   15  N4  UNL     1      22.484   5.996  50.049  1.00  0.00    -0.221 N 
HETATM   16  C11 UNL     1      21.660   8.003  49.867  1.00  0.00     0.030 A 
HETATM   17  C12 UNL     1      21.339   6.672  49.844  1.00  0.00     0.041 A 
HETATM   18  N5  UNL     1      22.635   4.688  50.103  1.00  0.00     0.026 NA
BRANCH  17  19
HETATM   19  C13 UNL     1      19.962   6.152  49.630  1.00  0.00     0.038 A 
HETATM   20  C14 UNL     1      19.685   5.587  48.225  1.00  0.00     0.011 A 
HETATM   21  C15 UNL     1      19.114   6.900  48.663  1.00  0.00     0.011 A 
ENDBRANCH  17  19
ENDBRANCH   8  10
ENDBRANCH   3   8
BRANCH   4  22
HETATM   22  O2  UNL     1      21.958   1.557  52.030  1.00  0.00    -0.354 OA
HETATM   23  C17 UNL     1      21.071   0.491  51.778  1.00  0.00     0.210 C 
ENDBRANCH   4  22
BRANCH   1  24
HETATM   24  N1  UNL     1      27.273   0.352  53.063  1.00  0.00    -0.323 N 
HETATM   25  C3  UNL     1      28.419   1.007  53.614  1.00  0.00     0.244 C 
HETATM   26  O1  UNL     1      28.502   2.193  54.024  1.00  0.00    -0.268 OA
HETATM   27  H4  UNL     1      27.326  -0.633  52.758  1.00  0.00     0.169 HD
BRANCH  25  28
HETATM   28  C2  UNL     1      29.635   0.213  53.714  1.00  0.00     0.064 C 
HETATM   29  C1  UNL     1      29.371  -1.074  53.540  1.00  0.00     0.017 C 
ENDBRANCH  25  28
ENDBRANCH   1  24
TORSDOF 6
ENDMDL
