MODEL 1
REMARK VINA RESULT:      -7.9      0.000      0.000
REMARK  0 active torsions:
REMARK  status: ('A' for Active; 'I' for Inactive)
ROOT
HETATM    1 BR1  UNL     1      19.824   4.753  50.811  1.00  0.00    -0.051 Br
HETATM    2  C1  UNL     1      21.470   4.114  51.515  1.00  0.00     0.013 A 
HETATM    3  C2  UNL     1      22.373   4.952  52.130  1.00  0.00     0.021 A 
HETATM    4  C3  UNL     1      23.562   4.395  52.618  1.00  0.00     0.033 A 
HETATM    5  C4  UNL     1      23.876   3.059  52.518  1.00  0.00     0.059 A 
HETATM    6  C5  UNL     1      23.018   2.193  51.923  1.00  0.00     0.056 A 
HETATM    7  C6  UNL     1      21.834   2.771  51.440  1.00  0.00     0.050 A 
HETATM    8  N1  UNL     1      23.048   0.796  51.690  1.00  0.00    -0.388 N 
HETATM    9  C7  UNL     1      22.639  -0.307  52.521  1.00  0.00     0.123 C 
HETATM   10  C8  UNL     1      23.422  -0.469  53.794  1.00  0.00     0.047 C 
HETATM   11  C9  UNL     1      24.843  -0.755  53.568  1.00  0.00    -0.025 C 
HETATM   12  C10 UNL     1      26.118  -0.924  53.423  1.00  0.00    -0.003 C 
HETATM   13  C11 UNL     1      27.365  -1.485  53.024  1.00  0.00     0.016 C 
HETATM   14  C12 UNL     1      28.477  -0.920  53.359  1.00  0.00     0.083 C 
HETATM   15  N2  UNL     1      29.030   0.160  54.041  1.00  0.00    -0.397 N 
HETATM   16  C13 UNL     1      28.725   1.506  54.412  1.00  0.00     0.141 C 
HETATM   17  C14 UNL     1      28.659   2.478  53.256  1.00  0.00     0.169 C 
HETATM   18  N3  UNL     1      27.564   2.056  52.370  1.00  0.00    -0.283 NA
HETATM   19  C15 UNL     1      26.356   2.390  52.610  1.00  0.00     0.201 C 
HETATM   20  N4  UNL     1      25.143   2.886  53.100  1.00  0.00    -0.349 N 
HETATM   21  H4  UNL     1      23.446   0.879  50.729  1.00  0.00     0.159 HD
HETATM   22  H13 UNL     1      29.976  -0.196  54.365  1.00  0.00     0.158 HD
HETATM   23  H19 UNL     1      25.495   3.101  54.039  1.00  0.00     0.166 HD
ENDROOT
TORSDOF 0
ENDMDL
MODEL 2
REMARK VINA RESULT:      -7.8      2.661      4.859
REMARK  0 active torsions:
REMARK  status: ('A' for Active; 'I' for Inactive)
ROOT
HETATM    1 BR1  UNL     1      26.553   5.905  48.580  1.00  0.00    -0.051 Br
HETATM    2  C1  UNL     1      25.604   4.530  49.485  1.00  0.00     0.013 A 
HETATM    3  C2  UNL     1      24.343   4.138  49.095  1.00  0.00     0.021 A 
HETATM    4  C3  UNL     1      23.716   3.117  49.820  1.00  0.00     0.033 A 
HETATM    5  C4  UNL     1      24.291   2.484  50.899  1.00  0.00     0.059 A 
HETATM    6  C5  UNL     1      25.533   2.833  51.320  1.00  0.00     0.056 A 
HETATM    7  C6  UNL     1      26.141   3.858  50.581  1.00  0.00     0.050 A 
HETATM    8  N1  UNL     1      26.376   2.368  52.358  1.00  0.00    -0.388 N 
HETATM    9  C7  UNL     1      27.325   1.283  52.387  1.00  0.00     0.123 C 
HETATM   10  C8  UNL     1      26.731  -0.086  52.211  1.00  0.00     0.047 C 
HETATM   11  C9  UNL     1      25.798  -0.456  53.280  1.00  0.00    -0.025 C 
HETATM   12  C10 UNL     1      24.903  -0.794  54.152  1.00  0.00    -0.003 C 
HETATM   13  C11 UNL     1      24.285  -1.097  55.399  1.00  0.00     0.016 C 
HETATM   14  C12 UNL     1      23.042  -1.445  55.451  1.00  0.00     0.083 C 
HETATM   15  N2  UNL     1      21.906  -1.675  54.680  1.00  0.00    -0.397 N 
HETATM   16  C13 UNL     1      21.302  -1.266  53.452  1.00  0.00     0.141 C 
HETATM   17  C14 UNL     1      20.827   0.169  53.429  1.00  0.00     0.169 C 
HETATM   18  N3  UNL     1      22.002   1.038  53.600  1.00  0.00    -0.283 NA
HETATM   19  C15 UNL     1      22.737   1.355  52.607  1.00  0.00     0.201 C 
HETATM   20  N4  UNL     1      23.362   1.540  51.369  1.00  0.00    -0.349 N 
HETATM   21  H4  UNL     1      26.068   3.087  53.048  1.00  0.00     0.159 HD
HETATM   22  H13 UNL     1      21.357  -2.393  55.237  1.00  0.00     0.158 HD
HETATM   23  H19 UNL     1      22.898   0.753  50.904  1.00  0.00     0.166 HD
ENDROOT
TORSDOF 0
ENDMDL
MODEL 3
REMARK VINA RESULT:      -7.6      3.136      5.001
REMARK  0 active torsions:
REMARK  status: ('A' for Active; 'I' for Inactive)
ROOT
HETATM    1 BR1  UNL     1      17.142  -1.240  53.104  1.00  0.00    -0.051 Br
HETATM    2  C1  UNL     1      18.901  -0.592  52.793  1.00  0.00     0.013 A 
HETATM    3  C2  UNL     1      19.989  -1.077  53.483  1.00  0.00     0.021 A 
HETATM    4  C3  UNL     1      21.249  -0.541  53.190  1.00  0.00     0.033 A 
HETATM    5  C4  UNL     1      21.459   0.442  52.250  1.00  0.00     0.059 A 
HETATM    6  C5  UNL     1      20.420   0.951  51.541  1.00  0.00     0.056 A 
HETATM    7  C6  UNL     1      19.167   0.401  51.851  1.00  0.00     0.050 A 
HETATM    8  N1  UNL     1      20.322   1.928  50.521  1.00  0.00    -0.388 N 
HETATM    9  C7  UNL     1      20.461   1.816  49.091  1.00  0.00     0.123 C 
HETATM   10  C8  UNL     1      21.827   1.409  48.615  1.00  0.00     0.047 C 
HETATM   11  C9  UNL     1      22.873   2.377  48.957  1.00  0.00    -0.025 C 
HETATM   12  C10 UNL     1      23.844   3.157  49.309  1.00  0.00    -0.003 C 
HETATM   13  C11 UNL     1      24.652   4.322  49.451  1.00  0.00     0.016 C 
HETATM   14  C12 UNL     1      25.755   4.280  50.121  1.00  0.00     0.083 C 
HETATM   15  N2  UNL     1      26.590   3.448  50.862  1.00  0.00    -0.397 N 
HETATM   16  C13 UNL     1      26.540   2.282  51.685  1.00  0.00     0.141 C 
HETATM   17  C14 UNL     1      25.827   2.471  53.005  1.00  0.00     0.169 C 
HETATM   18  N3  UNL     1      24.425   2.812  52.718  1.00  0.00    -0.283 NA
HETATM   19  C15 UNL     1      23.562   1.903  52.478  1.00  0.00     0.201 C 
HETATM   20  N4  UNL     1      22.835   0.729  52.252  1.00  0.00    -0.349 N 
HETATM   21  H4  UNL     1      20.107   2.712  51.175  1.00  0.00     0.159 HD
HETATM   22  H13 UNL     1      27.556   3.869  50.731  1.00  0.00     0.158 HD
HETATM   23  H19 UNL     1      23.654   0.132  52.098  1.00  0.00     0.166 HD
ENDROOT
TORSDOF 0
ENDMDL
MODEL 4
REMARK VINA RESULT:      -7.2      2.314      2.556
REMARK  0 active torsions:
REMARK  status: ('A' for Active; 'I' for Inactive)
ROOT
HETATM    1 BR1  UNL     1      21.633   5.143  46.501  1.00  0.00    -0.051 Br
HETATM    2  C1  UNL     1      22.713   4.587  47.962  1.00  0.00     0.013 A 
HETATM    3  C2  UNL     1      23.747   5.361  48.440  1.00  0.00     0.021 A 
HETATM    4  C3  UNL     1      24.491   4.872  49.521  1.00  0.00     0.033 A 
HETATM    5  C4  UNL     1      24.247   3.663  50.130  1.00  0.00     0.059 A 
HETATM    6  C5  UNL     1      23.239   2.865  49.698  1.00  0.00     0.056 A 
HETATM    7  C6  UNL     1      22.507   3.372  48.614  1.00  0.00     0.050 A 
HETATM    8  N1  UNL     1      22.741   1.607  50.119  1.00  0.00    -0.388 N 
HETATM    9  C7  UNL     1      21.771   1.269  51.130  1.00  0.00     0.123 C 
HETATM   10  C8  UNL     1      22.167   1.620  52.536  1.00  0.00     0.047 C 
HETATM   11  C9  UNL     1      23.363   0.909  52.997  1.00  0.00    -0.025 C 
HETATM   12  C10 UNL     1      24.462   0.370  53.420  1.00  0.00    -0.003 C 
HETATM   13  C11 UNL     1      25.424  -0.612  53.794  1.00  0.00     0.016 C 
HETATM   14  C12 UNL     1      26.585  -0.261  54.236  1.00  0.00     0.083 C 
HETATM   15  N2  UNL     1      27.391   0.834  54.535  1.00  0.00    -0.397 N 
HETATM   16  C13 UNL     1      27.597   2.193  54.148  1.00  0.00     0.141 C 
HETATM   17  C14 UNL     1      28.149   2.375  52.752  1.00  0.00     0.169 C 
HETATM   18  N3  UNL     1      27.165   1.838  51.801  1.00  0.00    -0.283 NA
HETATM   19  C15 UNL     1      26.175   2.543  51.409  1.00  0.00     0.201 C 
HETATM   20  N4  UNL     1      25.202   3.513  51.151  1.00  0.00    -0.349 N 
HETATM   21  H4  UNL     1      23.311   1.058  49.440  1.00  0.00     0.159 HD
HETATM   22  H13 UNL     1      28.032   0.480  55.304  1.00  0.00     0.158 HD
HETATM   23  H19 UNL     1      25.428   4.099  51.962  1.00  0.00     0.166 HD
ENDROOT
TORSDOF 0
ENDMDL
MODEL 5
REMARK VINA RESULT:      -7.1      7.671      9.737
REMARK  0 active torsions:
REMARK  status: ('A' for Active; 'I' for Inactive)
ROOT
HETATM    1 BR1  UNL     1      24.626   8.482  49.922  1.00  0.00    -0.051 Br
HETATM    2  C1  UNL     1      26.302   7.839  49.300  1.00  0.00     0.013 A 
HETATM    3  C2  UNL     1      26.411   6.676  48.572  1.00  0.00     0.021 A 
HETATM    4  C3  UNL     1      27.687   6.277  48.155  1.00  0.00     0.033 A 
HETATM    5  C4  UNL     1      28.836   6.982  48.432  1.00  0.00     0.059 A 
HETATM    6  C5  UNL     1      28.781   8.136  49.144  1.00  0.00     0.056 A 
HETATM    7  C6  UNL     1      27.494   8.517  49.553  1.00  0.00     0.050 A 
HETATM    8  N1  UNL     1      29.759   9.070  49.563  1.00  0.00    -0.388 N 
HETATM    9  C7  UNL     1      30.316  10.216  48.890  1.00  0.00     0.123 C 
HETATM   10  C8  UNL     1      31.099   9.904  47.646  1.00  0.00     0.047 C 
HETATM   11  C9  UNL     1      32.285   9.080  47.898  1.00  0.00    -0.025 C 
HETATM   12  C10 UNL     1      33.294   8.283  48.056  1.00  0.00    -0.003 C 
HETATM   13  C11 UNL     1      34.534   7.757  48.518  1.00  0.00     0.016 C 
HETATM   14  C12 UNL     1      34.957   6.609  48.103  1.00  0.00     0.083 C 
HETATM   15  N2  UNL     1      34.654   5.530  47.278  1.00  0.00    -0.397 N 
HETATM   16  C13 UNL     1      33.529   4.839  46.732  1.00  0.00     0.141 C 
HETATM   17  C14 UNL     1      32.697   4.087  47.746  1.00  0.00     0.169 C 
HETATM   18  N3  UNL     1      32.138   5.068  48.688  1.00  0.00    -0.283 NA
HETATM   19  C15 UNL     1      31.070   5.710  48.414  1.00  0.00     0.201 C 
HETATM   20  N4  UNL     1      29.907   6.267  47.870  1.00  0.00    -0.349 N 
HETATM   21  H4  UNL     1      29.896   8.635  50.501  1.00  0.00     0.159 HD
HETATM   22  H13 UNL     1      35.603   5.144  46.998  1.00  0.00     0.158 HD
HETATM   23  H19 UNL     1      30.091   5.962  46.908  1.00  0.00     0.166 HD
ENDROOT
TORSDOF 0
ENDMDL
MODEL 6
REMARK VINA RESULT:      -7.0      3.538      7.064
REMARK  0 active torsions:
REMARK  status: ('A' for Active; 'I' for Inactive)
ROOT
HETATM    1 BR1  UNL     1      28.909   0.410  54.275  1.00  0.00    -0.051 Br
HETATM    2  C1  UNL     1      27.247   0.865  53.473  1.00  0.00     0.013 A 
HETATM    3  C2  UNL     1      26.045   0.607  54.092  1.00  0.00     0.021 A 
HETATM    4  C3  UNL     1      24.869   0.976  53.428  1.00  0.00     0.033 A 
HETATM    5  C4  UNL     1      24.848   1.582  52.193  1.00  0.00     0.059 A 
HETATM    6  C5  UNL     1      26.007   1.860  51.543  1.00  0.00     0.056 A 
HETATM    7  C6  UNL     1      27.173   1.482  52.225  1.00  0.00     0.050 A 
HETATM    8  N1  UNL     1      26.306   2.478  50.304  1.00  0.00    -0.388 N 
HETATM    9  C7  UNL     1      26.481   3.866  49.960  1.00  0.00     0.123 C 
HETATM   10  C8  UNL     1      25.258   4.723  50.130  1.00  0.00     0.047 C 
HETATM   11  C9  UNL     1      24.145   4.322  49.263  1.00  0.00    -0.025 C 
HETATM   12  C10 UNL     1      23.107   3.956  48.582  1.00  0.00    -0.003 C 
HETATM   13  C11 UNL     1      22.267   3.630  47.479  1.00  0.00     0.016 C 
HETATM   14  C12 UNL     1      21.046   3.255  47.669  1.00  0.00     0.083 C 
HETATM   15  N2  UNL     1      20.086   3.005  48.646  1.00  0.00    -0.397 N 
HETATM   16  C13 UNL     1      19.978   2.599  50.011  1.00  0.00     0.141 C 
HETATM   17  C14 UNL     1      20.385   1.168  50.277  1.00  0.00     0.169 C 
HETATM   18  N3  UNL     1      21.809   1.031  49.936  1.00  0.00    -0.283 NA
HETATM   19  C15 UNL     1      22.720   1.356  50.769  1.00  0.00     0.201 C 
HETATM   20  N4  UNL     1      23.500   1.780  51.850  1.00  0.00    -0.349 N 
HETATM   21  H4  UNL     1      26.360   1.581  49.773  1.00  0.00     0.159 HD
HETATM   22  H13 UNL     1      19.163   3.199  48.157  1.00  0.00     0.158 HD
HETATM   23  H19 UNL     1      22.744   2.282  52.327  1.00  0.00     0.166 HD
ENDROOT
TORSDOF 0
ENDMDL
MODEL 7
REMARK VINA RESULT:      -6.9      1.847      2.598
REMARK  0 active torsions:
REMARK  status: ('A' for Active; 'I' for Inactive)
ROOT
HETATM    1 BR1  UNL     1      16.726   3.131  51.200  1.00  0.00    -0.051 Br
HETATM    2  C1  UNL     1      18.592   2.953  51.511  1.00  0.00     0.013 A 
HETATM    3  C2  UNL     1      19.443   4.035  51.474  1.00  0.00     0.021 A 
HETATM    4  C3  UNL     1      20.804   3.812  51.715  1.00  0.00     0.033 A 
HETATM    5  C4  UNL     1      21.337   2.572  51.986  1.00  0.00     0.059 A 
HETATM    6  C5  UNL     1      20.540   1.476  52.036  1.00  0.00     0.056 A 
HETATM    7  C6  UNL     1      19.181   1.721  51.792  1.00  0.00     0.050 A 
HETATM    8  N1  UNL     1      20.782   0.106  52.303  1.00  0.00    -0.388 N 
HETATM    9  C7  UNL     1      20.836  -0.617  53.549  1.00  0.00     0.123 C 
HETATM   10  C8  UNL     1      21.946  -0.207  54.474  1.00  0.00     0.047 C 
HETATM   11  C9  UNL     1      23.282  -0.440  53.917  1.00  0.00    -0.025 C 
HETATM   12  C10 UNL     1      24.480  -0.547  53.437  1.00  0.00    -0.003 C 
HETATM   13  C11 UNL     1      25.661  -1.114  52.878  1.00  0.00     0.016 C 
HETATM   14  C12 UNL     1      26.687  -0.375  52.621  1.00  0.00     0.083 C 
HETATM   15  N2  UNL     1      27.177   0.927  52.672  1.00  0.00    -0.397 N 
HETATM   16  C13 UNL     1      26.724   2.281  52.632  1.00  0.00     0.141 C 
HETATM   17  C14 UNL     1      26.161   2.719  51.299  1.00  0.00     0.169 C 
HETATM   18  N3  UNL     1      24.975   1.896  51.016  1.00  0.00    -0.283 NA
HETATM   19  C15 UNL     1      23.833   2.197  51.501  1.00  0.00     0.201 C 
HETATM   20  N4  UNL     1      22.722   2.744  52.151  1.00  0.00    -0.349 N 
HETATM   21  H4  UNL     1      20.885  -0.159  51.299  1.00  0.00     0.159 HD
HETATM   22  H13 UNL     1      28.227   0.804  52.776  1.00  0.00     0.158 HD
HETATM   23  H19 UNL     1      23.262   3.335  52.792  1.00  0.00     0.166 HD
ENDROOT
TORSDOF 0
ENDMDL
MODEL 8
REMARK VINA RESULT:      -6.7      8.109      9.987
REMARK  0 active torsions:
REMARK  status: ('A' for Active; 'I' for Inactive)
ROOT
HETATM    1 BR1  UNL     1      24.542   4.246  49.404  1.00  0.00    -0.051 Br
HETATM    2  C1  UNL     1      25.707   5.747  49.374  1.00  0.00     0.013 A 
HETATM    3  C2  UNL     1      25.438   6.892  50.089  1.00  0.00     0.021 A 
HETATM    4  C3  UNL     1      26.352   7.950  50.008  1.00  0.00     0.033 A 
HETATM    5  C4  UNL     1      27.503   7.907  49.255  1.00  0.00     0.059 A 
HETATM    6  C5  UNL     1      27.814   6.800  48.534  1.00  0.00     0.056 A 
HETATM    7  C6  UNL     1      26.885   5.754  48.629  1.00  0.00     0.050 A 
HETATM    8  N1  UNL     1      28.905   6.455  47.699  1.00  0.00    -0.388 N 
HETATM    9  C7  UNL     1      30.187   5.877  48.014  1.00  0.00     0.123 C 
HETATM   10  C8  UNL     1      31.074   6.729  48.877  1.00  0.00     0.047 C 
HETATM   11  C9  UNL     1      31.448   8.000  48.248  1.00  0.00    -0.025 C 
HETATM   12  C10 UNL     1      31.736   9.169  47.772  1.00  0.00    -0.003 C 
HETATM   13  C11 UNL     1      32.234  10.185  46.907  1.00  0.00     0.016 C 
HETATM   14  C12 UNL     1      32.098  11.433  47.211  1.00  0.00     0.083 C 
HETATM   15  N2  UNL     1      31.594  12.309  48.169  1.00  0.00    -0.397 N 
HETATM   16  C13 UNL     1      30.568  12.392  49.159  1.00  0.00     0.141 C 
HETATM   17  C14 UNL     1      29.161  12.445  48.607  1.00  0.00     0.169 C 
HETATM   18  N3  UNL     1      28.911  11.189  47.884  1.00  0.00    -0.283 NA
HETATM   19  C15 UNL     1      28.538  10.136  48.502  1.00  0.00     0.201 C 
HETATM   20  N4  UNL     1      28.146   9.148  49.410  1.00  0.00    -0.349 N 
HETATM   21  H4  UNL     1      28.435   6.754  46.817  1.00  0.00     0.159 HD
HETATM   22  H13 UNL     1      32.215  13.166  48.087  1.00  0.00     0.158 HD
HETATM   23  H19 UNL     1      28.476   9.642  50.245  1.00  0.00     0.166 HD
ENDROOT
TORSDOF 0
ENDMDL
MODEL 9
REMARK VINA RESULT:      -6.7      3.278      5.957
REMARK  0 active torsions:
REMARK  status: ('A' for Active; 'I' for Inactive)
ROOT
HETATM    1 BR1  UNL     1      25.414   8.093  50.144  1.00  0.00    -0.051 Br
HETATM    2  C1  UNL     1      24.225   6.629  50.376  1.00  0.00     0.013 A 
HETATM    3  C2  UNL     1      23.123   6.451  49.570  1.00  0.00     0.021 A 
HETATM    4  C3  UNL     1      22.301   5.344  49.814  1.00  0.00     0.033 A 
HETATM    5  C4  UNL     1      22.533   4.426  50.812  1.00  0.00     0.059 A 
HETATM    6  C5  UNL     1      23.608   4.555  51.630  1.00  0.00     0.056 A 
HETATM    7  C6  UNL     1      24.417   5.671  51.370  1.00  0.00     0.050 A 
HETATM    8  N1  UNL     1      24.112   3.785  52.706  1.00  0.00    -0.388 N 
HETATM    9  C7  UNL     1      24.996   2.647  52.718  1.00  0.00     0.123 C 
HETATM   10  C8  UNL     1      24.458   1.416  52.046  1.00  0.00     0.047 C 
HETATM   11  C9  UNL     1      23.253   0.884  52.689  1.00  0.00    -0.025 C 
HETATM   12  C10 UNL     1      22.141   0.426  53.168  1.00  0.00    -0.003 C 
HETATM   13  C11 UNL     1      21.187  -0.111  54.080  1.00  0.00     0.016 C 
HETATM   14  C12 UNL     1      19.977  -0.353  53.701  1.00  0.00     0.083 C 
HETATM   15  N2  UNL     1      19.106  -0.294  52.617  1.00  0.00    -0.397 N 
HETATM   16  C13 UNL     1      18.884   0.446  51.416  1.00  0.00     0.141 C 
HETATM   17  C14 UNL     1      18.457   1.881  51.628  1.00  0.00     0.169 C 
HETATM   18  N3  UNL     1      19.546   2.579  52.328  1.00  0.00    -0.283 NA
HETATM   19  C15 UNL     1      20.540   3.059  51.686  1.00  0.00     0.201 C 
HETATM   20  N4  UNL     1      21.495   3.480  50.755  1.00  0.00    -0.349 N 
HETATM   21  H4  UNL     1      23.630   4.343  53.444  1.00  0.00     0.159 HD
HETATM   22  H13 UNL     1      18.410  -1.075  52.802  1.00  0.00     0.158 HD
HETATM   23  H19 UNL     1      21.172   2.869  49.998  1.00  0.00     0.166 HD
ENDROOT
TORSDOF 0
ENDMDL
