MODEL 1
REMARK VINA RESULT:      -7.4      0.000      0.000
REMARK  3 active torsions:
REMARK  status: ('A' for Active; 'I' for Inactive)
REMARK    1  A    between atoms: C1_2  and  C2_3 
REMARK    2  A    between atoms: C2_3  and  N1_4 
REMARK    3  A    between atoms: N1_4  and  C3_5 
ROOT
HETATM    1  C3  UNL     1      20.608   1.287  52.381  1.00  0.00     0.067 A 
HETATM    2  C4  UNL     1      20.806  -0.073  52.504  1.00  0.00     0.034 A 
HETATM    3  C5  UNL     1      22.080  -0.543  52.817  1.00  0.00     0.031 A 
HETATM    4  C6  UNL     1      23.171   0.277  53.015  1.00  0.00     0.030 A 
HETATM    5  C7  UNL     1      23.028   1.641  52.904  1.00  0.00    -0.030 A 
HETATM    6  C8  UNL     1      21.730   2.071  52.588  1.00  0.00     0.041 A 
HETATM    7  C9  UNL     1      23.878   2.804  53.034  1.00  0.00     0.046 C 
HETATM    8  C10 UNL     1      25.345   2.617  53.105  1.00  0.00     0.051 C 
HETATM    9  C11 UNL     1      25.900   1.957  51.903  1.00  0.00    -0.011 C 
HETATM   10 BR1  UNL     1      25.277   3.068  50.446  1.00  0.00    -0.056 Br
HETATM   11  C12 UNL     1      26.627   0.897  51.596  1.00  0.00     0.016 C 
HETATM   12  C13 UNL     1      27.265  -0.187  52.320  1.00  0.00     0.022 C 
HETATM   13  C14 UNL     1      27.302  -0.452  53.615  1.00  0.00     0.141 C 
HETATM   14  N2  UNL     1      27.148  -0.453  55.039  1.00  0.00    -0.162 NA
HETATM   15  N3  UNL     1      25.916  -0.461  55.473  1.00  0.00    -0.143 NA
HETATM   16  C15 UNL     1      25.002  -0.467  54.342  1.00  0.00     0.428 C 
HETATM   17  N4  UNL     1      24.265  -0.569  53.311  1.00  0.00    -0.370 NA
ENDROOT
BRANCH   1  18
HETATM   18  N1  UNL     1      19.305   1.782  52.060  1.00  0.00    -0.202 NA
BRANCH  18  19
HETATM   19  C2  UNL     1      19.193   2.936  51.524  1.00  0.00     0.044 C 
BRANCH  19  20
HETATM   20  C1  UNL     1      18.999   4.061  50.919  1.00  0.00     0.295 C 
HETATM   21  O1  UNL     1      18.464   4.946  50.255  1.00  0.00    -0.272 OA
ENDBRANCH  19  20
ENDBRANCH  18  19
ENDBRANCH   1  18
TORSDOF 3
ENDMDL
MODEL 2
REMARK VINA RESULT:      -7.3      1.925      2.066
REMARK  3 active torsions:
REMARK  status: ('A' for Active; 'I' for Inactive)
REMARK    1  A    between atoms: C1_2  and  C2_3 
REMARK    2  A    between atoms: C2_3  and  N1_4 
REMARK    3  A    between atoms: N1_4  and  C3_5 
ROOT
HETATM    1  C3  UNL     1      20.628   0.700  52.462  1.00  0.00     0.067 A 
HETATM    2  C4  UNL     1      20.979  -0.627  52.611  1.00  0.00     0.034 A 
HETATM    3  C5  UNL     1      22.300  -0.943  52.924  1.00  0.00     0.031 A 
HETATM    4  C6  UNL     1      23.292  -0.001  53.096  1.00  0.00     0.030 A 
HETATM    5  C7  UNL     1      22.995   1.336  52.960  1.00  0.00    -0.030 A 
HETATM    6  C8  UNL     1      21.656   1.610  52.645  1.00  0.00     0.041 A 
HETATM    7  C9  UNL     1      23.710   2.589  53.060  1.00  0.00     0.046 C 
HETATM    8  C10 UNL     1      25.189   2.569  53.123  1.00  0.00     0.051 C 
HETATM    9  C11 UNL     1      25.808   1.952  51.930  1.00  0.00    -0.011 C 
HETATM   10 BR1  UNL     1      25.056   2.955  50.456  1.00  0.00    -0.056 Br
HETATM   11  C12 UNL     1      26.649   0.975  51.639  1.00  0.00     0.016 C 
HETATM   12  C13 UNL     1      27.409  -0.015  52.380  1.00  0.00     0.022 C 
HETATM   13  C14 UNL     1      27.482  -0.248  53.680  1.00  0.00     0.141 C 
HETATM   14  N2  UNL     1      27.337  -0.237  55.104  1.00  0.00    -0.162 NA
HETATM   15  N3  UNL     1      26.116  -0.375  55.548  1.00  0.00    -0.143 NA
HETATM   16  C15 UNL     1      25.202  -0.507  54.424  1.00  0.00     0.428 C 
HETATM   17  N4  UNL     1      24.476  -0.713  53.401  1.00  0.00    -0.370 NA
ENDROOT
BRANCH   1  18
HETATM   18  N1  UNL     1      19.276   1.039  52.142  1.00  0.00    -0.202 NA
BRANCH  18  19
HETATM   19  C2  UNL     1      18.396   0.114  52.100  1.00  0.00     0.044 C 
BRANCH  19  20
HETATM   20  C1  UNL     1      17.432  -0.746  52.086  1.00  0.00     0.295 C 
HETATM   21  O1  UNL     1      16.661  -1.632  52.447  1.00  0.00    -0.272 OA
ENDBRANCH  19  20
ENDBRANCH  18  19
ENDBRANCH   1  18
TORSDOF 3
ENDMDL
MODEL 3
REMARK VINA RESULT:      -7.2      4.407      7.153
REMARK  3 active torsions:
REMARK  status: ('A' for Active; 'I' for Inactive)
REMARK    1  A    between atoms: C1_2  and  C2_3 
REMARK    2  A    between atoms: C2_3  and  N1_4 
REMARK    3  A    between atoms: N1_4  and  C3_5 
ROOT
HETATM    1  C3  UNL     1      26.473   1.835  53.403  1.00  0.00     0.067 A 
HETATM    2  C4  UNL     1      27.210   1.991  52.246  1.00  0.00     0.034 A 
HETATM    3  C5  UNL     1      26.567   2.436  51.092  1.00  0.00     0.031 A 
HETATM    4  C6  UNL     1      25.223   2.737  51.033  1.00  0.00     0.030 A 
HETATM    5  C7  UNL     1      24.443   2.600  52.158  1.00  0.00    -0.030 A 
HETATM    6  C8  UNL     1      25.128   2.149  53.296  1.00  0.00     0.041 A 
HETATM    7  C9  UNL     1      23.055   2.806  52.509  1.00  0.00     0.046 C 
HETATM    8  C10 UNL     1      22.066   3.029  51.429  1.00  0.00     0.051 C 
HETATM    9  C11 UNL     1      21.983   1.895  50.482  1.00  0.00    -0.011 C 
HETATM   10 BR1  UNL     1      21.634   0.372  51.624  1.00  0.00    -0.056 Br
HETATM   11  C12 UNL     1      22.093   1.674  49.184  1.00  0.00     0.016 C 
HETATM   12  C13 UNL     1      22.361   2.469  48.000  1.00  0.00     0.022 C 
HETATM   13  C14 UNL     1      22.599   3.764  47.868  1.00  0.00     0.141 C 
HETATM   14  N2  UNL     1      22.819   5.164  48.070  1.00  0.00    -0.162 NA
HETATM   15  N3  UNL     1      23.792   5.470  48.886  1.00  0.00    -0.143 NA
HETATM   16  C15 UNL     1      24.408   4.251  49.386  1.00  0.00     0.428 C 
HETATM   17  N4  UNL     1      24.960   3.151  49.706  1.00  0.00    -0.370 NA
ENDROOT
BRANCH   1  18
HETATM   18  N1  UNL     1      27.119   1.379  54.593  1.00  0.00    -0.202 NA
BRANCH  18  19
HETATM   19  C2  UNL     1      28.062   0.521  54.500  1.00  0.00     0.044 C 
BRANCH  19  20
HETATM   20  C1  UNL     1      28.987  -0.357  54.301  1.00  0.00     0.295 C 
HETATM   21  O1  UNL     1      29.986  -0.910  53.845  1.00  0.00    -0.272 OA
ENDBRANCH  19  20
ENDBRANCH  18  19
ENDBRANCH   1  18
TORSDOF 3
ENDMDL
MODEL 4
REMARK VINA RESULT:      -7.1      3.114      6.506
REMARK  3 active torsions:
REMARK  status: ('A' for Active; 'I' for Inactive)
REMARK    1  A    between atoms: C1_2  and  C2_3 
REMARK    2  A    between atoms: C2_3  and  N1_4 
REMARK    3  A    between atoms: N1_4  and  C3_5 
ROOT
HETATM    1  C3  UNL     1      24.701  -0.450  54.097  1.00  0.00     0.067 A 
HETATM    2  C4  UNL     1      23.520  -0.893  54.659  1.00  0.00     0.034 A 
HETATM    3  C5  UNL     1      22.312  -0.456  54.121  1.00  0.00     0.031 A 
HETATM    4  C6  UNL     1      22.219   0.403  53.047  1.00  0.00     0.030 A 
HETATM    5  C7  UNL     1      23.365   0.874  52.449  1.00  0.00    -0.030 A 
HETATM    6  C8  UNL     1      24.558   0.410  53.021  1.00  0.00     0.041 A 
HETATM    7  C9  UNL     1      23.694   1.748  51.344  1.00  0.00     0.046 C 
HETATM    8  C10 UNL     1      22.625   2.574  50.738  1.00  0.00     0.051 C 
HETATM    9  C11 UNL     1      22.005   3.510  51.701  1.00  0.00    -0.011 C 
HETATM   10 BR1  UNL     1      23.511   4.496  52.412  1.00  0.00    -0.056 Br
HETATM   11  C12 UNL     1      20.805   3.805  52.169  1.00  0.00     0.016 C 
HETATM   12  C13 UNL     1      19.448   3.336  51.957  1.00  0.00     0.022 C 
HETATM   13  C14 UNL     1      18.980   2.385  51.165  1.00  0.00     0.141 C 
HETATM   14  N2  UNL     1      18.807   1.321  50.223  1.00  0.00    -0.162 NA
HETATM   15  N3  UNL     1      19.486   0.233  50.472  1.00  0.00    -0.143 NA
HETATM   16  C15 UNL     1      20.264   0.412  51.688  1.00  0.00     0.428 C 
HETATM   17  N4  UNL     1      20.839   0.602  52.806  1.00  0.00    -0.370 NA
ENDROOT
BRANCH   1  18
HETATM   18  N1  UNL     1      25.948  -0.891  54.639  1.00  0.00    -0.202 NA
BRANCH  18  19
HETATM   19  C2  UNL     1      26.969  -0.128  54.553  1.00  0.00     0.044 C 
BRANCH  19  20
HETATM   20  C1  UNL     1      28.038   0.597  54.558  1.00  0.00     0.295 C 
HETATM   21  O1  UNL     1      28.958   1.307  54.958  1.00  0.00    -0.272 OA
ENDBRANCH  19  20
ENDBRANCH  18  19
ENDBRANCH   1  18
TORSDOF 3
ENDMDL
MODEL 5
REMARK VINA RESULT:      -6.9      4.429      7.057
REMARK  3 active torsions:
REMARK  status: ('A' for Active; 'I' for Inactive)
REMARK    1  A    between atoms: C1_2  and  C2_3 
REMARK    2  A    between atoms: C2_3  and  N1_4 
REMARK    3  A    between atoms: N1_4  and  C3_5 
ROOT
HETATM    1  C3  UNL     1      25.585   1.107  52.323  1.00  0.00     0.067 A 
HETATM    2  C4  UNL     1      25.124   1.784  53.435  1.00  0.00     0.034 A 
HETATM    3  C5  UNL     1      24.498   3.017  53.261  1.00  0.00     0.031 A 
HETATM    4  C6  UNL     1      24.307   3.612  52.033  1.00  0.00     0.030 A 
HETATM    5  C7  UNL     1      24.747   2.980  50.893  1.00  0.00    -0.030 A 
HETATM    6  C8  UNL     1      25.370   1.743  51.111  1.00  0.00     0.041 A 
HETATM    7  C9  UNL     1      24.739   3.247  49.471  1.00  0.00     0.046 C 
HETATM    8  C10 UNL     1      24.376   4.601  48.995  1.00  0.00     0.051 C 
HETATM    9  C11 UNL     1      25.284   5.652  49.505  1.00  0.00    -0.011 C 
HETATM   10 BR1  UNL     1      27.040   5.033  48.977  1.00  0.00    -0.056 Br
HETATM   11  C12 UNL     1      25.213   6.788  50.177  1.00  0.00     0.016 C 
HETATM   12  C13 UNL     1      24.163   7.594  50.772  1.00  0.00     0.022 C 
HETATM   13  C14 UNL     1      22.855   7.405  50.821  1.00  0.00     0.141 C 
HETATM   14  N2  UNL     1      21.516   6.911  50.698  1.00  0.00    -0.162 NA
HETATM   15  N3  UNL     1      21.310   5.714  51.179  1.00  0.00    -0.143 NA
HETATM   16  C15 UNL     1      22.551   5.191  51.729  1.00  0.00     0.428 C 
HETATM   17  N4  UNL     1      23.643   4.838  52.276  1.00  0.00    -0.370 NA
ENDROOT
BRANCH   1  18
HETATM   18  N1  UNL     1      26.228  -0.158  52.486  1.00  0.00    -0.202 NA
BRANCH  18  19
HETATM   19  C2  UNL     1      27.398  -0.201  52.998  1.00  0.00     0.044 C 
BRANCH  19  20
HETATM   20  C1  UNL     1      28.535  -0.284  53.606  1.00  0.00     0.295 C 
HETATM   21  O1  UNL     1      29.572  -0.751  54.072  1.00  0.00    -0.272 OA
ENDBRANCH  19  20
ENDBRANCH  18  19
ENDBRANCH   1  18
TORSDOF 3
ENDMDL
MODEL 6
REMARK VINA RESULT:      -6.8      3.837      6.989
REMARK  3 active torsions:
REMARK  status: ('A' for Active; 'I' for Inactive)
REMARK    1  A    between atoms: C1_2  and  C2_3 
REMARK    2  A    between atoms: C2_3  and  N1_4 
REMARK    3  A    between atoms: N1_4  and  C3_5 
ROOT
HETATM    1  C3  UNL     1      27.208   2.040  52.680  1.00  0.00     0.067 A 
HETATM    2  C4  UNL     1      26.239   1.519  53.513  1.00  0.00     0.034 A 
HETATM    3  C5  UNL     1      24.906   1.564  53.107  1.00  0.00     0.031 A 
HETATM    4  C6  UNL     1      24.489   2.103  51.909  1.00  0.00     0.030 A 
HETATM    5  C7  UNL     1      25.415   2.636  51.041  1.00  0.00    -0.030 A 
HETATM    6  C8  UNL     1      26.743   2.570  51.488  1.00  0.00     0.041 A 
HETATM    7  C9  UNL     1      25.398   3.266  49.739  1.00  0.00     0.046 C 
HETATM    8  C10 UNL     1      24.101   3.691  49.164  1.00  0.00     0.051 C 
HETATM    9  C11 UNL     1      23.400   4.688  50.002  1.00  0.00    -0.011 C 
HETATM   10 BR1  UNL     1      24.708   6.096  50.227  1.00  0.00    -0.056 Br
HETATM   11  C12 UNL     1      22.228   4.842  50.593  1.00  0.00     0.016 C 
HETATM   12  C13 UNL     1      21.003   4.074  50.716  1.00  0.00     0.022 C 
HETATM   13  C14 UNL     1      20.678   2.887  50.230  1.00  0.00     0.141 C 
HETATM   14  N2  UNL     1      20.647   1.615  49.574  1.00  0.00    -0.162 NA
HETATM   15  N3  UNL     1      21.586   0.776  49.925  1.00  0.00    -0.143 NA
HETATM   16  C15 UNL     1      22.439   1.394  50.928  1.00  0.00     0.428 C 
HETATM   17  N4  UNL     1      23.082   1.958  51.869  1.00  0.00    -0.370 NA
ENDROOT
BRANCH   1  18
HETATM   18  N1  UNL     1      28.579   2.001  53.083  1.00  0.00    -0.202 NA
BRANCH  18  19
HETATM   19  C2  UNL     1      29.089   0.888  53.450  1.00  0.00     0.044 C 
BRANCH  19  20
HETATM   20  C1  UNL     1      29.510  -0.284  53.791  1.00  0.00     0.295 C 
HETATM   21  O1  UNL     1      29.837  -1.467  53.721  1.00  0.00    -0.272 OA
ENDBRANCH  19  20
ENDBRANCH  18  19
ENDBRANCH   1  18
TORSDOF 3
ENDMDL
MODEL 7
REMARK VINA RESULT:      -6.7      3.587      4.330
REMARK  3 active torsions:
REMARK  status: ('A' for Active; 'I' for Inactive)
REMARK    1  A    between atoms: C1_2  and  C2_3 
REMARK    2  A    between atoms: C2_3  and  N1_4 
REMARK    3  A    between atoms: N1_4  and  C3_5 
ROOT
HETATM    1  C3  UNL     1      22.516   3.642  48.445  1.00  0.00     0.067 A 
HETATM    2  C4  UNL     1      21.811   2.467  48.278  1.00  0.00     0.034 A 
HETATM    3  C5  UNL     1      21.747   1.564  49.338  1.00  0.00     0.031 A 
HETATM    4  C6  UNL     1      22.351   1.773  50.559  1.00  0.00     0.030 A 
HETATM    5  C7  UNL     1      23.066   2.929  50.778  1.00  0.00    -0.030 A 
HETATM    6  C8  UNL     1      23.105   3.809  49.687  1.00  0.00     0.041 A 
HETATM    7  C9  UNL     1      23.814   3.514  51.869  1.00  0.00     0.046 C 
HETATM    8  C10 UNL     1      24.148   2.676  53.043  1.00  0.00     0.051 C 
HETATM    9  C11 UNL     1      24.973   1.499  52.694  1.00  0.00    -0.011 C 
HETATM   10 BR1  UNL     1      26.489   2.265  51.767  1.00  0.00    -0.056 Br
HETATM   11  C12 UNL     1      24.937   0.184  52.826  1.00  0.00     0.016 C 
HETATM   12  C13 UNL     1      24.030  -0.791  53.400  1.00  0.00     0.022 C 
HETATM   13  C14 UNL     1      22.867  -0.630  54.011  1.00  0.00     0.141 C 
HETATM   14  N2  UNL     1      21.670  -0.121  54.609  1.00  0.00    -0.162 NA
HETATM   15  N3  UNL     1      20.911   0.598  53.826  1.00  0.00    -0.143 NA
HETATM   16  C15 UNL     1      21.518   0.687  52.507  1.00  0.00     0.428 C 
HETATM   17  N4  UNL     1      22.056   0.642  51.356  1.00  0.00    -0.370 NA
ENDROOT
BRANCH   1  18
HETATM   18  N1  UNL     1      22.590   4.577  47.366  1.00  0.00    -0.202 NA
BRANCH  18  19
HETATM   19  C2  UNL     1      22.042   4.285  46.250  1.00  0.00     0.044 C 
BRANCH  19  20
HETATM   20  C1  UNL     1      21.537   4.077  45.079  1.00  0.00     0.295 C 
HETATM   21  O1  UNL     1      21.174   3.501  44.056  1.00  0.00    -0.272 OA
ENDBRANCH  19  20
ENDBRANCH  18  19
ENDBRANCH   1  18
TORSDOF 3
ENDMDL
MODEL 8
REMARK VINA RESULT:      -6.5      8.256      9.914
REMARK  3 active torsions:
REMARK  status: ('A' for Active; 'I' for Inactive)
REMARK    1  A    between atoms: C1_2  and  C2_3 
REMARK    2  A    between atoms: C2_3  and  N1_4 
REMARK    3  A    between atoms: N1_4  and  C3_5 
ROOT
HETATM    1  C3  UNL     1      26.685   4.706  49.139  1.00  0.00     0.067 A 
HETATM    2  C4  UNL     1      25.957   5.828  49.481  1.00  0.00     0.034 A 
HETATM    3  C5  UNL     1      26.493   7.086  49.211  1.00  0.00     0.031 A 
HETATM    4  C6  UNL     1      27.720   7.283  48.615  1.00  0.00     0.030 A 
HETATM    5  C7  UNL     1      28.486   6.199  48.254  1.00  0.00    -0.030 A 
HETATM    6  C8  UNL     1      27.911   4.953  48.543  1.00  0.00     0.041 A 
HETATM    7  C9  UNL     1      29.770   5.978  47.627  1.00  0.00     0.046 C 
HETATM    8  C10 UNL     1      30.695   7.123  47.461  1.00  0.00     0.051 C 
HETATM    9  C11 UNL     1      31.078   7.744  48.747  1.00  0.00    -0.011 C 
HETATM   10 BR1  UNL     1      31.772   6.263  49.781  1.00  0.00    -0.056 Br
HETATM   11  C12 UNL     1      31.055   8.934  49.323  1.00  0.00     0.016 C 
HETATM   12  C13 UNL     1      30.622  10.270  48.959  1.00  0.00     0.022 C 
HETATM   13  C14 UNL     1      30.071  10.724  47.845  1.00  0.00     0.141 C 
HETATM   14  N2  UNL     1      29.504  10.884  46.540  1.00  0.00    -0.162 NA
HETATM   15  N3  UNL     1      28.469  10.131  46.279  1.00  0.00    -0.143 NA
HETATM   16  C15 UNL     1      28.166   9.303  47.436  1.00  0.00     0.428 C 
HETATM   17  N4  UNL     1      27.900   8.683  48.514  1.00  0.00    -0.370 NA
ENDROOT
BRANCH   1  18
HETATM   18  N1  UNL     1      26.148   3.409  49.411  1.00  0.00    -0.202 NA
BRANCH  18  19
HETATM   19  C2  UNL     1      26.424   2.840  50.521  1.00  0.00     0.044 C 
BRANCH  19  20
HETATM   20  C1  UNL     1      26.746   2.183  51.585  1.00  0.00     0.295 C 
HETATM   21  O1  UNL     1      27.416   1.572  52.415  1.00  0.00    -0.272 OA
ENDBRANCH  19  20
ENDBRANCH  18  19
ENDBRANCH   1  18
TORSDOF 3
ENDMDL
MODEL 9
REMARK VINA RESULT:      -6.4      2.872      3.924
REMARK  3 active torsions:
REMARK  status: ('A' for Active; 'I' for Inactive)
REMARK    1  A    between atoms: C1_2  and  C2_3 
REMARK    2  A    between atoms: C2_3  and  N1_4 
REMARK    3  A    between atoms: N1_4  and  C3_5 
ROOT
HETATM    1  C3  UNL     1      22.022   4.422  51.739  1.00  0.00     0.067 A 
HETATM    2  C4  UNL     1      23.209   4.785  52.343  1.00  0.00     0.034 A 
HETATM    3  C5  UNL     1      24.080   3.785  52.771  1.00  0.00     0.031 A 
HETATM    4  C6  UNL     1      23.830   2.438  52.626  1.00  0.00     0.030 A 
HETATM    5  C7  UNL     1      22.662   2.021  52.029  1.00  0.00    -0.030 A 
HETATM    6  C8  UNL     1      21.813   3.058  51.614  1.00  0.00     0.041 A 
HETATM    7  C9  UNL     1      22.043   0.758  51.693  1.00  0.00     0.046 C 
HETATM    8  C10 UNL     1      22.606  -0.491  52.255  1.00  0.00     0.051 C 
HETATM    9  C11 UNL     1      22.585  -0.517  53.733  1.00  0.00    -0.011 C 
HETATM   10 BR1  UNL     1      20.730  -0.177  54.168  1.00  0.00    -0.056 Br
HETATM   11  C12 UNL     1      23.428  -0.681  54.738  1.00  0.00     0.016 C 
HETATM   12  C13 UNL     1      24.851  -0.925  54.888  1.00  0.00     0.022 C 
HETATM   13  C14 UNL     1      25.802  -1.061  53.978  1.00  0.00     0.141 C 
HETATM   14  N2  UNL     1      26.568  -1.158  52.773  1.00  0.00    -0.162 NA
HETATM   15  N3  UNL     1      26.504  -0.123  51.979  1.00  0.00    -0.143 NA
HETATM   16  C15 UNL     1      25.634   0.885  52.564  1.00  0.00     0.428 C 
HETATM   17  N4  UNL     1      24.941   1.757  53.177  1.00  0.00    -0.370 NA
ENDROOT
BRANCH   1  18
HETATM   18  N1  UNL     1      21.118   5.437  51.296  1.00  0.00    -0.202 NA
BRANCH  18  19
HETATM   19  C2  UNL     1      21.588   6.546  50.871  1.00  0.00     0.044 C 
BRANCH  19  20
HETATM   20  C1  UNL     1      22.006   7.651  50.349  1.00  0.00     0.295 C 
HETATM   21  O1  UNL     1      22.754   8.494  49.858  1.00  0.00    -0.272 OA
ENDBRANCH  19  20
ENDBRANCH  18  19
ENDBRANCH   1  18
TORSDOF 3
ENDMDL
