MODEL 1
REMARK VINA RESULT:      -7.1      0.000      0.000
REMARK  7 active torsions:
REMARK  status: ('A' for Active; 'I' for Inactive)
REMARK    1  A    between atoms: C2_2  and  N1_3 
REMARK    2  A    between atoms: C6_7  and  C7_8 
REMARK    3  A    between atoms: C8_9  and  N2_10 
REMARK    4  A    between atoms: N2_10  and  C9_11 
REMARK    5  A    between atoms: C9_11  and  C10_12 
REMARK    6  A    between atoms: C12_17  and  C13_18 
REMARK    7  A    between atoms: C13_18  and  C14_19 
ROOT
HETATM    1  C10 UNL     1      23.276   4.310  49.460  1.00  0.00     0.118 C 
HETATM    2  N3  UNL     1      22.427   4.693  50.415  1.00  0.00    -0.234 NA
HETATM    3  C11 UNL     1      23.003   5.398  51.510  1.00  0.00     0.194 C 
HETATM    4  N4  UNL     1      23.312   4.368  52.219  1.00  0.00    -0.206 NA
HETATM    5  N5  UNL     1      23.087   3.031  51.889  1.00  0.00    -0.233 NA
HETATM    6  C12 UNL     1      22.790   1.601  51.753  1.00  0.00     0.038 C 
HETATM    7  C15 UNL     1      22.294   1.874  50.595  1.00  0.00     0.105 C 
HETATM    8  C16 UNL     1      21.654   0.917  49.617  1.00  0.00    -0.021 C 
HETATM    9  C17 UNL     1      21.273   1.550  48.472  1.00  0.00    -0.011 C 
HETATM   10  C18 UNL     1      21.345   2.964  47.937  1.00  0.00     0.148 C 
HETATM   11  N6  UNL     1      22.327   3.644  48.710  1.00  0.00    -0.373 N 
HETATM   12  H19 UNL     1      22.898   3.446  52.869  1.00  0.00     0.259 HD
HETATM   13  H27 UNL     1      23.065   2.878  48.874  1.00  0.00     0.161 HD
ENDROOT
BRANCH   1  14
HETATM   14  C9  UNL     1      24.633   4.707  49.741  1.00  0.00     0.197 C 
BRANCH  14  15
HETATM   15  N2  UNL     1      25.576   3.642  49.736  1.00  0.00    -0.392 N 
HETATM   16  H15 UNL     1      25.776   3.268  48.804  1.00  0.00     0.159 HD
BRANCH  15  17
HETATM   17  C8  UNL     1      26.340   2.963  50.739  1.00  0.00     0.079 C 
HETATM   18  C7  UNL     1      26.371   1.690  51.176  1.00  0.00    -0.004 C 
BRANCH  18  19
HETATM   19  C6  UNL     1      27.197   1.083  52.241  1.00  0.00     0.038 C 
HETATM   20  C5  UNL     1      26.943   1.909  53.522  1.00  0.00     0.012 C 
HETATM   21  C4  UNL     1      26.723   0.994  54.700  1.00  0.00     0.031 C 
HETATM   22  C3  UNL     1      27.704  -0.142  54.699  1.00  0.00     0.272 C 
HETATM   23  N1  UNL     1      27.618  -1.002  53.521  1.00  0.00     0.088 N 
HETATM   24  C19 UNL     1      26.885  -0.352  52.424  1.00  0.00     0.280 C 
BRANCH  23  25
HETATM   25  C2  UNL     1      28.971  -1.334  53.077  1.00  0.00     0.268 C 
HETATM   26  C1  UNL     1      30.009  -0.593  53.854  1.00  0.00     0.037 C 
ENDBRANCH  23  25
ENDBRANCH  18  19
ENDBRANCH  15  17
ENDBRANCH  14  15
ENDBRANCH   1  14
BRANCH   6  27
HETATM   27  C13 UNL     1      23.269   1.032  53.029  1.00  0.00     0.007 C 
BRANCH  27  28
HETATM   28  C14 UNL     1      22.480  -0.033  53.271  1.00  0.00     0.215 C 
HETATM   29 CL1  UNL     1      21.413  -1.233  53.851  1.00  0.00    -0.230 Cl
ENDBRANCH  27  28
ENDBRANCH   6  27
TORSDOF 7
ENDMDL
MODEL 2
REMARK VINA RESULT:      -7.1      2.905      4.593
REMARK  7 active torsions:
REMARK  status: ('A' for Active; 'I' for Inactive)
REMARK    1  A    between atoms: C2_2  and  N1_3 
REMARK    2  A    between atoms: C6_7  and  C7_8 
REMARK    3  A    between atoms: C8_9  and  N2_10 
REMARK    4  A    between atoms: N2_10  and  C9_11 
REMARK    5  A    between atoms: C9_11  and  C10_12 
REMARK    6  A    between atoms: C12_17  and  C13_18 
REMARK    7  A    between atoms: C13_18  and  C14_19 
ROOT
HETATM    1  C10 UNL     1      22.694   4.776  51.440  1.00  0.00     0.118 C 
HETATM    2  N3  UNL     1      22.481   4.411  50.175  1.00  0.00    -0.234 NA
HETATM    3  C11 UNL     1      22.515   3.011  49.919  1.00  0.00     0.194 C 
HETATM    4  N4  UNL     1      23.784   2.915  49.717  1.00  0.00    -0.206 NA
HETATM    5  N5  UNL     1      24.715   3.953  49.765  1.00  0.00    -0.233 NA
HETATM    6  C12 UNL     1      25.782   4.951  49.633  1.00  0.00     0.038 C 
HETATM    7  C15 UNL     1      24.914   5.838  49.982  1.00  0.00     0.105 C 
HETATM    8  C16 UNL     1      25.123   7.328  50.116  1.00  0.00    -0.021 C 
HETATM    9  C17 UNL     1      23.991   7.956  50.543  1.00  0.00    -0.011 C 
HETATM   10  C18 UNL     1      22.591   7.530  50.926  1.00  0.00     0.148 C 
HETATM   11  N6  UNL     1      22.646   6.132  51.188  1.00  0.00    -0.373 N 
HETATM   12  H19 UNL     1      24.700   3.196  48.993  1.00  0.00     0.259 HD
HETATM   13  H27 UNL     1      23.607   6.022  51.661  1.00  0.00     0.161 HD
ENDROOT
BRANCH   1  14
HETATM   14  C9  UNL     1      22.912   3.644  52.308  1.00  0.00     0.197 C 
BRANCH  14  15
HETATM   15  N2  UNL     1      24.149   3.667  53.010  1.00  0.00    -0.392 N 
HETATM   16  H15 UNL     1      24.318   4.534  53.527  1.00  0.00     0.159 HD
BRANCH  15  17
HETATM   17  C8  UNL     1      25.228   2.743  53.187  1.00  0.00     0.079 C 
HETATM   18  C7  UNL     1      26.357   2.495  52.496  1.00  0.00    -0.004 C 
BRANCH  18  19
HETATM   19  C6  UNL     1      27.416   1.496  52.755  1.00  0.00     0.038 C 
HETATM   20  C5  UNL     1      28.618   2.269  53.341  1.00  0.00     0.012 C 
HETATM   21  C4  UNL     1      29.177   1.542  54.537  1.00  0.00     0.031 C 
HETATM   22  C3  UNL     1      29.262   0.064  54.286  1.00  0.00     0.272 C 
HETATM   23  N1  UNL     1      27.971  -0.568  54.018  1.00  0.00     0.088 N 
HETATM   24  C19 UNL     1      26.944   0.421  53.656  1.00  0.00     0.280 C 
BRANCH  23  25
HETATM   25  C2  UNL     1      28.133  -1.528  52.926  1.00  0.00     0.268 C 
HETATM   26  C1  UNL     1      26.825  -2.092  52.481  1.00  0.00     0.037 C 
ENDBRANCH  23  25
ENDBRANCH  18  19
ENDBRANCH  15  17
ENDBRANCH  14  15
ENDBRANCH   1  14
BRANCH   6  27
HETATM   27  C13 UNL     1      26.944   4.150  49.200  1.00  0.00     0.007 C 
BRANCH  27  28
HETATM   28  C14 UNL     1      27.803   5.028  48.644  1.00  0.00     0.215 C 
HETATM   29 CL1  UNL     1      28.627   6.282  47.830  1.00  0.00    -0.230 Cl
ENDBRANCH  27  28
ENDBRANCH   6  27
TORSDOF 7
ENDMDL
MODEL 3
REMARK VINA RESULT:      -6.8      1.735      3.461
REMARK  7 active torsions:
REMARK  status: ('A' for Active; 'I' for Inactive)
REMARK    1  A    between atoms: C2_2  and  N1_3 
REMARK    2  A    between atoms: C6_7  and  C7_8 
REMARK    3  A    between atoms: C8_9  and  N2_10 
REMARK    4  A    between atoms: N2_10  and  C9_11 
REMARK    5  A    between atoms: C9_11  and  C10_12 
REMARK    6  A    between atoms: C12_17  and  C13_18 
REMARK    7  A    between atoms: C13_18  and  C14_19 
ROOT
HETATM    1  C10 UNL     1      23.273   6.211  50.650  1.00  0.00     0.118 C 
HETATM    2  N3  UNL     1      22.694   6.335  49.454  1.00  0.00    -0.234 NA
HETATM    3  C11 UNL     1      21.271   6.303  49.448  1.00  0.00     0.194 C 
HETATM    4  N4  UNL     1      21.138   5.025  49.363  1.00  0.00    -0.206 NA
HETATM    5  N5  UNL     1      22.166   4.084  49.302  1.00  0.00    -0.233 NA
HETATM    6  C12 UNL     1      23.124   2.994  49.081  1.00  0.00     0.038 C 
HETATM    7  C15 UNL     1      24.060   3.872  49.204  1.00  0.00     0.105 C 
HETATM    8  C16 UNL     1      25.551   3.651  49.093  1.00  0.00    -0.021 C 
HETATM    9  C17 UNL     1      26.246   4.802  49.316  1.00  0.00    -0.011 C 
HETATM   10  C18 UNL     1      25.895   6.234  49.659  1.00  0.00     0.148 C 
HETATM   11  N6  UNL     1      24.564   6.220  50.163  1.00  0.00    -0.373 N 
HETATM   12  H19 UNL     1      21.287   4.052  48.674  1.00  0.00     0.259 HD
HETATM   13  H27 UNL     1      24.537   5.299  50.721  1.00  0.00     0.161 HD
ENDROOT
BRANCH   1  14
HETATM   14  C9  UNL     1      22.309   6.077  51.714  1.00  0.00     0.197 C 
BRANCH  14  15
HETATM   15  N2  UNL     1      22.544   4.981  52.590  1.00  0.00    -0.392 N 
HETATM   16  H15 UNL     1      21.710   4.664  53.091  1.00  0.00     0.159 HD
BRANCH  15  17
HETATM   17  C8  UNL     1      23.685   4.188  52.934  1.00  0.00     0.079 C 
HETATM   18  C7  UNL     1      23.998   2.890  52.760  1.00  0.00    -0.004 C 
BRANCH  18  19
HETATM   19  C6  UNL     1      25.213   2.154  53.169  1.00  0.00     0.038 C 
HETATM   20  C5  UNL     1      24.796   0.676  53.343  1.00  0.00     0.012 C 
HETATM   21  C4  UNL     1      25.805  -0.233  52.690  1.00  0.00     0.031 C 
HETATM   22  C3  UNL     1      27.209   0.209  52.984  1.00  0.00     0.272 C 
HETATM   23  N1  UNL     1      27.524   1.550  52.495  1.00  0.00     0.088 N 
HETATM   24  C19 UNL     1      26.308   2.319  52.189  1.00  0.00     0.280 C 
BRANCH  23  25
HETATM   25  C2  UNL     1      28.304   2.253  53.514  1.00  0.00     0.268 C 
HETATM   26  C1  UNL     1      29.073   1.308  54.376  1.00  0.00     0.037 C 
ENDBRANCH  23  25
ENDBRANCH  18  19
ENDBRANCH  15  17
ENDBRANCH  14  15
ENDBRANCH   1  14
BRANCH   6  27
HETATM   27  C13 UNL     1      22.257   1.815  48.883  1.00  0.00     0.007 C 
BRANCH  27  28
HETATM   28  C14 UNL     1      22.066   1.296  50.112  1.00  0.00     0.215 C 
HETATM   29 CL1  UNL     1      21.670   0.404  51.514  1.00  0.00    -0.230 Cl
ENDBRANCH  27  28
ENDBRANCH   6  27
TORSDOF 7
ENDMDL
MODEL 4
REMARK VINA RESULT:      -6.5      2.151      2.899
REMARK  7 active torsions:
REMARK  status: ('A' for Active; 'I' for Inactive)
REMARK    1  A    between atoms: C2_2  and  N1_3 
REMARK    2  A    between atoms: C6_7  and  C7_8 
REMARK    3  A    between atoms: C8_9  and  N2_10 
REMARK    4  A    between atoms: N2_10  and  C9_11 
REMARK    5  A    between atoms: C9_11  and  C10_12 
REMARK    6  A    between atoms: C12_17  and  C13_18 
REMARK    7  A    between atoms: C13_18  and  C14_19 
ROOT
HETATM    1  C10 UNL     1      20.891   3.908  50.161  1.00  0.00     0.118 C 
HETATM    2  N3  UNL     1      19.592   3.617  50.252  1.00  0.00    -0.234 NA
HETATM    3  C11 UNL     1      18.845   4.399  51.177  1.00  0.00     0.194 C 
HETATM    4  N4  UNL     1      19.065   3.673  52.218  1.00  0.00    -0.206 NA
HETATM    5  N5  UNL     1      19.822   2.501  52.270  1.00  0.00    -0.233 NA
HETATM    6  C12 UNL     1      20.455   1.191  52.455  1.00  0.00     0.038 C 
HETATM    7  C15 UNL     1      20.802   1.250  51.215  1.00  0.00     0.105 C 
HETATM    8  C16 UNL     1      21.561   0.213  50.420  1.00  0.00    -0.021 C 
HETATM    9  C17 UNL     1      21.785   0.627  49.141  1.00  0.00    -0.011 C 
HETATM   10  C18 UNL     1      21.474   1.866  48.330  1.00  0.00     0.148 C 
HETATM   11  N6  UNL     1      21.180   2.901  49.261  1.00  0.00    -0.373 N 
HETATM   12  H19 UNL     1      18.863   2.618  52.756  1.00  0.00     0.259 HD
HETATM   13  H27 UNL     1      21.870   2.696  50.062  1.00  0.00     0.161 HD
ENDROOT
BRANCH   1  14
HETATM   14  C9  UNL     1      21.273   4.988  51.036  1.00  0.00     0.197 C 
BRANCH  14  15
HETATM   15  N2  UNL     1      22.078   4.597  52.142  1.00  0.00    -0.392 N 
HETATM   16  H15 UNL     1      21.721   4.911  53.047  1.00  0.00     0.159 HD
BRANCH  15  17
HETATM   17  C8  UNL     1      23.285   3.841  52.297  1.00  0.00     0.079 C 
HETATM   18  C7  UNL     1      23.635   2.809  53.087  1.00  0.00    -0.004 C 
BRANCH  18  19
HETATM   19  C6  UNL     1      24.928   2.098  53.184  1.00  0.00     0.038 C 
HETATM   20  C5  UNL     1      24.599   0.589  53.230  1.00  0.00     0.012 C 
HETATM   21  C4  UNL     1      25.509  -0.174  52.301  1.00  0.00     0.031 C 
HETATM   22  C3  UNL     1      26.927   0.308  52.408  1.00  0.00     0.272 C 
HETATM   23  N1  UNL     1      27.105   1.715  52.054  1.00  0.00     0.088 N 
HETATM   24  C19 UNL     1      25.828   2.445  52.062  1.00  0.00     0.280 C 
BRANCH  23  25
HETATM   25  C2  UNL     1      28.026   2.329  53.010  1.00  0.00     0.268 C 
HETATM   26  C1  UNL     1      28.618   1.323  53.939  1.00  0.00     0.037 C 
ENDBRANCH  23  25
ENDBRANCH  18  19
ENDBRANCH  15  17
ENDBRANCH  14  15
ENDBRANCH   1  14
BRANCH   6  27
HETATM   27  C13 UNL     1      20.170   0.873  53.868  1.00  0.00     0.007 C 
BRANCH  27  28
HETATM   28  C14 UNL     1      20.981  -0.158  54.179  1.00  0.00     0.215 C 
HETATM   29 CL1  UNL     1      21.997  -1.344  54.868  1.00  0.00    -0.230 Cl
ENDBRANCH  27  28
ENDBRANCH   6  27
TORSDOF 7
ENDMDL
MODEL 5
REMARK VINA RESULT:      -6.5      7.533      9.394
REMARK  7 active torsions:
REMARK  status: ('A' for Active; 'I' for Inactive)
REMARK    1  A    between atoms: C2_2  and  N1_3 
REMARK    2  A    between atoms: C6_7  and  C7_8 
REMARK    3  A    between atoms: C8_9  and  N2_10 
REMARK    4  A    between atoms: N2_10  and  C9_11 
REMARK    5  A    between atoms: C9_11  and  C10_12 
REMARK    6  A    between atoms: C12_17  and  C13_18 
REMARK    7  A    between atoms: C13_18  and  C14_19 
ROOT
HETATM    1  C10 UNL     1      29.589  10.054  48.458  1.00  0.00     0.118 C 
HETATM    2  N3  UNL     1      28.274   9.947  48.655  1.00  0.00    -0.234 NA
HETATM    3  C11 UNL     1      27.866   9.687  49.994  1.00  0.00     0.194 C 
HETATM    4  N4  UNL     1      27.948   8.403  49.940  1.00  0.00    -0.206 NA
HETATM    5  N5  UNL     1      28.330   7.638  48.838  1.00  0.00    -0.233 NA
HETATM    6  C12 UNL     1      28.565   6.698  47.736  1.00  0.00     0.038 C 
HETATM    7  C15 UNL     1      28.811   7.723  46.993  1.00  0.00     0.105 C 
HETATM    8  C16 UNL     1      29.167   7.733  45.525  1.00  0.00    -0.021 C 
HETATM    9  C17 UNL     1      29.397   8.998  45.074  1.00  0.00    -0.011 C 
HETATM   10  C18 UNL     1      29.398  10.384  45.680  1.00  0.00     0.148 C 
HETATM   11  N6  UNL     1      29.496  10.214  47.090  1.00  0.00    -0.373 N 
HETATM   12  H19 UNL     1      27.490   7.395  49.474  1.00  0.00     0.259 HD
HETATM   13  H27 UNL     1      30.159   9.369  47.176  1.00  0.00     0.161 HD
ENDROOT
BRANCH   1  14
HETATM   14  C9  UNL     1      30.341   9.888  49.677  1.00  0.00     0.197 C 
BRANCH  14  15
HETATM   15  N2  UNL     1      31.144   8.715  49.722  1.00  0.00    -0.392 N 
HETATM   16  H15 UNL     1      31.230   8.306  50.656  1.00  0.00     0.159 HD
BRANCH  15  17
HETATM   17  C8  UNL     1      31.863   7.943  48.753  1.00  0.00     0.079 C 
HETATM   18  C7  UNL     1      32.609   6.826  48.827  1.00  0.00    -0.004 C 
BRANCH  18  19
HETATM   19  C6  UNL     1      33.331   6.105  47.757  1.00  0.00     0.038 C 
HETATM   20  C5  UNL     1      34.604   5.515  48.403  1.00  0.00     0.012 C 
HETATM   21  C4  UNL     1      34.793   4.082  47.974  1.00  0.00     0.031 C 
HETATM   22  C3  UNL     1      34.526   3.913  46.506  1.00  0.00     0.272 C 
HETATM   23  N1  UNL     1      33.164   4.259  46.105  1.00  0.00     0.088 N 
HETATM   24  C19 UNL     1      32.484   5.067  47.129  1.00  0.00     0.280 C 
BRANCH  23  25
HETATM   25  C2  UNL     1      33.216   5.004  44.848  1.00  0.00     0.268 C 
HETATM   26  C1  UNL     1      34.408   4.634  44.031  1.00  0.00     0.037 C 
ENDBRANCH  23  25
ENDBRANCH  18  19
ENDBRANCH  15  17
ENDBRANCH  14  15
ENDBRANCH   1  14
BRANCH   6  27
HETATM   27  C13 UNL     1      28.314   5.381  48.354  1.00  0.00     0.007 C 
BRANCH  27  28
HETATM   28  C14 UNL     1      27.017   5.393  48.720  1.00  0.00     0.215 C 
HETATM   29 CL1  UNL     1      25.318   5.477  48.876  1.00  0.00    -0.230 Cl
ENDBRANCH  27  28
ENDBRANCH   6  27
TORSDOF 7
ENDMDL
MODEL 6
REMARK VINA RESULT:      -6.3      1.347      1.994
REMARK  7 active torsions:
REMARK  status: ('A' for Active; 'I' for Inactive)
REMARK    1  A    between atoms: C2_2  and  N1_3 
REMARK    2  A    between atoms: C6_7  and  C7_8 
REMARK    3  A    between atoms: C8_9  and  N2_10 
REMARK    4  A    between atoms: N2_10  and  C9_11 
REMARK    5  A    between atoms: C9_11  and  C10_12 
REMARK    6  A    between atoms: C12_17  and  C13_18 
REMARK    7  A    between atoms: C13_18  and  C14_19 
ROOT
HETATM    1  C10 UNL     1      23.678   5.015  49.464  1.00  0.00     0.118 C 
HETATM    2  N3  UNL     1      22.552   5.206  50.154  1.00  0.00    -0.234 NA
HETATM    3  C11 UNL     1      22.716   5.554  51.525  1.00  0.00     0.194 C 
HETATM    4  N4  UNL     1      22.781   4.354  51.989  1.00  0.00    -0.206 NA
HETATM    5  N5  UNL     1      22.697   3.171  51.254  1.00  0.00    -0.233 NA
HETATM    6  C12 UNL     1      22.479   1.853  50.646  1.00  0.00     0.038 C 
HETATM    7  C15 UNL     1      22.400   2.457  49.509  1.00  0.00     0.105 C 
HETATM    8  C16 UNL     1      22.138   1.840  48.155  1.00  0.00    -0.021 C 
HETATM    9  C17 UNL     1      22.158   2.776  47.166  1.00  0.00    -0.011 C 
HETATM   10  C18 UNL     1      22.390   4.270  47.088  1.00  0.00     0.148 C 
HETATM   11  N6  UNL     1      23.045   4.646  48.294  1.00  0.00    -0.373 N 
HETATM   12  H19 UNL     1      22.183   3.332  52.191  1.00  0.00     0.259 HD
HETATM   13  H27 UNL     1      23.694   3.806  48.477  1.00  0.00     0.161 HD
ENDROOT
BRANCH   1  14
HETATM   14  C9  UNL     1      24.856   5.216  50.271  1.00  0.00     0.197 C 
BRANCH  14  15
HETATM   15  N2  UNL     1      25.717   4.086  50.354  1.00  0.00    -0.392 N 
HETATM   16  H15 UNL     1      26.287   3.936  49.517  1.00  0.00     0.159 HD
BRANCH  15  17
HETATM   17  C8  UNL     1      25.995   3.098  51.352  1.00  0.00     0.079 C 
HETATM   18  C7  UNL     1      26.460   1.836  51.301  1.00  0.00    -0.004 C 
BRANCH  18  19
HETATM   19  C6  UNL     1      26.702   0.880  52.402  1.00  0.00     0.038 C 
HETATM   20  C5  UNL     1      28.213   0.945  52.720  1.00  0.00     0.012 C 
HETATM   21  C4  UNL     1      28.433   1.013  54.210  1.00  0.00     0.031 C 
HETATM   22  C3  UNL     1      27.534   0.056  54.938  1.00  0.00     0.272 C 
HETATM   23  N1  UNL     1      26.108   0.315  54.746  1.00  0.00     0.088 N 
HETATM   24  C19 UNL     1      25.864   1.183  53.584  1.00  0.00     0.280 C 
BRANCH  23  25
HETATM   25  C2  UNL     1      25.417  -0.960  54.559  1.00  0.00     0.268 C 
HETATM   26  C1  UNL     1      23.937  -0.814  54.673  1.00  0.00     0.037 C 
ENDBRANCH  23  25
ENDBRANCH  18  19
ENDBRANCH  15  17
ENDBRANCH  14  15
ENDBRANCH   1  14
BRANCH   6  27
HETATM   27  C13 UNL     1      22.508   0.937  51.804  1.00  0.00     0.007 C 
BRANCH  27  28
HETATM   28  C14 UNL     1      21.258   0.444  51.906  1.00  0.00     0.215 C 
HETATM   29 CL1  UNL     1      19.592   0.068  51.854  1.00  0.00    -0.230 Cl
ENDBRANCH  27  28
ENDBRANCH   6  27
TORSDOF 7
ENDMDL
MODEL 7
REMARK VINA RESULT:      -6.3      4.430      5.546
REMARK  7 active torsions:
REMARK  status: ('A' for Active; 'I' for Inactive)
REMARK    1  A    between atoms: C2_2  and  N1_3 
REMARK    2  A    between atoms: C6_7  and  C7_8 
REMARK    3  A    between atoms: C8_9  and  N2_10 
REMARK    4  A    between atoms: N2_10  and  C9_11 
REMARK    5  A    between atoms: C9_11  and  C10_12 
REMARK    6  A    between atoms: C12_17  and  C13_18 
REMARK    7  A    between atoms: C13_18  and  C14_19 
ROOT
HETATM    1  C10 UNL     1      24.254   5.638  48.957  1.00  0.00     0.118 C 
HETATM    2  N3  UNL     1      23.448   6.079  49.924  1.00  0.00    -0.234 NA
HETATM    3  C11 UNL     1      24.044   6.950  50.880  1.00  0.00     0.194 C 
HETATM    4  N4  UNL     1      24.479   6.038  51.679  1.00  0.00    -0.206 NA
HETATM    5  N5  UNL     1      24.333   4.658  51.526  1.00  0.00    -0.233 NA
HETATM    6  C12 UNL     1      24.135   3.206  51.584  1.00  0.00     0.038 C 
HETATM    7  C15 UNL     1      23.539   3.301  50.445  1.00  0.00     0.105 C 
HETATM    8  C16 UNL     1      22.906   2.191  49.640  1.00  0.00    -0.021 C 
HETATM    9  C17 UNL     1      22.399   2.651  48.462  1.00  0.00    -0.011 C 
HETATM   10  C18 UNL     1      22.327   3.990  47.760  1.00  0.00     0.148 C 
HETATM   11  N6  UNL     1      23.307   4.824  48.368  1.00  0.00    -0.373 N 
HETATM   12  H19 UNL     1      24.182   5.178  52.463  1.00  0.00     0.259 HD
HETATM   13  H27 UNL     1      24.110   4.134  48.563  1.00  0.00     0.161 HD
ENDROOT
BRANCH   1  14
HETATM   14  C9  UNL     1      25.593   6.156  49.081  1.00  0.00     0.197 C 
BRANCH  14  15
HETATM   15  N2  UNL     1      26.612   5.163  49.111  1.00  0.00    -0.392 N 
HETATM   16  H15 UNL     1      26.330   4.293  49.569  1.00  0.00     0.159 HD
BRANCH  15  17
HETATM   17  C8  UNL     1      27.958   5.081  48.631  1.00  0.00     0.079 C 
HETATM   18  C7  UNL     1      28.842   5.995  48.189  1.00  0.00    -0.004 C 
BRANCH  18  19
HETATM   19  C6  UNL     1      30.222   5.805  47.695  1.00  0.00     0.038 C 
HETATM   20  C5  UNL     1      30.586   7.079  46.901  1.00  0.00     0.012 C 
HETATM   21  C4  UNL     1      31.966   7.555  47.277  1.00  0.00     0.031 C 
HETATM   22  C3  UNL     1      32.930   6.408  47.376  1.00  0.00     0.272 C 
HETATM   23  N1  UNL     1      32.573   5.416  48.389  1.00  0.00     0.088 N 
HETATM   24  C19 UNL     1      31.167   5.540  48.802  1.00  0.00     0.280 C 
BRANCH  23  25
HETATM   25  C2  UNL     1      32.808   4.079  47.844  1.00  0.00     0.268 C 
HETATM   26  C1  UNL     1      34.261   3.744  47.797  1.00  0.00     0.037 C 
ENDBRANCH  23  25
ENDBRANCH  18  19
ENDBRANCH  15  17
ENDBRANCH  14  15
ENDBRANCH   1  14
BRANCH   6  27
HETATM   27  C13 UNL     1      24.744   2.832  52.876  1.00  0.00     0.007 C 
BRANCH  27  28
HETATM   28  C14 UNL     1      24.437   1.532  53.058  1.00  0.00     0.215 C 
HETATM   29 CL1  UNL     1      24.290  -0.169  53.088  1.00  0.00    -0.230 Cl
ENDBRANCH  27  28
ENDBRANCH   6  27
TORSDOF 7
ENDMDL
MODEL 8
REMARK VINA RESULT:      -6.2      2.669      4.310
REMARK  7 active torsions:
REMARK  status: ('A' for Active; 'I' for Inactive)
REMARK    1  A    between atoms: C2_2  and  N1_3 
REMARK    2  A    between atoms: C6_7  and  C7_8 
REMARK    3  A    between atoms: C8_9  and  N2_10 
REMARK    4  A    between atoms: N2_10  and  C9_11 
REMARK    5  A    between atoms: C9_11  and  C10_12 
REMARK    6  A    between atoms: C12_17  and  C13_18 
REMARK    7  A    between atoms: C13_18  and  C14_19 
ROOT
HETATM    1  C10 UNL     1      22.386   4.430  51.848  1.00  0.00     0.118 C 
HETATM    2  N3  UNL     1      21.387   5.005  51.176  1.00  0.00    -0.234 NA
HETATM    3  C11 UNL     1      20.171   4.267  51.119  1.00  0.00     0.194 C 
HETATM    4  N4  UNL     1      20.455   3.570  50.073  1.00  0.00    -0.206 NA
HETATM    5  N5  UNL     1      21.631   3.632  49.325  1.00  0.00    -0.233 NA
HETATM    6  C12 UNL     1      22.736   3.684  48.361  1.00  0.00     0.038 C 
HETATM    7  C15 UNL     1      23.293   4.550  49.137  1.00  0.00     0.105 C 
HETATM    8  C16 UNL     1      24.607   5.266  48.926  1.00  0.00    -0.021 C 
HETATM    9  C17 UNL     1      24.904   6.087  49.972  1.00  0.00    -0.011 C 
HETATM   10  C18 UNL     1      24.253   6.445  51.291  1.00  0.00     0.148 C 
HETATM   11  N6  UNL     1      23.307   5.420  51.572  1.00  0.00    -0.373 N 
HETATM   12  H19 UNL     1      20.644   3.589  48.887  1.00  0.00     0.259 HD
HETATM   13  H27 UNL     1      23.807   4.537  51.211  1.00  0.00     0.161 HD
ENDROOT
BRANCH   1  14
HETATM   14  C9  UNL     1      22.011   3.150  52.397  1.00  0.00     0.197 C 
BRANCH  14  15
HETATM   15  N2  UNL     1      22.736   2.045  51.871  1.00  0.00    -0.392 N 
HETATM   16  H15 UNL     1      22.323   1.642  51.026  1.00  0.00     0.159 HD
BRANCH  15  17
HETATM   17  C8  UNL     1      23.937   1.357  52.236  1.00  0.00     0.079 C 
HETATM   18  C7  UNL     1      24.635   1.257  53.383  1.00  0.00    -0.004 C 
BRANCH  18  19
HETATM   19  C6  UNL     1      25.889   0.523  53.658  1.00  0.00     0.038 C 
HETATM   20  C5  UNL     1      25.593  -0.970  53.396  1.00  0.00     0.012 C 
HETATM   21  C4  UNL     1      26.705  -1.591  52.590  1.00  0.00     0.031 C 
HETATM   22  C3  UNL     1      28.051  -1.149  53.088  1.00  0.00     0.272 C 
HETATM   23  N1  UNL     1      28.272   0.293  53.004  1.00  0.00     0.088 N 
HETATM   24  C19 UNL     1      27.010   1.029  52.836  1.00  0.00     0.280 C 
BRANCH  23  25
HETATM   25  C2  UNL     1      28.941   0.741  54.225  1.00  0.00     0.268 C 
HETATM   26  C1  UNL     1      29.171   2.215  54.225  1.00  0.00     0.037 C 
ENDBRANCH  23  25
ENDBRANCH  18  19
ENDBRANCH  15  17
ENDBRANCH  14  15
ENDBRANCH   1  14
BRANCH   6  27
HETATM   27  C13 UNL     1      22.310   2.743  47.306  1.00  0.00     0.007 C 
BRANCH  27  28
HETATM   28  C14 UNL     1      21.875   3.512  46.289  1.00  0.00     0.215 C 
HETATM   29 CL1  UNL     1      21.499   4.293  44.817  1.00  0.00    -0.230 Cl
ENDBRANCH  27  28
ENDBRANCH   6  27
TORSDOF 7
ENDMDL
MODEL 9
REMARK VINA RESULT:      -6.1      8.363     11.628
REMARK  7 active torsions:
REMARK  status: ('A' for Active; 'I' for Inactive)
REMARK    1  A    between atoms: C2_2  and  N1_3 
REMARK    2  A    between atoms: C6_7  and  C7_8 
REMARK    3  A    between atoms: C8_9  and  N2_10 
REMARK    4  A    between atoms: N2_10  and  C9_11 
REMARK    5  A    between atoms: C9_11  and  C10_12 
REMARK    6  A    between atoms: C12_17  and  C13_18 
REMARK    7  A    between atoms: C13_18  and  C14_19 
ROOT
HETATM    1  C10 UNL     1      30.452   5.949  48.949  1.00  0.00     0.118 C 
HETATM    2  N3  UNL     1      30.661   5.080  47.959  1.00  0.00    -0.234 NA
HETATM    3  C11 UNL     1      31.994   4.599  47.827  1.00  0.00     0.194 C 
HETATM    4  N4  UNL     1      32.431   5.544  47.069  1.00  0.00    -0.206 NA
HETATM    5  N5  UNL     1      31.704   6.638  46.598  1.00  0.00    -0.233 NA
HETATM    6  C12 UNL     1      31.042   7.751  45.909  1.00  0.00     0.038 C 
HETATM    7  C15 UNL     1      29.969   7.432  46.550  1.00  0.00     0.105 C 
HETATM    8  C16 UNL     1      28.610   8.084  46.455  1.00  0.00    -0.021 C 
HETATM    9  C17 UNL     1      27.716   7.507  47.306  1.00  0.00    -0.011 C 
HETATM   10  C18 UNL     1      27.753   6.390  48.327  1.00  0.00     0.148 C 
HETATM   11  N6  UNL     1      29.124   6.169  48.642  1.00  0.00    -0.373 N 
HETATM   12  H19 UNL     1      32.375   6.055  45.983  1.00  0.00     0.259 HD
HETATM   13  H27 UNL     1      29.530   7.166  48.623  1.00  0.00     0.161 HD
ENDROOT
BRANCH   1  14
HETATM   14  C9  UNL     1      31.651   6.221  49.702  1.00  0.00     0.197 C 
BRANCH  14  15
HETATM   15  N2  UNL     1      31.833   7.588  50.053  1.00  0.00    -0.392 N 
HETATM   16  H15 UNL     1      32.355   7.728  50.921  1.00  0.00     0.159 HD
BRANCH  15  17
HETATM   17  C8  UNL     1      31.469   8.840  49.462  1.00  0.00     0.079 C 
HETATM   18  C7  UNL     1      30.439   9.686  49.646  1.00  0.00    -0.004 C 
BRANCH  18  19
HETATM   19  C6  UNL     1      30.141  10.965  48.967  1.00  0.00     0.038 C 
HETATM   20  C5  UNL     1      31.186  11.120  47.839  1.00  0.00     0.012 C 
HETATM   21  C4  UNL     1      30.518  11.560  46.562  1.00  0.00     0.031 C 
HETATM   22  C3  UNL     1      29.499  12.632  46.820  1.00  0.00     0.272 C 
HETATM   23  N1  UNL     1      28.411  12.219  47.703  1.00  0.00     0.088 N 
HETATM   24  C19 UNL     1      28.752  11.004  48.457  1.00  0.00     0.280 C 
BRANCH  23  25
HETATM   25  C2  UNL     1      28.119  13.308  48.635  1.00  0.00     0.268 C 
HETATM   26  C1  UNL     1      26.872  14.039  48.264  1.00  0.00     0.037 C 
ENDBRANCH  23  25
ENDBRANCH  18  19
ENDBRANCH  15  17
ENDBRANCH  14  15
ENDBRANCH   1  14
BRANCH   6  27
HETATM   27  C13 UNL     1      32.109   8.302  45.051  1.00  0.00     0.007 C 
BRANCH  27  28
HETATM   28  C14 UNL     1      33.039   8.788  45.897  1.00  0.00     0.215 C 
HETATM   29 CL1  UNL     1      34.159   9.139  47.137  1.00  0.00    -0.230 Cl
ENDBRANCH  27  28
ENDBRANCH   6  27
TORSDOF 7
ENDMDL
