MODEL 1
REMARK VINA RESULT:      -6.9      0.000      0.000
REMARK  8 active torsions:
REMARK  status: ('A' for Active; 'I' for Inactive)
REMARK       I    between atoms: C1_2  and  N1_3 
REMARK    1  A    between atoms: C1_2  and  C9_11 
REMARK    2  A    between atoms: N1_3  and  C2_4 
REMARK    3  A    between atoms: C2_4  and  C3_5 
REMARK    4  A    between atoms: C12_14  and  N2_15 
REMARK    5  A    between atoms: N2_15  and  C13_16 
REMARK    6  A    between atoms: N2_15  and  C15_19 
REMARK    7  A    between atoms: C13_16  and  C14_17 
REMARK    8  A    between atoms: C15_19  and  C16_20 
ROOT
HETATM    1  C9  UNL     1      26.784   5.070  49.017  1.00  0.00     0.032 A 
HETATM    2  C10 UNL     1      26.020   6.193  48.711  1.00  0.00     0.019 A 
HETATM    3  C11 UNL     1      26.633   7.204  48.034  1.00  0.00     0.030 A 
HETATM    4  C12 UNL     1      27.936   7.263  47.600  1.00  0.00     0.030 A 
HETATM    5  C17 UNL     1      28.641   6.130  47.929  1.00  0.00     0.030 A 
HETATM    6  C18 UNL     1      28.100   5.046  48.620  1.00  0.00     0.019 A 
ENDROOT
BRANCH   1   7
HETATM    7  C1  UNL     1      26.245   3.922  49.733  1.00  0.00     0.251 C 
HETATM    8  O1  UNL     1      25.204   3.320  49.300  1.00  0.00    -0.268 OA
HETATM    9  N1  UNL     1      26.772   3.359  50.926  1.00  0.00    -0.353 N 
HETATM   10  H1  UNL     1      27.625   3.829  51.308  1.00  0.00     0.163 HD
BRANCH   9  11
HETATM   11  C2  UNL     1      26.253   2.221  51.646  1.00  0.00     0.161 C 
BRANCH  11  12
HETATM   12  C3  UNL     1      27.257   1.583  52.543  1.00  0.00    -0.041 A 
HETATM   13  C4  UNL     1      27.207   0.185  52.554  1.00  0.00     0.009 A 
HETATM   14  C5  UNL     1      28.064  -0.610  53.326  1.00  0.00     0.001 A 
HETATM   15  C6  UNL     1      29.008   0.014  54.120  1.00  0.00     0.000 A 
HETATM   16  C7  UNL     1      29.037   1.393  54.092  1.00  0.00     0.001 A 
HETATM   17  C8  UNL     1      28.202   2.189  53.339  1.00  0.00     0.009 A 
ENDBRANCH  11  12
ENDBRANCH   9  11
ENDBRANCH   1   7
BRANCH   4  18
HETATM   18  N2  UNL     1      28.529   8.357  46.883  1.00  0.00    -0.379 N 
BRANCH  18  19
HETATM   19  C13 UNL     1      28.674   9.650  47.470  1.00  0.00     0.138 C 
BRANCH  19  20
HETATM   20  C14 UNL     1      29.183   9.711  48.875  1.00  0.00     0.134 C 
HETATM   21 CL1  UNL     1      30.697   8.909  49.205  1.00  0.00    -0.129 Cl
ENDBRANCH  19  20
ENDBRANCH  18  19
BRANCH  18  22
HETATM   22  C15 UNL     1      29.021   8.249  45.552  1.00  0.00     0.138 C 
BRANCH  22  23
HETATM   23  C16 UNL     1      30.473   8.657  45.415  1.00  0.00     0.134 C 
HETATM   24 CL2  UNL     1      31.477   7.319  46.022  1.00  0.00    -0.129 Cl
ENDBRANCH  22  23
ENDBRANCH  18  22
ENDBRANCH   4  18
TORSDOF 8
ENDMDL
MODEL 2
REMARK VINA RESULT:      -6.8      0.482      1.992
REMARK  8 active torsions:
REMARK  status: ('A' for Active; 'I' for Inactive)
REMARK       I    between atoms: C1_2  and  N1_3 
REMARK    1  A    between atoms: C1_2  and  C9_11 
REMARK    2  A    between atoms: N1_3  and  C2_4 
REMARK    3  A    between atoms: C2_4  and  C3_5 
REMARK    4  A    between atoms: C12_14  and  N2_15 
REMARK    5  A    between atoms: N2_15  and  C13_16 
REMARK    6  A    between atoms: N2_15  and  C15_19 
REMARK    7  A    between atoms: C13_16  and  C14_17 
REMARK    8  A    between atoms: C15_19  and  C16_20 
ROOT
HETATM    1  C9  UNL     1      26.865   5.122  48.967  1.00  0.00     0.032 A 
HETATM    2  C10 UNL     1      28.200   5.080  48.573  1.00  0.00     0.019 A 
HETATM    3  C11 UNL     1      28.690   6.158  47.899  1.00  0.00     0.030 A 
HETATM    4  C12 UNL     1      28.027   7.309  47.548  1.00  0.00     0.030 A 
HETATM    5  C17 UNL     1      26.715   7.295  47.961  1.00  0.00     0.030 A 
HETATM    6  C18 UNL     1      26.126   6.239  48.655  1.00  0.00     0.019 A 
ENDROOT
BRANCH   1   7
HETATM    7  C1  UNL     1      26.224   4.036  49.696  1.00  0.00     0.251 C 
HETATM    8  O1  UNL     1      25.119   3.545  49.285  1.00  0.00    -0.268 OA
HETATM    9  N1  UNL     1      26.714   3.422  50.880  1.00  0.00    -0.353 N 
HETATM   10  H1  UNL     1      27.619   3.802  51.243  1.00  0.00     0.163 HD
BRANCH   9  11
HETATM   11  C2  UNL     1      26.095   2.344  51.613  1.00  0.00     0.161 C 
BRANCH  11  12
HETATM   12  C3  UNL     1      27.068   1.519  52.383  1.00  0.00    -0.041 A 
HETATM   13  C4  UNL     1      26.844   0.142  52.297  1.00  0.00     0.009 A 
HETATM   14  C5  UNL     1      27.643  -0.811  52.942  1.00  0.00     0.001 A 
HETATM   15  C6  UNL     1      28.709  -0.372  53.705  1.00  0.00     0.000 A 
HETATM   16  C7  UNL     1      28.910   0.991  53.774  1.00  0.00     0.001 A 
HETATM   17  C8  UNL     1      28.133   1.941  53.145  1.00  0.00     0.009 A 
ENDBRANCH  11  12
ENDBRANCH   9  11
ENDBRANCH   1   7
BRANCH   4  18
HETATM   18  N2  UNL     1      28.598   8.419  46.838  1.00  0.00    -0.379 N 
BRANCH  18  19
HETATM   19  C13 UNL     1      29.012   8.308  45.478  1.00  0.00     0.138 C 
BRANCH  19  20
HETATM   20  C14 UNL     1      30.478   8.413  45.197  1.00  0.00     0.134 C 
HETATM   21 CL1  UNL     1      31.555   7.571  46.281  1.00  0.00    -0.129 Cl
ENDBRANCH  19  20
ENDBRANCH  18  19
BRANCH  18  22
HETATM   22  C15 UNL     1      28.789   9.705  47.417  1.00  0.00     0.138 C 
BRANCH  22  23
HETATM   23  C16 UNL     1      29.579   9.669  48.708  1.00  0.00     0.134 C 
HETATM   24 CL2  UNL     1      31.142  10.468  48.415  1.00  0.00    -0.129 Cl
ENDBRANCH  22  23
ENDBRANCH  18  22
ENDBRANCH   4  18
TORSDOF 8
ENDMDL
MODEL 3
REMARK VINA RESULT:      -6.7      1.355      2.261
REMARK  8 active torsions:
REMARK  status: ('A' for Active; 'I' for Inactive)
REMARK       I    between atoms: C1_2  and  N1_3 
REMARK    1  A    between atoms: C1_2  and  C9_11 
REMARK    2  A    between atoms: N1_3  and  C2_4 
REMARK    3  A    between atoms: C2_4  and  C3_5 
REMARK    4  A    between atoms: C12_14  and  N2_15 
REMARK    5  A    between atoms: N2_15  and  C13_16 
REMARK    6  A    between atoms: N2_15  and  C15_19 
REMARK    7  A    between atoms: C13_16  and  C14_17 
REMARK    8  A    between atoms: C15_19  and  C16_20 
ROOT
HETATM    1  C9  UNL     1      26.819   5.059  49.164  1.00  0.00     0.032 A 
HETATM    2  C10 UNL     1      28.077   4.952  48.575  1.00  0.00     0.019 A 
HETATM    3  C11 UNL     1      28.605   6.075  48.014  1.00  0.00     0.030 A 
HETATM    4  C12 UNL     1      28.049   7.331  47.950  1.00  0.00     0.030 A 
HETATM    5  C17 UNL     1      26.810   7.377  48.546  1.00  0.00     0.030 A 
HETATM    6  C18 UNL     1      26.189   6.281  49.144  1.00  0.00     0.019 A 
ENDROOT
BRANCH   1   7
HETATM    7  C1  UNL     1      26.149   3.933  49.800  1.00  0.00     0.251 C 
HETATM    8  O1  UNL     1      25.054   3.478  49.323  1.00  0.00    -0.268 OA
HETATM    9  N1  UNL     1      26.597   3.239  50.956  1.00  0.00    -0.353 N 
HETATM   10  H1  UNL     1      27.492   3.587  51.372  1.00  0.00     0.163 HD
BRANCH   9  11
HETATM   11  C2  UNL     1      25.949   2.121  51.597  1.00  0.00     0.161 C 
BRANCH  11  12
HETATM   12  C3  UNL     1      26.900   1.200  52.281  1.00  0.00    -0.041 A 
HETATM   13  C4  UNL     1      27.939   1.849  52.955  1.00  0.00     0.009 A 
HETATM   14  C5  UNL     1      28.939   1.171  53.664  1.00  0.00     0.001 A 
HETATM   15  C6  UNL     1      28.901  -0.210  53.703  1.00  0.00     0.000 A 
HETATM   16  C7  UNL     1      27.866  -0.827  53.031  1.00  0.00     0.001 A 
HETATM   17  C8  UNL     1      26.875  -0.175  52.329  1.00  0.00     0.009 A 
ENDBRANCH  11  12
ENDBRANCH   9  11
ENDBRANCH   1   7
BRANCH   4  18
HETATM   18  N2  UNL     1      28.656   8.484  47.348  1.00  0.00    -0.379 N 
BRANCH  18  19
HETATM   19  C13 UNL     1      27.948   9.310  46.425  1.00  0.00     0.138 C 
BRANCH  19  20
HETATM   20  C14 UNL     1      27.717  10.735  46.816  1.00  0.00     0.134 C 
HETATM   21 CL1  UNL     1      26.998  11.020  48.381  1.00  0.00    -0.129 Cl
ENDBRANCH  19  20
ENDBRANCH  18  19
BRANCH  18  22
HETATM   22  C15 UNL     1      29.989   8.901  47.619  1.00  0.00     0.138 C 
BRANCH  22  23
HETATM   23  C16 UNL     1      30.228   9.234  49.077  1.00  0.00     0.134 C 
HETATM   24 CL2  UNL     1      30.645  10.960  49.183  1.00  0.00    -0.129 Cl
ENDBRANCH  22  23
ENDBRANCH  18  22
ENDBRANCH   4  18
TORSDOF 8
ENDMDL
MODEL 4
REMARK VINA RESULT:      -6.6      1.519      2.390
REMARK  8 active torsions:
REMARK  status: ('A' for Active; 'I' for Inactive)
REMARK       I    between atoms: C1_2  and  N1_3 
REMARK    1  A    between atoms: C1_2  and  C9_11 
REMARK    2  A    between atoms: N1_3  and  C2_4 
REMARK    3  A    between atoms: C2_4  and  C3_5 
REMARK    4  A    between atoms: C12_14  and  N2_15 
REMARK    5  A    between atoms: N2_15  and  C13_16 
REMARK    6  A    between atoms: N2_15  and  C15_19 
REMARK    7  A    between atoms: C13_16  and  C14_17 
REMARK    8  A    between atoms: C15_19  and  C16_20 
ROOT
HETATM    1  C9  UNL     1      26.219   5.043  49.289  1.00  0.00     0.032 A 
HETATM    2  C10 UNL     1      25.810   6.365  49.136  1.00  0.00     0.019 A 
HETATM    3  C11 UNL     1      26.694   7.234  48.569  1.00  0.00     0.030 A 
HETATM    4  C12 UNL     1      27.965   6.972  48.116  1.00  0.00     0.030 A 
HETATM    5  C17 UNL     1      28.314   5.653  48.293  1.00  0.00     0.030 A 
HETATM    6  C18 UNL     1      27.479   4.694  48.863  1.00  0.00     0.019 A 
ENDROOT
BRANCH   1   7
HETATM    7  C1  UNL     1      25.366   4.018  49.877  1.00  0.00     0.251 C 
HETATM    8  O1  UNL     1      24.608   3.306  49.136  1.00  0.00    -0.268 OA
HETATM    9  N1  UNL     1      25.276   3.699  51.258  1.00  0.00    -0.353 N 
HETATM   10  H1  UNL     1      25.884   4.265  51.893  1.00  0.00     0.163 HD
BRANCH   9  11
HETATM   11  C2  UNL     1      24.440   2.686  51.857  1.00  0.00     0.161 C 
BRANCH  11  12
HETATM   12  C3  UNL     1      25.172   1.426  52.170  1.00  0.00    -0.041 A 
HETATM   13  C4  UNL     1      24.470   0.549  53.002  1.00  0.00     0.009 A 
HETATM   14  C5  UNL     1      24.975  -0.690  53.416  1.00  0.00     0.001 A 
HETATM   15  C6  UNL     1      26.232  -1.070  52.983  1.00  0.00     0.000 A 
HETATM   16  C7  UNL     1      26.904  -0.187  52.163  1.00  0.00     0.001 A 
HETATM   17  C8  UNL     1      26.422   1.035  51.747  1.00  0.00     0.009 A 
ENDBRANCH  11  12
ENDBRANCH   9  11
ENDBRANCH   1   7
BRANCH   4  18
HETATM   18  N2  UNL     1      28.853   7.930  47.520  1.00  0.00    -0.379 N 
BRANCH  18  19
HETATM   19  C13 UNL     1      29.770   7.564  46.489  1.00  0.00     0.138 C 
BRANCH  19  20
HETATM   20  C14 UNL     1      31.229   7.641  46.809  1.00  0.00     0.134 C 
HETATM   21 CL1  UNL     1      31.743   6.956  48.330  1.00  0.00    -0.129 Cl
ENDBRANCH  19  20
ENDBRANCH  18  19
BRANCH  18  22
HETATM   22  C15 UNL     1      28.892   9.302  47.892  1.00  0.00     0.138 C 
BRANCH  22  23
HETATM   23  C16 UNL     1      29.342   9.523  49.321  1.00  0.00     0.134 C 
HETATM   24 CL2  UNL     1      30.705  10.666  49.294  1.00  0.00    -0.129 Cl
ENDBRANCH  22  23
ENDBRANCH  18  22
ENDBRANCH   4  18
TORSDOF 8
ENDMDL
MODEL 5
REMARK VINA RESULT:      -6.6      7.382     10.116
REMARK  8 active torsions:
REMARK  status: ('A' for Active; 'I' for Inactive)
REMARK       I    between atoms: C1_2  and  N1_3 
REMARK    1  A    between atoms: C1_2  and  C9_11 
REMARK    2  A    between atoms: N1_3  and  C2_4 
REMARK    3  A    between atoms: C2_4  and  C3_5 
REMARK    4  A    between atoms: C12_14  and  N2_15 
REMARK    5  A    between atoms: N2_15  and  C13_16 
REMARK    6  A    between atoms: N2_15  and  C15_19 
REMARK    7  A    between atoms: C13_16  and  C14_17 
REMARK    8  A    between atoms: C15_19  and  C16_20 
ROOT
HETATM    1  C9  UNL     1      21.668   0.688  52.878  1.00  0.00     0.032 A 
HETATM    2  C10 UNL     1      22.388  -0.452  53.229  1.00  0.00     0.019 A 
HETATM    3  C11 UNL     1      23.728  -0.310  53.434  1.00  0.00     0.030 A 
HETATM    4  C12 UNL     1      24.481   0.836  53.338  1.00  0.00     0.030 A 
HETATM    5  C17 UNL     1      23.719   1.926  52.989  1.00  0.00     0.030 A 
HETATM    6  C18 UNL     1      22.345   1.879  52.759  1.00  0.00     0.019 A 
ENDROOT
BRANCH   1   7
HETATM    7  C1  UNL     1      20.232   0.668  52.636  1.00  0.00     0.251 C 
HETATM    8  O1  UNL     1      19.641   1.699  52.166  1.00  0.00    -0.268 OA
HETATM    9  N1  UNL     1      19.360  -0.427  52.874  1.00  0.00    -0.353 N 
HETATM   10  H1  UNL     1      19.812  -1.289  53.260  1.00  0.00     0.163 HD
BRANCH   9  11
HETATM   11  C2  UNL     1      17.937  -0.466  52.638  1.00  0.00     0.161 C 
BRANCH  11  12
HETATM   12  C3  UNL     1      17.327  -1.796  52.917  1.00  0.00    -0.041 A 
HETATM   13  C4  UNL     1      16.066  -1.979  52.343  1.00  0.00     0.009 A 
HETATM   14  C5  UNL     1      15.321  -3.157  52.480  1.00  0.00     0.001 A 
HETATM   15  C6  UNL     1      15.855  -4.195  53.221  1.00  0.00     0.000 A 
HETATM   16  C7  UNL     1      17.100  -3.990  53.778  1.00  0.00     0.001 A 
HETATM   17  C8  UNL     1      17.846  -2.838  53.652  1.00  0.00     0.009 A 
ENDBRANCH  11  12
ENDBRANCH   9  11
ENDBRANCH   1   7
BRANCH   4  18
HETATM   18  N2  UNL     1      25.895   0.928  53.571  1.00  0.00    -0.379 N 
BRANCH  18  19
HETATM   19  C13 UNL     1      26.558   0.083  54.510  1.00  0.00     0.138 C 
BRANCH  19  20
HETATM   20  C14 UNL     1      28.023   0.305  54.718  1.00  0.00     0.134 C 
HETATM   21 CL1  UNL     1      29.114  -0.765  53.873  1.00  0.00    -0.129 Cl
ENDBRANCH  19  20
ENDBRANCH  18  19
BRANCH  18  22
HETATM   22  C15 UNL     1      26.744   1.847  52.893  1.00  0.00     0.138 C 
BRANCH  22  23
HETATM   23  C16 UNL     1      26.793   1.624  51.396  1.00  0.00     0.134 C 
HETATM   24 CL2  UNL     1      26.492   3.187  50.601  1.00  0.00    -0.129 Cl
ENDBRANCH  22  23
ENDBRANCH  18  22
ENDBRANCH   4  18
TORSDOF 8
ENDMDL
MODEL 6
REMARK VINA RESULT:      -6.5      1.690      2.443
REMARK  8 active torsions:
REMARK  status: ('A' for Active; 'I' for Inactive)
REMARK       I    between atoms: C1_2  and  N1_3 
REMARK    1  A    between atoms: C1_2  and  C9_11 
REMARK    2  A    between atoms: N1_3  and  C2_4 
REMARK    3  A    between atoms: C2_4  and  C3_5 
REMARK    4  A    between atoms: C12_14  and  N2_15 
REMARK    5  A    between atoms: N2_15  and  C13_16 
REMARK    6  A    between atoms: N2_15  and  C15_19 
REMARK    7  A    between atoms: C13_16  and  C14_17 
REMARK    8  A    between atoms: C15_19  and  C16_20 
ROOT
HETATM    1  C9  UNL     1      26.367   5.168  49.242  1.00  0.00     0.032 A 
HETATM    2  C10 UNL     1      26.078   6.528  49.171  1.00  0.00     0.019 A 
HETATM    3  C11 UNL     1      27.028   7.345  48.635  1.00  0.00     0.030 A 
HETATM    4  C12 UNL     1      28.263   6.997  48.143  1.00  0.00     0.030 A 
HETATM    5  C17 UNL     1      28.494   5.644  48.239  1.00  0.00     0.030 A 
HETATM    6  C18 UNL     1      27.584   4.732  48.772  1.00  0.00     0.019 A 
ENDROOT
BRANCH   1   7
HETATM    7  C1  UNL     1      25.434   4.192  49.789  1.00  0.00     0.251 C 
HETATM    8  O1  UNL     1      24.489   3.726  49.066  1.00  0.00    -0.268 OA
HETATM    9  N1  UNL     1      25.454   3.666  51.108  1.00  0.00    -0.353 N 
HETATM   10  H1  UNL     1      26.216   4.028  51.727  1.00  0.00     0.163 HD
BRANCH   9  11
HETATM   11  C2  UNL     1      24.541   2.697  51.665  1.00  0.00     0.161 C 
BRANCH  11  12
HETATM   12  C3  UNL     1      25.206   1.431  52.082  1.00  0.00    -0.041 A 
HETATM   13  C4  UNL     1      24.444   0.644  52.951  1.00  0.00     0.009 A 
HETATM   14  C5  UNL     1      24.881  -0.585  53.461  1.00  0.00     0.001 A 
HETATM   15  C6  UNL     1      26.130  -1.048  53.090  1.00  0.00     0.000 A 
HETATM   16  C7  UNL     1      26.862  -0.254  52.232  1.00  0.00     0.001 A 
HETATM   17  C8  UNL     1      26.447   0.957  51.722  1.00  0.00     0.009 A 
ENDBRANCH  11  12
ENDBRANCH   9  11
ENDBRANCH   1   7
BRANCH   4  18
HETATM   18  N2  UNL     1      29.226   7.903  47.583  1.00  0.00    -0.379 N 
BRANCH  18  19
HETATM   19  C13 UNL     1      29.548   7.893  46.193  1.00  0.00     0.138 C 
BRANCH  19  20
HETATM   20  C14 UNL     1      28.480   8.324  45.238  1.00  0.00     0.134 C 
HETATM   21 CL1  UNL     1      27.430   9.619  45.756  1.00  0.00    -0.129 Cl
ENDBRANCH  19  20
ENDBRANCH  18  19
BRANCH  18  22
HETATM   22  C15 UNL     1      29.923   8.878  48.349  1.00  0.00     0.138 C 
BRANCH  22  23
HETATM   23  C16 UNL     1      31.414   8.619  48.433  1.00  0.00     0.134 C 
HETATM   24 CL2  UNL     1      31.674   7.307  49.606  1.00  0.00    -0.129 Cl
ENDBRANCH  22  23
ENDBRANCH  18  22
ENDBRANCH   4  18
TORSDOF 8
ENDMDL
MODEL 7
REMARK VINA RESULT:      -6.5      6.661      9.945
REMARK  8 active torsions:
REMARK  status: ('A' for Active; 'I' for Inactive)
REMARK       I    between atoms: C1_2  and  N1_3 
REMARK    1  A    between atoms: C1_2  and  C9_11 
REMARK    2  A    between atoms: N1_3  and  C2_4 
REMARK    3  A    between atoms: C2_4  and  C3_5 
REMARK    4  A    between atoms: C12_14  and  N2_15 
REMARK    5  A    between atoms: N2_15  and  C13_16 
REMARK    6  A    between atoms: N2_15  and  C15_19 
REMARK    7  A    between atoms: C13_16  and  C14_17 
REMARK    8  A    between atoms: C15_19  and  C16_20 
ROOT
HETATM    1  C9  UNL     1      23.010  -0.560  54.143  1.00  0.00     0.032 A 
HETATM    2  C10 UNL     1      24.023  -1.140  54.903  1.00  0.00     0.019 A 
HETATM    3  C11 UNL     1      25.280  -0.632  54.766  1.00  0.00     0.030 A 
HETATM    4  C12 UNL     1      25.691   0.401  53.959  1.00  0.00     0.030 A 
HETATM    5  C17 UNL     1      24.651   0.934  53.234  1.00  0.00     0.030 A 
HETATM    6  C18 UNL     1      23.334   0.482  53.307  1.00  0.00     0.019 A 
ENDROOT
BRANCH   1   7
HETATM    7  C1  UNL     1      21.625  -1.008  54.203  1.00  0.00     0.251 C 
HETATM    8  O1  UNL     1      21.296  -1.993  54.947  1.00  0.00    -0.268 OA
HETATM    9  N1  UNL     1      20.534  -0.445  53.490  1.00  0.00    -0.353 N 
HETATM   10  H1  UNL     1      20.769   0.364  52.870  1.00  0.00     0.163 HD
BRANCH   9  11
HETATM   11  C2  UNL     1      19.156  -0.874  53.540  1.00  0.00     0.161 C 
BRANCH  11  12
HETATM   12  C3  UNL     1      18.386  -0.528  52.312  1.00  0.00    -0.041 A 
HETATM   13  C4  UNL     1      17.083  -1.034  52.294  1.00  0.00     0.009 A 
HETATM   14  C5  UNL     1      16.189  -0.824  51.236  1.00  0.00     0.001 A 
HETATM   15  C6  UNL     1      16.614  -0.079  50.151  1.00  0.00     0.000 A 
HETATM   16  C7  UNL     1      17.904   0.409  50.192  1.00  0.00     0.001 A 
HETATM   17  C8  UNL     1      18.794   0.211  51.225  1.00  0.00     0.009 A 
ENDBRANCH  11  12
ENDBRANCH   9  11
ENDBRANCH   1   7
BRANCH   4  18
HETATM   18  N2  UNL     1      27.034   0.899  53.859  1.00  0.00    -0.379 N 
BRANCH  18  19
HETATM   19  C13 UNL     1      28.064   0.468  54.748  1.00  0.00     0.138 C 
BRANCH  19  20
HETATM   20  C14 UNL     1      29.193  -0.316  54.160  1.00  0.00     0.134 C 
HETATM   21 CL1  UNL     1      28.772  -1.663  53.131  1.00  0.00    -0.129 Cl
ENDBRANCH  19  20
ENDBRANCH  18  19
BRANCH  18  22
HETATM   22  C15 UNL     1      27.450   1.842  52.878  1.00  0.00     0.138 C 
BRANCH  22  23
HETATM   23  C16 UNL     1      26.989   1.493  51.478  1.00  0.00     0.134 C 
HETATM   24 CL2  UNL     1      26.566   3.009  50.648  1.00  0.00    -0.129 Cl
ENDBRANCH  22  23
ENDBRANCH  18  22
ENDBRANCH   4  18
TORSDOF 8
ENDMDL
MODEL 8
REMARK VINA RESULT:      -6.5      7.523     10.322
REMARK  8 active torsions:
REMARK  status: ('A' for Active; 'I' for Inactive)
REMARK       I    between atoms: C1_2  and  N1_3 
REMARK    1  A    between atoms: C1_2  and  C9_11 
REMARK    2  A    between atoms: N1_3  and  C2_4 
REMARK    3  A    between atoms: C2_4  and  C3_5 
REMARK    4  A    between atoms: C12_14  and  N2_15 
REMARK    5  A    between atoms: N2_15  and  C13_16 
REMARK    6  A    between atoms: N2_15  and  C15_19 
REMARK    7  A    between atoms: C13_16  and  C14_17 
REMARK    8  A    between atoms: C15_19  and  C16_20 
ROOT
HETATM    1  C9  UNL     1      21.668   0.795  52.540  1.00  0.00     0.032 A 
HETATM    2  C10 UNL     1      22.521   1.529  51.720  1.00  0.00     0.019 A 
HETATM    3  C11 UNL     1      23.861   1.354  51.892  1.00  0.00     0.030 A 
HETATM    4  C12 UNL     1      24.498   0.530  52.788  1.00  0.00     0.030 A 
HETATM    5  C17 UNL     1      23.608  -0.168  53.570  1.00  0.00     0.030 A 
HETATM    6  C18 UNL     1      22.222  -0.055  53.468  1.00  0.00     0.019 A 
ENDROOT
BRANCH   1   7
HETATM    7  C1  UNL     1      20.217   0.890  52.452  1.00  0.00     0.251 C 
HETATM    8  O1  UNL     1      19.648   2.030  52.353  1.00  0.00    -0.268 OA
HETATM    9  N1  UNL     1      19.307  -0.201  52.463  1.00  0.00    -0.353 N 
HETATM   10  H1  UNL     1      19.740  -1.149  52.544  1.00  0.00     0.163 HD
BRANCH   9  11
HETATM   11  C2  UNL     1      17.868  -0.126  52.373  1.00  0.00     0.161 C 
BRANCH  11  12
HETATM   12  C3  UNL     1      17.193  -1.431  52.616  1.00  0.00    -0.041 A 
HETATM   13  C4  UNL     1      17.915  -2.305  53.434  1.00  0.00     0.009 A 
HETATM   14  C5  UNL     1      17.460  -3.582  53.789  1.00  0.00     0.001 A 
HETATM   15  C6  UNL     1      16.235  -4.004  53.308  1.00  0.00     0.000 A 
HETATM   16  C7  UNL     1      15.541  -3.124  52.504  1.00  0.00     0.001 A 
HETATM   17  C8  UNL     1      15.975  -1.866  52.145  1.00  0.00     0.009 A 
ENDBRANCH  11  12
ENDBRANCH   9  11
ENDBRANCH   1   7
BRANCH   4  18
HETATM   18  N2  UNL     1      25.921   0.381  52.923  1.00  0.00    -0.379 N 
BRANCH  18  19
HETATM   19  C13 UNL     1      26.660   1.098  53.910  1.00  0.00     0.138 C 
BRANCH  19  20
HETATM   20  C14 UNL     1      27.597   0.311  54.771  1.00  0.00     0.134 C 
HETATM   21 CL1  UNL     1      29.302   0.461  54.429  1.00  0.00    -0.129 Cl
ENDBRANCH  19  20
ENDBRANCH  18  19
BRANCH  18  22
HETATM   22  C15 UNL     1      26.700  -0.482  52.104  1.00  0.00     0.138 C 
BRANCH  22  23
HETATM   23  C16 UNL     1      26.521  -1.948  52.439  1.00  0.00     0.134 C 
HETATM   24 CL2  UNL     1      28.129  -2.632  52.776  1.00  0.00    -0.129 Cl
ENDBRANCH  22  23
ENDBRANCH  18  22
ENDBRANCH   4  18
TORSDOF 8
ENDMDL
MODEL 9
REMARK VINA RESULT:      -6.5      4.680      7.280
REMARK  8 active torsions:
REMARK  status: ('A' for Active; 'I' for Inactive)
REMARK       I    between atoms: C1_2  and  N1_3 
REMARK    1  A    between atoms: C1_2  and  C9_11 
REMARK    2  A    between atoms: N1_3  and  C2_4 
REMARK    3  A    between atoms: C2_4  and  C3_5 
REMARK    4  A    between atoms: C12_14  and  N2_15 
REMARK    5  A    between atoms: N2_15  and  C13_16 
REMARK    6  A    between atoms: N2_15  and  C15_19 
REMARK    7  A    between atoms: C13_16  and  C14_17 
REMARK    8  A    between atoms: C15_19  and  C16_20 
ROOT
HETATM    1  C9  UNL     1      27.331   5.599  48.642  1.00  0.00     0.032 A 
HETATM    2  C10 UNL     1      26.171   6.369  48.613  1.00  0.00     0.019 A 
HETATM    3  C11 UNL     1      25.008   5.766  48.988  1.00  0.00     0.030 A 
HETATM    4  C12 UNL     1      24.823   4.469  49.402  1.00  0.00     0.030 A 
HETATM    5  C17 UNL     1      26.000   3.758  49.410  1.00  0.00     0.030 A 
HETATM    6  C18 UNL     1      27.236   4.288  49.044  1.00  0.00     0.019 A 
ENDROOT
BRANCH   1   7
HETATM    7  C1  UNL     1      28.636   6.128  48.269  1.00  0.00     0.251 C 
HETATM    8  O1  UNL     1      28.762   6.870  47.237  1.00  0.00    -0.268 OA
HETATM    9  N1  UNL     1      29.857   5.902  48.959  1.00  0.00    -0.353 N 
HETATM   10  H1  UNL     1      29.789   5.297  49.810  1.00  0.00     0.163 HD
BRANCH   9  11
HETATM   11  C2  UNL     1      31.157   6.421  48.607  1.00  0.00     0.161 C 
BRANCH  11  12
HETATM   12  C3  UNL     1      32.095   5.374  48.112  1.00  0.00    -0.041 A 
HETATM   13  C4  UNL     1      33.431   5.593  48.461  1.00  0.00     0.009 A 
HETATM   14  C5  UNL     1      34.473   4.730  48.099  1.00  0.00     0.001 A 
HETATM   15  C6  UNL     1      34.171   3.603  47.358  1.00  0.00     0.000 A 
HETATM   16  C7  UNL     1      32.846   3.409  47.026  1.00  0.00     0.001 A 
HETATM   17  C8  UNL     1      31.809   4.248  47.375  1.00  0.00     0.009 A 
ENDBRANCH  11  12
ENDBRANCH   9  11
ENDBRANCH   1   7
BRANCH   4  18
HETATM   18  N2  UNL     1      23.570   3.886  49.792  1.00  0.00    -0.379 N 
BRANCH  18  19
HETATM   19  C13 UNL     1      23.482   2.929  50.846  1.00  0.00     0.138 C 
BRANCH  19  20
HETATM   20  C14 UNL     1      23.425   3.454  52.246  1.00  0.00     0.134 C 
HETATM   21 CL1  UNL     1      24.642   2.878  53.357  1.00  0.00    -0.129 Cl
ENDBRANCH  19  20
ENDBRANCH  18  19
BRANCH  18  22
HETATM   22  C15 UNL     1      22.328   4.212  49.177  1.00  0.00     0.138 C 
BRANCH  22  23
HETATM   23  C16 UNL     1      21.544   2.996  48.730  1.00  0.00     0.134 C 
HETATM   24 CL2  UNL     1      22.526   2.124  47.529  1.00  0.00    -0.129 Cl
ENDBRANCH  22  23
ENDBRANCH  18  22
ENDBRANCH   4  18
TORSDOF 8
ENDMDL
