MODEL 1
REMARK VINA RESULT:      -7.6      0.000      0.000
REMARK  6 active torsions:
REMARK  status: ('A' for Active; 'I' for Inactive)
REMARK    1  A    between atoms: C2_2  and  S1_3 
REMARK    2  A    between atoms: C2_2  and  N1_4 
REMARK    3  A    between atoms: N1_4  and  N2_5 
REMARK    4  A    between atoms: N2_5  and  C3_6 
REMARK    5  A    between atoms: N2_5  and  C11_15 
REMARK    6  A    between atoms: C4_7  and  C5_8 
ROOT
HETATM    1  N2  UNL     1      26.073   1.188  52.474  1.00  0.00    -0.267 N 
ENDROOT
BRANCH   1   2
HETATM    2  N1  UNL     1      26.407   2.416  51.888  1.00  0.00    -0.292 N 
HETATM    3  H4  UNL     1      27.160   2.893  52.438  1.00  0.00     0.188 HD
BRANCH   2   4
HETATM    4  C2  UNL     1      26.017   3.188  50.767  1.00  0.00     0.060 C 
HETATM    5  C1  UNL     1      26.563   3.393  49.576  1.00  0.00     0.072 C 
BRANCH   4   6
HETATM    6  S1  UNL     1      24.503   4.143  50.798  1.00  0.00    -0.128 SA
HETATM    7  H3  UNL     1      23.498   3.476  51.525  1.00  0.00     0.108 HD
ENDBRANCH   4   6
ENDBRANCH   2   4
ENDBRANCH   1   2
BRANCH   1   8
HETATM    8  C3  UNL     1      24.721   0.774  52.611  1.00  0.00     0.117 C 
HETATM    9  C4  UNL     1      23.993   0.130  53.478  1.00  0.00     0.030 C 
BRANCH   9  10
HETATM   10  C5  UNL     1      22.577  -0.208  53.440  1.00  0.00    -0.035 A 
HETATM   11  C6  UNL     1      21.757   0.443  52.549  1.00  0.00     0.013 A 
HETATM   12  C7  UNL     1      20.419   0.099  52.539  1.00  0.00     0.024 A 
HETATM   13  C8  UNL     1      19.976  -0.861  53.404  1.00  0.00     0.034 A 
HETATM   14 CL1  UNL     1      18.286  -1.315  53.414  1.00  0.00    -0.084 Cl
HETATM   15  C9  UNL     1      20.836  -1.503  54.297  1.00  0.00     0.024 A 
HETATM   16  C10 UNL     1      22.177  -1.179  54.328  1.00  0.00     0.013 A 
ENDBRANCH   9  10
ENDBRANCH   1   8
BRANCH   1  17
HETATM   17  C11 UNL     1      27.259   0.468  52.880  1.00  0.00     0.056 A 
HETATM   18  C12 UNL     1      27.451  -0.892  52.821  1.00  0.00     0.031 A 
HETATM   19  C13 UNL     1      28.669  -1.363  53.260  1.00  0.00     0.002 A 
HETATM   20  C14 UNL     1      29.638  -0.497  53.733  1.00  0.00     0.000 A 
HETATM   21  C15 UNL     1      29.442   0.853  53.789  1.00  0.00     0.002 A 
HETATM   22  C16 UNL     1      28.223   1.346  53.352  1.00  0.00     0.031 A 
ENDBRANCH   1  17
TORSDOF 6
ENDMDL
MODEL 2
REMARK VINA RESULT:      -7.4      3.921      6.746
REMARK  6 active torsions:
REMARK  status: ('A' for Active; 'I' for Inactive)
REMARK    1  A    between atoms: C2_2  and  S1_3 
REMARK    2  A    between atoms: C2_2  and  N1_4 
REMARK    3  A    between atoms: N1_4  and  N2_5 
REMARK    4  A    between atoms: N2_5  and  C3_6 
REMARK    5  A    between atoms: N2_5  and  C11_15 
REMARK    6  A    between atoms: C4_7  and  C5_8 
ROOT
HETATM    1  N2  UNL     1      26.407   1.607  51.794  1.00  0.00    -0.267 N 
ENDROOT
BRANCH   1   2
HETATM    2  N1  UNL     1      25.209   0.886  51.878  1.00  0.00    -0.292 N 
HETATM    3  H4  UNL     1      25.263   0.016  51.298  1.00  0.00     0.188 HD
BRANCH   2   4
HETATM    4  C2  UNL     1      23.955   1.001  52.525  1.00  0.00     0.060 C 
HETATM    5  C1  UNL     1      23.035   1.955  52.551  1.00  0.00     0.072 C 
BRANCH   4   6
HETATM    6  S1  UNL     1      23.335  -0.326  53.555  1.00  0.00    -0.128 SA
HETATM    7  H3  UNL     1      24.242  -1.402  53.597  1.00  0.00     0.108 HD
ENDBRANCH   4   6
ENDBRANCH   2   4
ENDBRANCH   1   2
BRANCH   1   8
HETATM    8  C3  UNL     1      26.501   2.805  51.036  1.00  0.00     0.117 C 
HETATM    9  C4  UNL     1      26.506   3.155  49.782  1.00  0.00     0.030 C 
BRANCH   9  10
HETATM   10  C5  UNL     1      26.616   4.477  49.181  1.00  0.00    -0.035 A 
HETATM   11  C6  UNL     1      27.831   4.887  48.686  1.00  0.00     0.013 A 
HETATM   12  C7  UNL     1      27.901   6.148  48.123  1.00  0.00     0.024 A 
HETATM   13  C8  UNL     1      26.774   6.920  48.084  1.00  0.00     0.034 A 
HETATM   14 CL1  UNL     1      26.835   8.519  47.379  1.00  0.00    -0.084 Cl
HETATM   15  C9  UNL     1      25.556   6.471  48.598  1.00  0.00     0.024 A 
HETATM   16  C10 UNL     1      25.457   5.218  49.164  1.00  0.00     0.013 A 
ENDBRANCH   9  10
ENDBRANCH   1   8
BRANCH   1  17
HETATM   17  C11 UNL     1      27.452   0.968  52.561  1.00  0.00     0.056 A 
HETATM   18  C12 UNL     1      28.438   1.596  53.285  1.00  0.00     0.031 A 
HETATM   19  C13 UNL     1      29.332   0.783  53.947  1.00  0.00     0.002 A 
HETATM   20  C14 UNL     1      29.227  -0.594  53.876  1.00  0.00     0.000 A 
HETATM   21  C15 UNL     1      28.246  -1.213  53.156  1.00  0.00     0.002 A 
HETATM   22  C16 UNL     1      27.337  -0.412  52.483  1.00  0.00     0.031 A 
ENDBRANCH   1  17
TORSDOF 6
ENDMDL
MODEL 3
REMARK VINA RESULT:      -7.1      1.916      4.259
REMARK  6 active torsions:
REMARK  status: ('A' for Active; 'I' for Inactive)
REMARK    1  A    between atoms: C2_2  and  S1_3 
REMARK    2  A    between atoms: C2_2  and  N1_4 
REMARK    3  A    between atoms: N1_4  and  N2_5 
REMARK    4  A    between atoms: N2_5  and  C3_6 
REMARK    5  A    between atoms: N2_5  and  C11_15 
REMARK    6  A    between atoms: C4_7  and  C5_8 
ROOT
HETATM    1  N2  UNL     1      25.479   2.290  51.284  1.00  0.00    -0.267 N 
ENDROOT
BRANCH   1   2
HETATM    2  N1  UNL     1      26.726   1.755  51.632  1.00  0.00    -0.292 N 
HETATM    3  H4  UNL     1      27.217   1.387  50.783  1.00  0.00     0.188 HD
BRANCH   2   4
HETATM    4  C2  UNL     1      27.506   1.576  52.799  1.00  0.00     0.060 C 
HETATM    5  C1  UNL     1      28.317   2.377  53.477  1.00  0.00     0.072 C 
BRANCH   4   6
HETATM    6  S1  UNL     1      27.511   0.006  53.662  1.00  0.00    -0.128 SA
HETATM    7  H3  UNL     1      26.304  -0.690  53.455  1.00  0.00     0.108 HD
ENDBRANCH   4   6
ENDBRANCH   2   4
ENDBRANCH   1   2
BRANCH   1   8
HETATM    8  C3  UNL     1      24.266   1.657  51.670  1.00  0.00     0.117 C 
HETATM    9  C4  UNL     1      23.785   1.050  52.716  1.00  0.00     0.030 C 
BRANCH   9  10
HETATM   10  C5  UNL     1      22.476   0.448  52.927  1.00  0.00    -0.035 A 
HETATM   11  C6  UNL     1      22.281  -0.363  54.020  1.00  0.00     0.013 A 
HETATM   12  C7  UNL     1      21.027  -0.918  54.190  1.00  0.00     0.024 A 
HETATM   13  C8  UNL     1      20.050  -0.640  53.277  1.00  0.00     0.034 A 
HETATM   14 CL1  UNL     1      18.454  -1.330  53.469  1.00  0.00    -0.084 Cl
HETATM   15  C9  UNL     1      20.282   0.188  52.178  1.00  0.00     0.024 A 
HETATM   16  C10 UNL     1      21.524   0.756  51.984  1.00  0.00     0.013 A 
ENDBRANCH   9  10
ENDBRANCH   1   8
BRANCH   1  17
HETATM   17  C11 UNL     1      25.631   3.510  50.525  1.00  0.00     0.056 A 
HETATM   18  C12 UNL     1      24.800   4.605  50.559  1.00  0.00     0.031 A 
HETATM   19  C13 UNL     1      25.143   5.665  49.749  1.00  0.00     0.002 A 
HETATM   20  C14 UNL     1      26.270   5.615  48.949  1.00  0.00     0.000 A 
HETATM   21  C15 UNL     1      27.092   4.525  48.919  1.00  0.00     0.002 A 
HETATM   22  C16 UNL     1      26.764   3.447  49.727  1.00  0.00     0.031 A 
ENDBRANCH   1  17
TORSDOF 6
ENDMDL
MODEL 4
REMARK VINA RESULT:      -7.0      4.281      7.356
REMARK  6 active torsions:
REMARK  status: ('A' for Active; 'I' for Inactive)
REMARK    1  A    between atoms: C2_2  and  S1_3 
REMARK    2  A    between atoms: C2_2  and  N1_4 
REMARK    3  A    between atoms: N1_4  and  N2_5 
REMARK    4  A    between atoms: N2_5  and  C3_6 
REMARK    5  A    between atoms: N2_5  and  C11_15 
REMARK    6  A    between atoms: C4_7  and  C5_8 
ROOT
HETATM    1  N2  UNL     1      24.541   2.296  50.902  1.00  0.00    -0.267 N 
ENDROOT
BRANCH   1   2
HETATM    2  N1  UNL     1      23.159   2.283  50.671  1.00  0.00    -0.292 N 
HETATM    3  H4  UNL     1      22.662   2.865  51.386  1.00  0.00     0.188 HD
BRANCH   2   4
HETATM    4  C2  UNL     1      22.252   1.711  49.747  1.00  0.00     0.060 C 
HETATM    5  C1  UNL     1      21.294   0.802  49.865  1.00  0.00     0.072 C 
BRANCH   4   6
HETATM    6  S1  UNL     1      22.267   2.207  48.026  1.00  0.00    -0.128 SA
HETATM    7  H3  UNL     1      22.935   1.257  47.231  1.00  0.00     0.108 HD
ENDBRANCH   4   6
ENDBRANCH   2   4
ENDBRANCH   1   2
BRANCH   1   8
HETATM    8  C3  UNL     1      25.396   3.217  50.237  1.00  0.00     0.117 C 
HETATM    9  C4  UNL     1      25.298   4.379  49.659  1.00  0.00     0.030 C 
BRANCH   9  10
HETATM   10  C5  UNL     1      26.322   5.189  49.013  1.00  0.00    -0.035 A 
HETATM   11  C6  UNL     1      26.003   6.458  48.593  1.00  0.00     0.013 A 
HETATM   12  C7  UNL     1      26.997   7.201  47.984  1.00  0.00     0.024 A 
HETATM   13  C8  UNL     1      28.236   6.647  47.829  1.00  0.00     0.034 A 
HETATM   14 CL1  UNL     1      29.512   7.564  47.061  1.00  0.00    -0.084 Cl
HETATM   15  C9  UNL     1      28.526   5.354  48.268  1.00  0.00     0.024 A 
HETATM   16  C10 UNL     1      27.553   4.591  48.880  1.00  0.00     0.013 A 
ENDBRANCH   9  10
ENDBRANCH   1   8
BRANCH   1  17
HETATM   17  C11 UNL     1      24.915   1.286  51.865  1.00  0.00     0.056 A 
HETATM   18  C12 UNL     1      24.083   0.671  52.772  1.00  0.00     0.031 A 
HETATM   19  C13 UNL     1      24.658  -0.271  53.596  1.00  0.00     0.002 A 
HETATM   20  C14 UNL     1      26.005  -0.571  53.503  1.00  0.00     0.000 A 
HETATM   21  C15 UNL     1      26.827   0.043  52.601  1.00  0.00     0.002 A 
HETATM   22  C16 UNL     1      26.267   0.994  51.763  1.00  0.00     0.031 A 
ENDBRANCH   1  17
TORSDOF 6
ENDMDL
MODEL 5
REMARK VINA RESULT:      -6.9      3.605      7.058
REMARK  6 active torsions:
REMARK  status: ('A' for Active; 'I' for Inactive)
REMARK    1  A    between atoms: C2_2  and  S1_3 
REMARK    2  A    between atoms: C2_2  and  N1_4 
REMARK    3  A    between atoms: N1_4  and  N2_5 
REMARK    4  A    between atoms: N2_5  and  C3_6 
REMARK    5  A    between atoms: N2_5  and  C11_15 
REMARK    6  A    between atoms: C4_7  and  C5_8 
ROOT
HETATM    1  N2  UNL     1      24.117   0.974  52.971  1.00  0.00    -0.267 N 
ENDROOT
BRANCH   1   2
HETATM    2  N1  UNL     1      25.032   0.168  53.663  1.00  0.00    -0.292 N 
HETATM    3  H4  UNL     1      24.633  -0.133  54.583  1.00  0.00     0.188 HD
BRANCH   2   4
HETATM    4  C2  UNL     1      26.333  -0.353  53.467  1.00  0.00     0.060 C 
HETATM    5  C1  UNL     1      26.830  -1.255  52.632  1.00  0.00     0.072 C 
BRANCH   4   6
HETATM    6  S1  UNL     1      27.704   0.217  54.468  1.00  0.00    -0.128 SA
HETATM    7  H3  UNL     1      28.010   1.563  54.190  1.00  0.00     0.108 HD
ENDBRANCH   4   6
ENDBRANCH   2   4
ENDBRANCH   1   2
BRANCH   1   8
HETATM    8  C3  UNL     1      24.550   2.036  52.132  1.00  0.00     0.117 C 
HETATM    9  C4  UNL     1      25.138   2.174  50.979  1.00  0.00     0.030 C 
BRANCH   9  10
HETATM   10  C5  UNL     1      25.510   3.386  50.260  1.00  0.00    -0.035 A 
HETATM   11  C6  UNL     1      26.717   3.430  49.604  1.00  0.00     0.013 A 
HETATM   12  C7  UNL     1      27.039   4.594  48.932  1.00  0.00     0.024 A 
HETATM   13  C8  UNL     1      26.155   5.635  48.950  1.00  0.00     0.034 A 
HETATM   14 CL1  UNL     1      26.539   7.120  48.109  1.00  0.00    -0.084 Cl
HETATM   15  C9  UNL     1      24.937   5.556  49.627  1.00  0.00     0.024 A 
HETATM   16  C10 UNL     1      24.590   4.407  50.306  1.00  0.00     0.013 A 
ENDBRANCH   9  10
ENDBRANCH   1   8
BRANCH   1  17
HETATM   17  C11 UNL     1      22.758   0.562  53.239  1.00  0.00     0.056 A 
HETATM   18  C12 UNL     1      21.614   1.242  52.894  1.00  0.00     0.031 A 
HETATM   19  C13 UNL     1      20.418   0.658  53.248  1.00  0.00     0.002 A 
HETATM   20  C14 UNL     1      20.388  -0.552  53.917  1.00  0.00     0.000 A 
HETATM   21  C15 UNL     1      21.527  -1.224  54.258  1.00  0.00     0.002 A 
HETATM   22  C16 UNL     1      22.740  -0.651  53.910  1.00  0.00     0.031 A 
ENDBRANCH   1  17
TORSDOF 6
ENDMDL
MODEL 6
REMARK VINA RESULT:      -6.7      3.290      5.174
REMARK  6 active torsions:
REMARK  status: ('A' for Active; 'I' for Inactive)
REMARK    1  A    between atoms: C2_2  and  S1_3 
REMARK    2  A    between atoms: C2_2  and  N1_4 
REMARK    3  A    between atoms: N1_4  and  N2_5 
REMARK    4  A    between atoms: N2_5  and  C3_6 
REMARK    5  A    between atoms: N2_5  and  C11_15 
REMARK    6  A    between atoms: C4_7  and  C5_8 
ROOT
HETATM    1  N2  UNL     1      25.923   0.276  52.836  1.00  0.00    -0.267 N 
ENDROOT
BRANCH   1   2
HETATM    2  N1  UNL     1      25.078  -0.447  53.688  1.00  0.00    -0.292 N 
HETATM    3  H4  UNL     1      25.636  -0.946  54.421  1.00  0.00     0.188 HD
BRANCH   2   4
HETATM    4  C2  UNL     1      23.692  -0.687  53.839  1.00  0.00     0.060 C 
HETATM    5  C1  UNL     1      22.649  -0.499  53.041  1.00  0.00     0.072 C 
BRANCH   4   6
HETATM    6  S1  UNL     1      23.047  -1.387  55.356  1.00  0.00    -0.128 SA
HETATM    7  H3  UNL     1      23.969  -1.249  56.411  1.00  0.00     0.108 HD
ENDBRANCH   4   6
ENDBRANCH   2   4
ENDBRANCH   1   2
BRANCH   1   8
HETATM    8  C3  UNL     1      25.406   1.172  51.862  1.00  0.00     0.117 C 
HETATM    9  C4  UNL     1      24.829   2.338  51.835  1.00  0.00     0.030 C 
BRANCH   9  10
HETATM   10  C5  UNL     1      24.354   3.120  50.701  1.00  0.00    -0.035 A 
HETATM   11  C6  UNL     1      25.060   4.234  50.315  1.00  0.00     0.013 A 
HETATM   12  C7  UNL     1      24.582   4.953  49.235  1.00  0.00     0.024 A 
HETATM   13  C8  UNL     1      23.445   4.530  48.608  1.00  0.00     0.034 A 
HETATM   14 CL1  UNL     1      22.818   5.422  47.240  1.00  0.00    -0.084 Cl
HETATM   15  C9  UNL     1      22.752   3.392  49.027  1.00  0.00     0.024 A 
HETATM   16  C10 UNL     1      23.207   2.656  50.101  1.00  0.00     0.013 A 
ENDBRANCH   9  10
ENDBRANCH   1   8
BRANCH   1  17
HETATM   17  C11 UNL     1      27.311  -0.025  53.104  1.00  0.00     0.056 A 
HETATM   18  C12 UNL     1      28.287   0.871  53.474  1.00  0.00     0.031 A 
HETATM   19  C13 UNL     1      29.548   0.359  53.684  1.00  0.00     0.002 A 
HETATM   20  C14 UNL     1      29.803  -0.991  53.526  1.00  0.00     0.000 A 
HETATM   21  C15 UNL     1      28.831  -1.877  53.159  1.00  0.00     0.002 A 
HETATM   22  C16 UNL     1      27.555  -1.380  52.943  1.00  0.00     0.031 A 
ENDBRANCH   1  17
TORSDOF 6
ENDMDL
MODEL 7
REMARK VINA RESULT:      -6.6      3.362      6.824
REMARK  6 active torsions:
REMARK  status: ('A' for Active; 'I' for Inactive)
REMARK    1  A    between atoms: C2_2  and  S1_3 
REMARK    2  A    between atoms: C2_2  and  N1_4 
REMARK    3  A    between atoms: N1_4  and  N2_5 
REMARK    4  A    between atoms: N2_5  and  C3_6 
REMARK    5  A    between atoms: N2_5  and  C11_15 
REMARK    6  A    between atoms: C4_7  and  C5_8 
ROOT
HETATM    1  N2  UNL     1      22.259   1.367  51.885  1.00  0.00    -0.267 N 
ENDROOT
BRANCH   1   2
HETATM    2  N1  UNL     1      21.977   2.560  51.209  1.00  0.00    -0.292 N 
HETATM    3  H4  UNL     1      21.210   2.413  50.510  1.00  0.00     0.188 HD
BRANCH   2   4
HETATM    4  C2  UNL     1      22.431   3.901  51.206  1.00  0.00     0.060 C 
HETATM    5  C1  UNL     1      22.063   4.982  51.880  1.00  0.00     0.072 C 
BRANCH   4   6
HETATM    6  S1  UNL     1      23.769   4.409  50.130  1.00  0.00    -0.128 SA
HETATM    7  H3  UNL     1      24.013   3.445  49.133  1.00  0.00     0.108 HD
ENDBRANCH   4   6
ENDBRANCH   2   4
ENDBRANCH   1   2
BRANCH   1   8
HETATM    8  C3  UNL     1      23.594   0.976  52.177  1.00  0.00     0.117 C 
HETATM    9  C4  UNL     1      24.514   1.265  53.052  1.00  0.00     0.030 C 
BRANCH   9  10
HETATM   10  C5  UNL     1      25.866   0.742  53.192  1.00  0.00    -0.035 A 
HETATM   11  C6  UNL     1      26.846   1.553  53.714  1.00  0.00     0.013 A 
HETATM   12  C7  UNL     1      28.118   1.026  53.833  1.00  0.00     0.024 A 
HETATM   13  C8  UNL     1      28.342  -0.260  53.433  1.00  0.00     0.034 A 
HETATM   14 CL1  UNL     1      29.943  -0.952  53.572  1.00  0.00    -0.084 Cl
HETATM   15  C9  UNL     1      27.323  -1.057  52.906  1.00  0.00     0.024 A 
HETATM   16  C10 UNL     1      26.045  -0.556  52.776  1.00  0.00     0.013 A 
ENDBRANCH   9  10
ENDBRANCH   1   8
BRANCH   1  17
HETATM   17  C11 UNL     1      21.044   0.657  52.214  1.00  0.00     0.056 A 
HETATM   18  C12 UNL     1      20.801  -0.065  53.359  1.00  0.00     0.031 A 
HETATM   19  C13 UNL     1      19.563  -0.659  53.464  1.00  0.00     0.002 A 
HETATM   20  C14 UNL     1      18.622  -0.526  52.458  1.00  0.00     0.000 A 
HETATM   21  C15 UNL     1      18.868   0.193  51.323  1.00  0.00     0.002 A 
HETATM   22  C16 UNL     1      20.109   0.798  51.200  1.00  0.00     0.031 A 
ENDBRANCH   1  17
TORSDOF 6
ENDMDL
MODEL 8
REMARK VINA RESULT:      -6.5      4.668      7.862
REMARK  6 active torsions:
REMARK  status: ('A' for Active; 'I' for Inactive)
REMARK    1  A    between atoms: C2_2  and  S1_3 
REMARK    2  A    between atoms: C2_2  and  N1_4 
REMARK    3  A    between atoms: N1_4  and  N2_5 
REMARK    4  A    between atoms: N2_5  and  C3_6 
REMARK    5  A    between atoms: N2_5  and  C11_15 
REMARK    6  A    between atoms: C4_7  and  C5_8 
ROOT
HETATM    1  N2  UNL     1      24.872   3.277  50.943  1.00  0.00    -0.267 N 
ENDROOT
BRANCH   1   2
HETATM    2  N1  UNL     1      23.532   3.673  51.031  1.00  0.00    -0.292 N 
HETATM    3  H4  UNL     1      23.317   4.028  51.993  1.00  0.00     0.188 HD
BRANCH   2   4
HETATM    4  C2  UNL     1      22.394   3.732  50.192  1.00  0.00     0.060 C 
HETATM    5  C1  UNL     1      22.109   4.432  49.102  1.00  0.00     0.072 C 
BRANCH   4   6
HETATM    6  S1  UNL     1      20.958   2.716  50.528  1.00  0.00    -0.128 SA
HETATM    7  H3  UNL     1      19.766   3.441  50.330  1.00  0.00     0.108 HD
ENDBRANCH   4   6
ENDBRANCH   2   4
ENDBRANCH   1   2
BRANCH   1   8
HETATM    8  C3  UNL     1      25.830   4.051  50.232  1.00  0.00     0.117 C 
HETATM    9  C4  UNL     1      25.843   4.901  49.247  1.00  0.00     0.030 C 
BRANCH   9  10
HETATM   10  C5  UNL     1      26.961   5.611  48.640  1.00  0.00    -0.035 A 
HETATM   11  C6  UNL     1      28.193   5.004  48.595  1.00  0.00     0.013 A 
HETATM   12  C7  UNL     1      29.232   5.705  48.013  1.00  0.00     0.024 A 
HETATM   13  C8  UNL     1      28.991   6.954  47.515  1.00  0.00     0.034 A 
HETATM   14 CL1  UNL     1      30.289   7.864  46.775  1.00  0.00    -0.084 Cl
HETATM   15  C9  UNL     1      27.726   7.542  47.579  1.00  0.00     0.024 A 
HETATM   16  C10 UNL     1      26.671   6.864  48.153  1.00  0.00     0.013 A 
ENDBRANCH   9  10
ENDBRANCH   1   8
BRANCH   1  17
HETATM   17  C11 UNL     1      25.095   2.038  51.651  1.00  0.00     0.056 A 
HETATM   18  C12 UNL     1      24.189   1.374  52.445  1.00  0.00     0.031 A 
HETATM   19  C13 UNL     1      24.618   0.199  53.023  1.00  0.00     0.002 A 
HETATM   20  C14 UNL     1      25.899  -0.274  52.805  1.00  0.00     0.000 A 
HETATM   21  C15 UNL     1      26.795   0.388  52.015  1.00  0.00     0.002 A 
HETATM   22  C16 UNL     1      26.381   1.572  51.426  1.00  0.00     0.031 A 
ENDBRANCH   1  17
TORSDOF 6
ENDMDL
MODEL 9
REMARK VINA RESULT:      -6.4      7.223     10.695
REMARK  6 active torsions:
REMARK  status: ('A' for Active; 'I' for Inactive)
REMARK    1  A    between atoms: C2_2  and  S1_3 
REMARK    2  A    between atoms: C2_2  and  N1_4 
REMARK    3  A    between atoms: N1_4  and  N2_5 
REMARK    4  A    between atoms: N2_5  and  C3_6 
REMARK    5  A    between atoms: N2_5  and  C11_15 
REMARK    6  A    between atoms: C4_7  and  C5_8 
ROOT
HETATM    1  N2  UNL     1      28.083   6.020  48.686  1.00  0.00    -0.267 N 
ENDROOT
BRANCH   1   2
HETATM    2  N1  UNL     1      27.885   7.350  49.079  1.00  0.00    -0.292 N 
HETATM    3  H4  UNL     1      27.097   7.416  49.766  1.00  0.00     0.188 HD
BRANCH   2   4
HETATM    4  C2  UNL     1      28.449   8.621  48.813  1.00  0.00     0.060 C 
HETATM    5  C1  UNL     1      29.433   9.310  49.375  1.00  0.00     0.072 C 
BRANCH   4   6
HETATM    6  S1  UNL     1      27.821   9.637  47.478  1.00  0.00    -0.128 SA
HETATM    7  H3  UNL     1      27.341  10.869  47.961  1.00  0.00     0.108 HD
ENDBRANCH   4   6
ENDBRANCH   2   4
ENDBRANCH   1   2
BRANCH   1   8
HETATM    8  C3  UNL     1      29.316   5.587  48.128  1.00  0.00     0.117 C 
HETATM    9  C4  UNL     1      30.586   5.814  48.302  1.00  0.00     0.030 C 
BRANCH   9  10
HETATM   10  C5  UNL     1      31.739   5.255  47.609  1.00  0.00    -0.035 A 
HETATM   11  C6  UNL     1      32.912   5.970  47.579  1.00  0.00     0.013 A 
HETATM   12  C7  UNL     1      33.986   5.410  46.912  1.00  0.00     0.024 A 
HETATM   13  C8  UNL     1      33.836   4.188  46.321  1.00  0.00     0.034 A 
HETATM   14 CL1  UNL     1      35.178   3.458  45.470  1.00  0.00    -0.084 Cl
HETATM   15  C9  UNL     1      32.628   3.489  46.371  1.00  0.00     0.024 A 
HETATM   16  C10 UNL     1      31.540   4.023  47.030  1.00  0.00     0.013 A 
ENDBRANCH   9  10
ENDBRANCH   1   8
BRANCH   1  17
HETATM   17  C11 UNL     1      26.902   5.225  48.933  1.00  0.00     0.056 A 
HETATM   18  C12 UNL     1      26.869   3.914  49.346  1.00  0.00     0.031 A 
HETATM   19  C13 UNL     1      25.623   3.353  49.523  1.00  0.00     0.002 A 
HETATM   20  C14 UNL     1      24.474   4.087  49.294  1.00  0.00     0.000 A 
HETATM   21  C15 UNL     1      24.512   5.389  48.884  1.00  0.00     0.002 A 
HETATM   22  C16 UNL     1      25.757   5.971  48.699  1.00  0.00     0.031 A 
ENDBRANCH   1  17
TORSDOF 6
ENDMDL
