MODEL 1
REMARK VINA RESULT:      -8.9      0.000      0.000
REMARK  6 active torsions:
REMARK  status: ('A' for Active; 'I' for Inactive)
REMARK    1  A    between atoms: C3_3  and  C4_4 
REMARK       I    between atoms: C4_4  and  N1_6 
REMARK    2  A    between atoms: N1_6  and  C5_7 
REMARK    3  A    between atoms: C8_10  and  N2_11 
REMARK    4  A    between atoms: N2_11  and  C9_12 
REMARK    5  A    between atoms: C19_26  and  O2_27 
REMARK    6  A    between atoms: O2_27  and  C20_28 
ROOT
HETATM    1  C5  UNL     1      24.338   2.900  50.127  1.00  0.00     0.069 A 
HETATM    2  C6  UNL     1      24.547   2.261  51.311  1.00  0.00     0.048 A 
HETATM    3  C7  UNL     1      23.669   1.359  51.870  1.00  0.00     0.023 A 
HETATM    4  C8  UNL     1      23.844   0.696  53.060  1.00  0.00     0.067 A 
HETATM    5  C14 UNL     1      22.875  -0.174  53.483  1.00  0.00     0.089 A 
HETATM    6  C15 UNL     1      22.975  -0.899  54.704  1.00  0.00     0.103 C 
HETATM    7  N3  UNL     1      23.043  -1.483  55.707  1.00  0.00    -0.191 NA
HETATM    8  C16 UNL     1      21.729  -0.402  52.747  1.00  0.00     0.142 A 
HETATM    9  N4  UNL     1      21.542   0.239  51.578  1.00  0.00    -0.259 NA
HETATM   10  C17 UNL     1      22.507   1.092  51.180  1.00  0.00     0.071 A 
HETATM   11  C18 UNL     1      22.280   1.729  49.981  1.00  0.00     0.071 A 
HETATM   12  C19 UNL     1      23.164   2.638  49.418  1.00  0.00     0.097 A 
ENDROOT
BRANCH   4  13
HETATM   13  N2  UNL     1      25.002   0.928  53.804  1.00  0.00    -0.356 N 
HETATM   14  H8  UNL     1      25.099   1.430  54.710  1.00  0.00     0.166 HD
BRANCH  13  15
HETATM   15  C9  UNL     1      26.393   0.626  53.687  1.00  0.00     0.035 A 
HETATM   16  C10 UNL     1      27.340   1.577  53.589  1.00  0.00     0.030 A 
HETATM   17  C11 UNL     1      28.712   1.044  53.477  1.00  0.00     0.042 A 
HETATM   18  C12 UNL     1      28.518  -0.258  53.514  1.00  0.00     0.118 A 
HETATM   19  F1  UNL     1      29.565  -1.133  53.436  1.00  0.00    -0.209 F 
HETATM   20  C13 UNL     1      27.102  -0.680  53.648  1.00  0.00     0.193 A 
HETATM   21 CL1  UNL     1      26.575  -1.730  52.332  1.00  0.00    -0.111 Cl
ENDBRANCH  13  15
ENDBRANCH   4  13
BRANCH   1  22
HETATM   22  N1  UNL     1      25.310   3.819  49.633  1.00  0.00    -0.321 N 
HETATM   23  C4  UNL     1      25.348   5.240  49.705  1.00  0.00     0.245 C 
HETATM   24  O1  UNL     1      24.401   5.818  50.284  1.00  0.00    -0.268 OA
HETATM   25  H6  UNL     1      26.032   3.216  49.181  1.00  0.00     0.169 HD
BRANCH  23  26
HETATM   26  C3  UNL     1      26.480   5.936  49.105  1.00  0.00     0.070 C 
HETATM   27  C2  UNL     1      27.543   5.349  48.583  1.00  0.00    -0.026 C 
HETATM   28  C1  UNL     1      28.650   6.170  47.991  1.00  0.00     0.036 C 
ENDBRANCH  23  26
ENDBRANCH   1  22
BRANCH  12  29
HETATM   29  O2  UNL     1      22.928   3.269  48.219  1.00  0.00    -0.349 OA
BRANCH  29  30
HETATM   30  C20 UNL     1      21.965   4.306  48.187  1.00  0.00     0.171 C 
HETATM   31  C21 UNL     1      22.321   5.396  47.229  1.00  0.00     0.034 C 
ENDBRANCH  29  30
ENDBRANCH  12  29
TORSDOF 6
ENDMDL
MODEL 2
REMARK VINA RESULT:      -8.8      3.619      6.654
REMARK  6 active torsions:
REMARK  status: ('A' for Active; 'I' for Inactive)
REMARK    1  A    between atoms: C3_3  and  C4_4 
REMARK       I    between atoms: C4_4  and  N1_6 
REMARK    2  A    between atoms: N1_6  and  C5_7 
REMARK    3  A    between atoms: C8_10  and  N2_11 
REMARK    4  A    between atoms: N2_11  and  C9_12 
REMARK    5  A    between atoms: C19_26  and  O2_27 
REMARK    6  A    between atoms: O2_27  and  C20_28 
ROOT
HETATM    1  C5  UNL     1      24.234   0.995  52.764  1.00  0.00     0.069 A 
HETATM    2  C6  UNL     1      24.280   2.289  52.340  1.00  0.00     0.048 A 
HETATM    3  C7  UNL     1      23.168   3.052  52.061  1.00  0.00     0.023 A 
HETATM    4  C8  UNL     1      23.174   4.357  51.632  1.00  0.00     0.067 A 
HETATM    5  C14 UNL     1      21.979   4.983  51.396  1.00  0.00     0.089 A 
HETATM    6  C15 UNL     1      21.894   6.330  50.947  1.00  0.00     0.103 C 
HETATM    7  N3  UNL     1      21.818   7.427  50.566  1.00  0.00    -0.191 NA
HETATM    8  C16 UNL     1      20.770   4.338  51.577  1.00  0.00     0.142 A 
HETATM    9  N4  UNL     1      20.747   3.059  51.997  1.00  0.00    -0.259 NA
HETATM   10  C17 UNL     1      21.934   2.461  52.223  1.00  0.00     0.071 A 
HETATM   11  C18 UNL     1      21.870   1.154  52.651  1.00  0.00     0.071 A 
HETATM   12  C19 UNL     1      22.989   0.385  52.932  1.00  0.00     0.097 A 
ENDROOT
BRANCH   4  13
HETATM   13  N2  UNL     1      24.395   5.007  51.449  1.00  0.00    -0.356 N 
HETATM   14  H8  UNL     1      24.934   5.577  52.132  1.00  0.00     0.166 HD
BRANCH  13  15
HETATM   15  C9  UNL     1      25.341   5.167  50.391  1.00  0.00     0.035 A 
HETATM   16  C10 UNL     1      26.191   4.192  50.019  1.00  0.00     0.030 A 
HETATM   17  C11 UNL     1      27.082   4.571  48.904  1.00  0.00     0.042 A 
HETATM   18  C12 UNL     1      26.711   5.807  48.647  1.00  0.00     0.118 A 
HETATM   19  F1  UNL     1      27.308   6.535  47.656  1.00  0.00    -0.209 F 
HETATM   20  C13 UNL     1      25.616   6.327  49.503  1.00  0.00     0.193 A 
HETATM   21 CL1  UNL     1      26.068   7.792  50.375  1.00  0.00    -0.111 Cl
ENDBRANCH  13  15
ENDBRANCH   4  13
BRANCH   1  22
HETATM   22  N1  UNL     1      25.445   0.289  53.027  1.00  0.00    -0.321 N 
HETATM   23  C4  UNL     1      26.473   0.554  53.975  1.00  0.00     0.245 C 
HETATM   24  O1  UNL     1      26.336   1.552  54.716  1.00  0.00    -0.268 OA
HETATM   25  H6  UNL     1      25.432  -0.507  52.352  1.00  0.00     0.169 HD
BRANCH  23  26
HETATM   26  C3  UNL     1      27.617  -0.348  54.028  1.00  0.00     0.070 C 
HETATM   27  C2  UNL     1      28.799  -0.111  53.484  1.00  0.00    -0.026 C 
HETATM   28  C1  UNL     1      29.905  -1.115  53.604  1.00  0.00     0.036 C 
ENDBRANCH  23  26
ENDBRANCH   1  22
BRANCH  12  29
HETATM   29  O2  UNL     1      22.914  -0.920  53.359  1.00  0.00    -0.349 OA
BRANCH  29  30
HETATM   30  C20 UNL     1      22.428  -1.170  54.665  1.00  0.00     0.171 C 
HETATM   31  C21 UNL     1      23.523  -1.390  55.657  1.00  0.00     0.034 C 
ENDBRANCH  29  30
ENDBRANCH  12  29
TORSDOF 6
ENDMDL
MODEL 3
REMARK VINA RESULT:      -8.4      3.158      5.668
REMARK  6 active torsions:
REMARK  status: ('A' for Active; 'I' for Inactive)
REMARK    1  A    between atoms: C3_3  and  C4_4 
REMARK       I    between atoms: C4_4  and  N1_6 
REMARK    2  A    between atoms: N1_6  and  C5_7 
REMARK    3  A    between atoms: C8_10  and  N2_11 
REMARK    4  A    between atoms: N2_11  and  C9_12 
REMARK    5  A    between atoms: C19_26  and  O2_27 
REMARK    6  A    between atoms: O2_27  and  C20_28 
ROOT
HETATM    1  C5  UNL     1      26.188   2.251  51.873  1.00  0.00     0.069 A 
HETATM    2  C6  UNL     1      24.832   2.122  51.892  1.00  0.00     0.048 A 
HETATM    3  C7  UNL     1      24.153   1.189  52.645  1.00  0.00     0.023 A 
HETATM    4  C8  UNL     1      22.790   1.028  52.690  1.00  0.00     0.067 A 
HETATM    5  C14 UNL     1      22.264   0.049  53.491  1.00  0.00     0.089 A 
HETATM    6  C15 UNL     1      20.865  -0.187  53.595  1.00  0.00     0.103 C 
HETATM    7  N3  UNL     1      19.723  -0.395  53.673  1.00  0.00    -0.191 NA
HETATM    8  C16 UNL     1      23.067  -0.778  54.252  1.00  0.00     0.142 A 
HETATM    9  N4  UNL     1      24.405  -0.634  54.219  1.00  0.00    -0.259 NA
HETATM   10  C17 UNL     1      24.902   0.335  53.424  1.00  0.00     0.071 A 
HETATM   11  C18 UNL     1      26.274   0.451  53.416  1.00  0.00     0.071 A 
HETATM   12  C19 UNL     1      26.958   1.390  52.659  1.00  0.00     0.097 A 
ENDROOT
BRANCH   4  13
HETATM   13  N2  UNL     1      21.981   1.864  51.919  1.00  0.00    -0.356 N 
HETATM   14  H8  UNL     1      21.287   2.569  52.242  1.00  0.00     0.166 HD
BRANCH  13  15
HETATM   15  C9  UNL     1      21.761   2.109  50.530  1.00  0.00     0.035 A 
HETATM   16  C10 UNL     1      21.820   1.139  49.600  1.00  0.00     0.030 A 
HETATM   17  C11 UNL     1      21.561   1.612  48.226  1.00  0.00     0.042 A 
HETATM   18  C12 UNL     1      21.350   2.899  48.400  1.00  0.00     0.118 A 
HETATM   19  F1  UNL     1      21.069   3.722  47.346  1.00  0.00    -0.209 F 
HETATM   20  C13 UNL     1      21.439   3.368  49.806  1.00  0.00     0.193 A 
HETATM   21 CL1  UNL     1      22.643   4.637  50.028  1.00  0.00    -0.111 Cl
ENDBRANCH  13  15
ENDBRANCH   4  13
BRANCH   1  22
HETATM   22  N1  UNL     1      26.796   3.251  51.058  1.00  0.00    -0.321 N 
HETATM   23  C4  UNL     1      26.471   3.683  49.741  1.00  0.00     0.245 C 
HETATM   24  O1  UNL     1      25.507   3.128  49.170  1.00  0.00    -0.268 OA
HETATM   25  H6  UNL     1      27.571   3.628  51.646  1.00  0.00     0.169 HD
BRANCH  23  26
HETATM   26  C3  UNL     1      27.273   4.741  49.141  1.00  0.00     0.070 C 
HETATM   27  C2  UNL     1      26.795   5.870  48.644  1.00  0.00    -0.026 C 
HETATM   28  C1  UNL     1      27.719   6.890  48.049  1.00  0.00     0.036 C 
ENDBRANCH  23  26
ENDBRANCH   1  22
BRANCH  12  29
HETATM   29  O2  UNL     1      28.328   1.499  52.658  1.00  0.00    -0.349 OA
BRANCH  29  30
HETATM   30  C20 UNL     1      29.034   1.076  53.811  1.00  0.00     0.171 C 
HETATM   31  C21 UNL     1      29.908  -0.107  53.552  1.00  0.00     0.034 C 
ENDBRANCH  29  30
ENDBRANCH  12  29
TORSDOF 6
ENDMDL
MODEL 4
REMARK VINA RESULT:      -8.3      2.385      5.218
REMARK  6 active torsions:
REMARK  status: ('A' for Active; 'I' for Inactive)
REMARK    1  A    between atoms: C3_3  and  C4_4 
REMARK       I    between atoms: C4_4  and  N1_6 
REMARK    2  A    between atoms: N1_6  and  C5_7 
REMARK    3  A    between atoms: C8_10  and  N2_11 
REMARK    4  A    between atoms: N2_11  and  C9_12 
REMARK    5  A    between atoms: C19_26  and  O2_27 
REMARK    6  A    between atoms: O2_27  and  C20_28 
ROOT
HETATM    1  C5  UNL     1      25.416   2.429  50.849  1.00  0.00     0.069 A 
HETATM    2  C6  UNL     1      24.233   1.765  50.968  1.00  0.00     0.048 A 
HETATM    3  C7  UNL     1      23.043   2.198  50.425  1.00  0.00     0.023 A 
HETATM    4  C8  UNL     1      21.833   1.558  50.524  1.00  0.00     0.067 A 
HETATM    5  C14 UNL     1      20.735   2.120  49.927  1.00  0.00     0.089 A 
HETATM    6  C15 UNL     1      19.443   1.525  49.982  1.00  0.00     0.103 C 
HETATM    7  N3  UNL     1      18.382   1.052  50.036  1.00  0.00    -0.191 NA
HETATM    8  C16 UNL     1      20.814   3.310  49.230  1.00  0.00     0.142 A 
HETATM    9  N4  UNL     1      21.994   3.950  49.123  1.00  0.00    -0.259 NA
HETATM   10  C17 UNL     1      23.061   3.381  49.718  1.00  0.00     0.071 A 
HETATM   11  C18 UNL     1      24.249   4.065  49.589  1.00  0.00     0.071 A 
HETATM   12  C19 UNL     1      25.447   3.629  50.136  1.00  0.00     0.097 A 
ENDROOT
BRANCH   4  13
HETATM   13  N2  UNL     1      21.754   0.357  51.229  1.00  0.00    -0.356 N 
HETATM   14  H8  UNL     1      21.644  -0.608  50.855  1.00  0.00     0.166 HD
BRANCH  13  15
HETATM   15  C9  UNL     1      21.786  -0.052  52.598  1.00  0.00     0.035 A 
HETATM   16  C10 UNL     1      20.938   0.432  53.523  1.00  0.00     0.030 A 
HETATM   17  C11 UNL     1      21.147  -0.126  54.874  1.00  0.00     0.042 A 
HETATM   18  C12 UNL     1      22.154  -0.953  54.690  1.00  0.00     0.118 A 
HETATM   19  F1  UNL     1      22.666  -1.687  55.723  1.00  0.00    -0.209 F 
HETATM   20  C13 UNL     1      22.668  -1.021  53.300  1.00  0.00     0.193 A 
HETATM   21 CL1  UNL     1      24.383  -0.624  53.186  1.00  0.00    -0.111 Cl
ENDBRANCH  13  15
ENDBRANCH   4  13
BRANCH   1  22
HETATM   22  N1  UNL     1      26.595   1.895  51.450  1.00  0.00    -0.321 N 
HETATM   23  C4  UNL     1      26.988   1.855  52.817  1.00  0.00     0.245 C 
HETATM   24  O1  UNL     1      26.210   2.352  53.660  1.00  0.00    -0.268 OA
HETATM   25  H6  UNL     1      27.146   1.519  50.648  1.00  0.00     0.169 HD
BRANCH  23  26
HETATM   26  C3  UNL     1      28.266   1.239  53.153  1.00  0.00     0.070 C 
HETATM   27  C2  UNL     1      28.441  -0.036  53.456  1.00  0.00    -0.026 C 
HETATM   28  C1  UNL     1      29.807  -0.559  53.786  1.00  0.00     0.036 C 
ENDBRANCH  23  26
ENDBRANCH   1  22
BRANCH  12  29
HETATM   29  O2  UNL     1      26.628   4.319  50.000  1.00  0.00    -0.349 OA
BRANCH  29  30
HETATM   30  C20 UNL     1      26.788   5.156  48.869  1.00  0.00     0.171 C 
HETATM   31  C21 UNL     1      28.211   5.267  48.428  1.00  0.00     0.034 C 
ENDBRANCH  29  30
ENDBRANCH  12  29
TORSDOF 6
ENDMDL
MODEL 5
REMARK VINA RESULT:      -8.0      3.019      5.130
REMARK  6 active torsions:
REMARK  status: ('A' for Active; 'I' for Inactive)
REMARK    1  A    between atoms: C3_3  and  C4_4 
REMARK       I    between atoms: C4_4  and  N1_6 
REMARK    2  A    between atoms: N1_6  and  C5_7 
REMARK    3  A    between atoms: C8_10  and  N2_11 
REMARK    4  A    between atoms: N2_11  and  C9_12 
REMARK    5  A    between atoms: C19_26  and  O2_27 
REMARK    6  A    between atoms: O2_27  and  C20_28 
ROOT
HETATM    1  C5  UNL     1      24.456   4.274  50.435  1.00  0.00     0.069 A 
HETATM    2  C6  UNL     1      24.126   3.375  51.404  1.00  0.00     0.048 A 
HETATM    3  C7  UNL     1      24.978   2.402  51.879  1.00  0.00     0.023 A 
HETATM    4  C8  UNL     1      24.682   1.479  52.852  1.00  0.00     0.067 A 
HETATM    5  C14 UNL     1      25.641   0.571  53.218  1.00  0.00     0.089 A 
HETATM    6  C15 UNL     1      25.418  -0.420  54.214  1.00  0.00     0.103 C 
HETATM    7  N3  UNL     1      25.237  -1.242  55.017  1.00  0.00    -0.191 NA
HETATM    8  C16 UNL     1      26.893   0.559  52.635  1.00  0.00     0.142 A 
HETATM    9  N4  UNL     1      27.198   1.457  51.679  1.00  0.00    -0.259 NA
HETATM   10  C17 UNL     1      26.242   2.341  51.334  1.00  0.00     0.071 A 
HETATM   11  C18 UNL     1      26.591   3.243  50.353  1.00  0.00     0.071 A 
HETATM   12  C19 UNL     1      25.734   4.222  49.874  1.00  0.00     0.097 A 
ENDROOT
BRANCH   4  13
HETATM   13  N2  UNL     1      23.417   1.492  53.440  1.00  0.00    -0.356 N 
HETATM   14  H8  UNL     1      23.068   2.095  54.212  1.00  0.00     0.166 HD
BRANCH  13  15
HETATM   15  C9  UNL     1      22.186   0.785  53.277  1.00  0.00     0.035 A 
HETATM   16  C10 UNL     1      21.783  -0.182  54.121  1.00  0.00     0.030 A 
HETATM   17  C11 UNL     1      20.481  -0.780  53.766  1.00  0.00     0.042 A 
HETATM   18  C12 UNL     1      20.147  -0.116  52.679  1.00  0.00     0.118 A 
HETATM   19  F1  UNL     1      18.978  -0.375  52.021  1.00  0.00    -0.209 F 
HETATM   20  C13 UNL     1      21.124   0.913  52.244  1.00  0.00     0.193 A 
HETATM   21 CL1  UNL     1      21.705   0.651  50.599  1.00  0.00    -0.111 Cl
ENDBRANCH  13  15
ENDBRANCH   4  13
BRANCH   1  22
HETATM   22  N1  UNL     1      23.501   5.244  50.010  1.00  0.00    -0.321 N 
HETATM   23  C4  UNL     1      23.334   6.601  50.409  1.00  0.00     0.245 C 
HETATM   24  O1  UNL     1      24.126   7.057  51.263  1.00  0.00    -0.268 OA
HETATM   25  H6  UNL     1      22.913   4.741  49.311  1.00  0.00     0.169 HD
BRANCH  23  26
HETATM   26  C3  UNL     1      22.258   7.375  49.803  1.00  0.00     0.070 C 
HETATM   27  C2  UNL     1      21.168   7.785  50.429  1.00  0.00    -0.026 C 
HETATM   28  C1  UNL     1      20.126   8.578  49.701  1.00  0.00     0.036 C 
ENDBRANCH  23  26
ENDBRANCH   1  22
BRANCH  12  29
HETATM   29  O2  UNL     1      26.092   5.118  48.895  1.00  0.00    -0.349 OA
BRANCH  29  30
HETATM   30  C20 UNL     1      27.467   5.259  48.587  1.00  0.00     0.171 C 
HETATM   31  C21 UNL     1      27.826   6.646  48.164  1.00  0.00     0.034 C 
ENDBRANCH  29  30
ENDBRANCH  12  29
TORSDOF 6
ENDMDL
MODEL 6
REMARK VINA RESULT:      -7.9      3.837      6.275
REMARK  6 active torsions:
REMARK  status: ('A' for Active; 'I' for Inactive)
REMARK    1  A    between atoms: C3_3  and  C4_4 
REMARK       I    between atoms: C4_4  and  N1_6 
REMARK    2  A    between atoms: N1_6  and  C5_7 
REMARK    3  A    between atoms: C8_10  and  N2_11 
REMARK    4  A    between atoms: N2_11  and  C9_12 
REMARK    5  A    between atoms: C19_26  and  O2_27 
REMARK    6  A    between atoms: O2_27  and  C20_28 
ROOT
HETATM    1  C5  UNL     1      25.185   1.020  52.245  1.00  0.00     0.069 A 
HETATM    2  C6  UNL     1      23.851   0.857  52.025  1.00  0.00     0.048 A 
HETATM    3  C7  UNL     1      23.011   0.142  52.851  1.00  0.00     0.023 A 
HETATM    4  C8  UNL     1      21.664  -0.045  52.663  1.00  0.00     0.067 A 
HETATM    5  C14 UNL     1      20.963  -0.785  53.578  1.00  0.00     0.089 A 
HETATM    6  C15 UNL     1      19.566  -1.030  53.458  1.00  0.00     0.103 C 
HETATM    7  N3  UNL     1      18.428  -1.246  53.358  1.00  0.00    -0.191 NA
HETATM    8  C16 UNL     1      21.574  -1.346  54.682  1.00  0.00     0.142 A 
HETATM    9  N4  UNL     1      22.894  -1.172  54.882  1.00  0.00    -0.259 NA
HETATM   10  C17 UNL     1      23.565  -0.442  53.970  1.00  0.00     0.071 A 
HETATM   11  C18 UNL     1      24.913  -0.286  54.207  1.00  0.00     0.071 A 
HETATM   12  C19 UNL     1      25.758   0.433  53.375  1.00  0.00     0.097 A 
ENDROOT
BRANCH   4  13
HETATM   13  N2  UNL     1      21.048   0.522  51.546  1.00  0.00    -0.356 N 
HETATM   14  H8  UNL     1      21.156   0.260  50.545  1.00  0.00     0.166 HD
BRANCH  13  15
HETATM   15  C9  UNL     1      20.114   1.573  51.293  1.00  0.00     0.035 A 
HETATM   16  C10 UNL     1      19.994   2.650  52.091  1.00  0.00     0.030 A 
HETATM   17  C11 UNL     1      18.968   3.612  51.644  1.00  0.00     0.042 A 
HETATM   18  C12 UNL     1      18.498   3.045  50.553  1.00  0.00     0.118 A 
HETATM   19  F1  UNL     1      17.506   3.632  49.819  1.00  0.00    -0.209 F 
HETATM   20  C13 UNL     1      19.126   1.748  50.196  1.00  0.00     0.193 A 
HETATM   21 CL1  UNL     1      17.957   0.433  50.082  1.00  0.00    -0.111 Cl
ENDBRANCH  13  15
ENDBRANCH   4  13
BRANCH   1  22
HETATM   22  N1  UNL     1      25.970   1.780  51.328  1.00  0.00    -0.321 N 
HETATM   23  C4  UNL     1      25.609   2.892  50.516  1.00  0.00     0.245 C 
HETATM   24  O1  UNL     1      24.430   3.302  50.584  1.00  0.00    -0.268 OA
HETATM   25  H6  UNL     1      26.915   1.339  51.369  1.00  0.00     0.169 HD
BRANCH  23  26
HETATM   26  C3  UNL     1      26.628   3.484  49.659  1.00  0.00     0.070 C 
HETATM   27  C2  UNL     1      26.681   4.758  49.307  1.00  0.00    -0.026 C 
HETATM   28  C1  UNL     1      27.780   5.255  48.417  1.00  0.00     0.036 C 
ENDBRANCH  23  26
ENDBRANCH   1  22
BRANCH  12  29
HETATM   29  O2  UNL     1      27.103   0.582  53.621  1.00  0.00    -0.349 OA
BRANCH  29  30
HETATM   30  C20 UNL     1      27.979  -0.446  53.198  1.00  0.00     0.171 C 
HETATM   31  C21 UNL     1      29.274  -0.445  53.943  1.00  0.00     0.034 C 
ENDBRANCH  29  30
ENDBRANCH  12  29
TORSDOF 6
ENDMDL
MODEL 7
REMARK VINA RESULT:      -7.8      3.362      6.087
REMARK  6 active torsions:
REMARK  status: ('A' for Active; 'I' for Inactive)
REMARK    1  A    between atoms: C3_3  and  C4_4 
REMARK       I    between atoms: C4_4  and  N1_6 
REMARK    2  A    between atoms: N1_6  and  C5_7 
REMARK    3  A    between atoms: C8_10  and  N2_11 
REMARK    4  A    between atoms: N2_11  and  C9_12 
REMARK    5  A    between atoms: C19_26  and  O2_27 
REMARK    6  A    between atoms: O2_27  and  C20_28 
ROOT
HETATM    1  C5  UNL     1      20.924   0.030  52.351  1.00  0.00     0.069 A 
HETATM    2  C6  UNL     1      22.278   0.152  52.281  1.00  0.00     0.048 A 
HETATM    3  C7  UNL     1      23.144  -0.236  53.279  1.00  0.00     0.023 A 
HETATM    4  C8  UNL     1      24.513  -0.129  53.245  1.00  0.00     0.067 A 
HETATM    5  C14 UNL     1      25.239  -0.562  54.323  1.00  0.00     0.089 A 
HETATM    6  C15 UNL     1      26.659  -0.485  54.372  1.00  0.00     0.103 C 
HETATM    7  N3  UNL     1      27.819  -0.412  54.425  1.00  0.00    -0.191 NA
HETATM    8  C16 UNL     1      24.632  -1.102  55.441  1.00  0.00     0.142 A 
HETATM    9  N4  UNL     1      23.291  -1.214  55.490  1.00  0.00    -0.259 NA
HETATM   10  C17 UNL     1      22.595  -0.782  54.420  1.00  0.00     0.071 A 
HETATM   11  C18 UNL     1      21.227  -0.912  54.507  1.00  0.00     0.071 A 
HETATM   12  C19 UNL     1      20.356  -0.521  53.502  1.00  0.00     0.097 A 
ENDROOT
BRANCH   4  13
HETATM   13  N2  UNL     1      25.124   0.417  52.116  1.00  0.00    -0.356 N 
HETATM   14  H8  UNL     1      25.607  -0.077  51.339  1.00  0.00     0.166 HD
BRANCH  13  15
HETATM   15  C9  UNL     1      25.339   1.722  51.577  1.00  0.00     0.035 A 
HETATM   16  C10 UNL     1      26.450   2.057  50.897  1.00  0.00     0.030 A 
HETATM   17  C11 UNL     1      26.465   3.457  50.430  1.00  0.00     0.042 A 
HETATM   18  C12 UNL     1      25.313   3.919  50.869  1.00  0.00     0.118 A 
HETATM   19  F1  UNL     1      24.933   5.211  50.640  1.00  0.00    -0.209 F 
HETATM   20  C13 UNL     1      24.484   2.938  51.613  1.00  0.00     0.193 A 
HETATM   21 CL1  UNL     1      24.090   3.477  53.246  1.00  0.00    -0.111 Cl
ENDBRANCH  13  15
ENDBRANCH   4  13
BRANCH   1  22
HETATM   22  N1  UNL     1      20.112   0.464  51.261  1.00  0.00    -0.321 N 
HETATM   23  C4  UNL     1      19.394   1.679  51.081  1.00  0.00     0.245 C 
HETATM   24  O1  UNL     1      19.454   2.531  51.995  1.00  0.00    -0.268 OA
HETATM   25  H6  UNL     1      20.148  -0.327  50.581  1.00  0.00     0.169 HD
BRANCH  23  26
HETATM   26  C3  UNL     1      18.635   1.860  49.849  1.00  0.00     0.070 C 
HETATM   27  C2  UNL     1      18.715   2.913  49.053  1.00  0.00    -0.026 C 
HETATM   28  C1  UNL     1      17.884   2.990  47.808  1.00  0.00     0.036 C 
ENDBRANCH  23  26
ENDBRANCH   1  22
BRANCH  12  29
HETATM   29  O2  UNL     1      18.991  -0.656  53.599  1.00  0.00    -0.349 OA
BRANCH  29  30
HETATM   30  C20 UNL     1      18.440  -1.959  53.529  1.00  0.00     0.171 C 
HETATM   31  C21 UNL     1      17.062  -1.974  52.953  1.00  0.00     0.034 C 
ENDBRANCH  29  30
ENDBRANCH  12  29
TORSDOF 6
ENDMDL
MODEL 8
REMARK VINA RESULT:      -7.8      3.655      7.206
REMARK  6 active torsions:
REMARK  status: ('A' for Active; 'I' for Inactive)
REMARK    1  A    between atoms: C3_3  and  C4_4 
REMARK       I    between atoms: C4_4  and  N1_6 
REMARK    2  A    between atoms: N1_6  and  C5_7 
REMARK    3  A    between atoms: C8_10  and  N2_11 
REMARK    4  A    between atoms: N2_11  and  C9_12 
REMARK    5  A    between atoms: C19_26  and  O2_27 
REMARK    6  A    between atoms: O2_27  and  C20_28 
ROOT
HETATM    1  C5  UNL     1      25.660   2.050  51.709  1.00  0.00     0.069 A 
HETATM    2  C6  UNL     1      25.787   2.980  50.722  1.00  0.00     0.048 A 
HETATM    3  C7  UNL     1      24.751   3.753  50.247  1.00  0.00     0.023 A 
HETATM    4  C8  UNL     1      24.841   4.698  49.255  1.00  0.00     0.067 A 
HETATM    5  C14 UNL     1      23.714   5.387  48.892  1.00  0.00     0.089 A 
HETATM    6  C15 UNL     1      23.717   6.380  47.873  1.00  0.00     0.103 C 
HETATM    7  N3  UNL     1      23.710   7.183  47.031  1.00  0.00    -0.191 NA
HETATM    8  C16 UNL     1      22.493   5.156  49.495  1.00  0.00     0.142 A 
HETATM    9  N4  UNL     1      22.388   4.233  50.469  1.00  0.00    -0.259 NA
HETATM   10  C17 UNL     1      23.508   3.566  50.812  1.00  0.00     0.071 A 
HETATM   11  C18 UNL     1      23.361   2.630  51.811  1.00  0.00     0.071 A 
HETATM   12  C19 UNL     1      24.405   1.851  52.289  1.00  0.00     0.097 A 
ENDROOT
BRANCH   4  13
HETATM   13  N2  UNL     1      26.074   4.930  48.645  1.00  0.00    -0.356 N 
HETATM   14  H8  UNL     1      26.612   4.301  48.015  1.00  0.00     0.166 HD
BRANCH  13  15
HETATM   15  C9  UNL     1      27.034   5.986  48.606  1.00  0.00     0.035 A 
HETATM   16  C10 UNL     1      28.338   5.778  48.348  1.00  0.00     0.030 A 
HETATM   17  C11 UNL     1      29.153   7.009  48.356  1.00  0.00     0.042 A 
HETATM   18  C12 UNL     1      28.263   7.940  48.630  1.00  0.00     0.118 A 
HETATM   19  F1  UNL     1      28.621   9.255  48.730  1.00  0.00    -0.209 F 
HETATM   20  C13 UNL     1      26.874   7.450  48.812  1.00  0.00     0.193 A 
HETATM   21 CL1  UNL     1      26.203   7.871  50.388  1.00  0.00    -0.111 Cl
ENDBRANCH  13  15
ENDBRANCH   4  13
BRANCH   1  22
HETATM   22  N1  UNL     1      26.796   1.300  52.132  1.00  0.00    -0.321 N 
HETATM   23  C4  UNL     1      27.664   1.498  53.243  1.00  0.00     0.245 C 
HETATM   24  O1  UNL     1      27.432   2.471  53.994  1.00  0.00    -0.268 OA
HETATM   25  H6  UNL     1      26.875   0.531  51.430  1.00  0.00     0.169 HD
BRANCH  23  26
HETATM   26  C3  UNL     1      28.764   0.563  53.439  1.00  0.00     0.070 C 
HETATM   27  C2  UNL     1      28.672  -0.753  53.341  1.00  0.00    -0.026 C 
HETATM   28  C1  UNL     1      29.876  -1.618  53.565  1.00  0.00     0.036 C 
ENDBRANCH  23  26
ENDBRANCH   1  22
BRANCH  12  29
HETATM   29  O2  UNL     1      24.248   0.920  53.288  1.00  0.00    -0.349 OA
BRANCH  29  30
HETATM   30  C20 UNL     1      22.985   0.294  53.427  1.00  0.00     0.171 C 
HETATM   31  C21 UNL     1      23.009  -0.849  54.389  1.00  0.00     0.034 C 
ENDBRANCH  29  30
ENDBRANCH  12  29
TORSDOF 6
ENDMDL
MODEL 9
REMARK VINA RESULT:      -7.7      6.293     10.003
REMARK  6 active torsions:
REMARK  status: ('A' for Active; 'I' for Inactive)
REMARK    1  A    between atoms: C3_3  and  C4_4 
REMARK       I    between atoms: C4_4  and  N1_6 
REMARK    2  A    between atoms: N1_6  and  C5_7 
REMARK    3  A    between atoms: C8_10  and  N2_11 
REMARK    4  A    between atoms: N2_11  and  C9_12 
REMARK    5  A    between atoms: C19_26  and  O2_27 
REMARK    6  A    between atoms: O2_27  and  C20_28 
ROOT
HETATM    1  C5  UNL     1      31.837   5.565  48.342  1.00  0.00     0.069 A 
HETATM    2  C6  UNL     1      30.554   6.018  48.275  1.00  0.00     0.048 A 
HETATM    3  C7  UNL     1      30.177   7.317  48.536  1.00  0.00     0.023 A 
HETATM    4  C8  UNL     1      28.897   7.810  48.480  1.00  0.00     0.067 A 
HETATM    5  C14 UNL     1      28.682   9.132  48.769  1.00  0.00     0.089 A 
HETATM    6  C15 UNL     1      27.388   9.724  48.738  1.00  0.00     0.103 C 
HETATM    7  N3  UNL     1      26.332  10.210  48.728  1.00  0.00    -0.191 NA
HETATM    8  C16 UNL     1      29.717   9.980  49.114  1.00  0.00     0.142 A 
HETATM    9  N4  UNL     1      30.978   9.512  49.173  1.00  0.00    -0.259 NA
HETATM   10  C17 UNL     1      31.168   8.209  48.886  1.00  0.00     0.071 A 
HETATM   11  C18 UNL     1      32.470   7.767  48.958  1.00  0.00     0.071 A 
HETATM   12  C19 UNL     1      32.850   6.459  48.696  1.00  0.00     0.097 A 
ENDROOT
BRANCH   4  13
HETATM   13  N2  UNL     1      27.852   6.953  48.132  1.00  0.00    -0.356 N 
HETATM   14  H8  UNL     1      27.410   6.815  47.200  1.00  0.00     0.166 HD
BRANCH  13  15
HETATM   15  C9  UNL     1      27.022   5.999  48.797  1.00  0.00     0.035 A 
HETATM   16  C10 UNL     1      27.303   4.684  48.828  1.00  0.00     0.030 A 
HETATM   17  C11 UNL     1      26.313   3.879  49.569  1.00  0.00     0.042 A 
HETATM   18  C12 UNL     1      25.446   4.785  49.967  1.00  0.00     0.118 A 
HETATM   19  F1  UNL     1      24.348   4.441  50.704  1.00  0.00    -0.209 F 
HETATM   20  C13 UNL     1      25.758   6.178  49.560  1.00  0.00     0.193 A 
HETATM   21 CL1  UNL     1      24.465   6.920  48.618  1.00  0.00    -0.111 Cl
ENDBRANCH  13  15
ENDBRANCH   4  13
BRANCH   1  22
HETATM   22  N1  UNL     1      32.125   4.198  48.053  1.00  0.00    -0.321 N 
HETATM   23  C4  UNL     1      32.466   3.575  46.820  1.00  0.00     0.245 C 
HETATM   24  O1  UNL     1      32.536   4.299  45.803  1.00  0.00    -0.268 OA
HETATM   25  H6  UNL     1      32.033   3.714  48.973  1.00  0.00     0.169 HD
BRANCH  23  26
HETATM   26  C3  UNL     1      32.713   2.138  46.813  1.00  0.00     0.070 C 
HETATM   27  C2  UNL     1      31.785   1.207  46.673  1.00  0.00    -0.026 C 
HETATM   28  C1  UNL     1      32.158  -0.245  46.682  1.00  0.00     0.036 C 
ENDBRANCH  23  26
ENDBRANCH   1  22
BRANCH  12  29
HETATM   29  O2  UNL     1      34.153   6.028  48.770  1.00  0.00    -0.349 OA
BRANCH  29  30
HETATM   30  C20 UNL     1      35.184   6.966  48.518  1.00  0.00     0.171 C 
HETATM   31  C21 UNL     1      36.473   6.601  49.178  1.00  0.00     0.034 C 
ENDBRANCH  29  30
ENDBRANCH  12  29
TORSDOF 6
ENDMDL
