MODEL 1
REMARK VINA RESULT:      -7.4      0.000      0.000
REMARK  2 active torsions:
REMARK  status: ('A' for Active; 'I' for Inactive)
REMARK    1  A    between atoms: C3_3  and  C4_5 
REMARK    2  A    between atoms: C9_12  and  O1_13 
ROOT
HETATM    1  C4  UNL     1      21.365   1.002  52.878  1.00  0.00     0.127 A 
HETATM    2  N1  UNL     1      20.404   0.330  53.537  1.00  0.00    -0.237 NA
HETATM    3  C5  UNL     1      20.800  -0.698  54.304  1.00  0.00     0.234 A 
HETATM    4  N2  UNL     1      22.115  -1.041  54.406  1.00  0.00    -0.240 NA
HETATM    5  C6  UNL     1      23.064  -0.352  53.735  1.00  0.00     0.089 A 
HETATM    6  C7  UNL     1      24.305  -0.891  54.002  1.00  0.00     0.037 C 
HETATM    7  C8  UNL     1      25.498  -0.412  54.510  1.00  0.00     0.039 C 
HETATM    8  C9  UNL     1      26.711  -0.244  53.899  1.00  0.00     0.068 C 
HETATM    9  C11 UNL     1      26.813  -0.034  52.563  1.00  0.00     0.037 C 
HETATM   10  C12 UNL     1      26.868   0.952  51.622  1.00  0.00     0.006 C 
HETATM   11  C13 UNL     1      26.456   2.173  52.115  1.00  0.00     0.037 C 
HETATM   12  P1  UNL     1      24.959   2.233  52.987  1.00  0.00     0.088 P 
HETATM   13  N3  UNL     1      23.680   1.370  52.285  1.00  0.00    -0.246 NA
HETATM   14  C14 UNL     1      22.713   0.714  52.932  1.00  0.00     0.117 A 
ENDROOT
BRANCH   1  15
HETATM   15  C3  UNL     1      20.940   2.108  52.052  1.00  0.00     0.143 C 
HETATM   16  C2  UNL     1      20.633   3.358  52.312  1.00  0.00     0.014 C 
HETATM   17  C1  UNL     1      20.221   4.269  51.219  1.00  0.00     0.039 C 
HETATM   18  F1  UNL     1      20.773   1.989  50.702  1.00  0.00    -0.204 F 
ENDBRANCH   1  15
BRANCH   8  19
HETATM   19  O1  UNL     1      27.801  -0.307  54.758  1.00  0.00    -0.356 OA
HETATM   20  C10 UNL     1      28.894   0.568  54.684  1.00  0.00     0.210 C 
ENDBRANCH   8  19
TORSDOF 2
ENDMDL
MODEL 2
REMARK VINA RESULT:      -7.2      3.022      4.940
REMARK  2 active torsions:
REMARK  status: ('A' for Active; 'I' for Inactive)
REMARK    1  A    between atoms: C3_3  and  C4_5 
REMARK    2  A    between atoms: C9_12  and  O1_13 
ROOT
HETATM    1  C4  UNL     1      24.304  -0.125  53.382  1.00  0.00     0.127 A 
HETATM    2  N1  UNL     1      25.257  -0.804  54.045  1.00  0.00    -0.237 NA
HETATM    3  C5  UNL     1      26.530  -0.563  53.692  1.00  0.00     0.234 A 
HETATM    4  N2  UNL     1      26.836   0.328  52.707  1.00  0.00    -0.240 NA
HETATM    5  C6  UNL     1      25.862   0.999  52.054  1.00  0.00     0.089 A 
HETATM    6  C7  UNL     1      26.425   1.833  51.110  1.00  0.00     0.037 C 
HETATM    7  C8  UNL     1      26.386   3.188  50.846  1.00  0.00     0.039 C 
HETATM    8  C9  UNL     1      25.838   3.864  49.789  1.00  0.00     0.068 C 
HETATM    9  C11 UNL     1      24.795   3.360  49.084  1.00  0.00     0.037 C 
HETATM   10  C12 UNL     1      23.433   3.352  49.021  1.00  0.00     0.006 C 
HETATM   11  C13 UNL     1      22.849   3.815  50.183  1.00  0.00     0.037 C 
HETATM   12  P1  UNL     1      23.403   3.156  51.687  1.00  0.00     0.088 P 
HETATM   13  N3  UNL     1      23.603   1.472  51.708  1.00  0.00    -0.246 NA
HETATM   14  C14 UNL     1      24.537   0.790  52.376  1.00  0.00     0.117 A 
ENDROOT
BRANCH   1  15
HETATM   15  C3  UNL     1      22.935  -0.384  53.761  1.00  0.00     0.143 C 
HETATM   16  C2  UNL     1      22.184  -1.462  53.739  1.00  0.00     0.014 C 
HETATM   17  C1  UNL     1      20.780  -1.405  54.205  1.00  0.00     0.039 C 
HETATM   18  F1  UNL     1      22.118   0.590  54.260  1.00  0.00    -0.204 F 
ENDBRANCH   1  15
BRANCH   8  19
HETATM   19  O1  UNL     1      26.439   5.086  49.515  1.00  0.00    -0.356 OA
HETATM   20  C10 UNL     1      27.506   5.237  48.617  1.00  0.00     0.210 C 
ENDBRANCH   8  19
TORSDOF 2
ENDMDL
MODEL 3
REMARK VINA RESULT:      -7.1      2.865      4.585
REMARK  2 active torsions:
REMARK  status: ('A' for Active; 'I' for Inactive)
REMARK    1  A    between atoms: C3_3  and  C4_5 
REMARK    2  A    between atoms: C9_12  and  O1_13 
ROOT
HETATM    1  C4  UNL     1      24.803   3.735  50.264  1.00  0.00     0.127 A 
HETATM    2  N1  UNL     1      23.588   4.223  49.958  1.00  0.00    -0.237 NA
HETATM    3  C5  UNL     1      22.528   3.550  50.434  1.00  0.00     0.234 A 
HETATM    4  N2  UNL     1      22.681   2.426  51.189  1.00  0.00    -0.240 NA
HETATM    5  C6  UNL     1      23.913   1.954  51.484  1.00  0.00     0.089 A 
HETATM    6  C7  UNL     1      23.802   0.816  52.255  1.00  0.00     0.037 C 
HETATM    7  C8  UNL     1      24.262   0.418  53.495  1.00  0.00     0.039 C 
HETATM    8  C9  UNL     1      25.175  -0.546  53.828  1.00  0.00     0.068 C 
HETATM    9  C11 UNL     1      26.161  -0.919  52.975  1.00  0.00     0.037 C 
HETATM   10  C12 UNL     1      27.453  -0.652  52.629  1.00  0.00     0.006 C 
HETATM   11  C13 UNL     1      27.893   0.556  53.130  1.00  0.00     0.037 C 
HETATM   12  P1  UNL     1      26.888   1.947  52.891  1.00  0.00     0.088 P 
HETATM   13  N3  UNL     1      26.237   2.109  51.334  1.00  0.00    -0.246 NA
HETATM   14  C14 UNL     1      25.037   2.607  51.021  1.00  0.00     0.117 A 
ENDROOT
BRANCH   1  15
HETATM   15  C3  UNL     1      25.944   4.457  49.751  1.00  0.00     0.143 C 
HETATM   16  C2  UNL     1      26.952   4.117  48.981  1.00  0.00     0.014 C 
HETATM   17  C1  UNL     1      27.990   5.111  48.626  1.00  0.00     0.039 C 
HETATM   18  F1  UNL     1      26.163   5.775  50.037  1.00  0.00    -0.204 F 
ENDBRANCH   1  15
BRANCH   8  19
HETATM   19  O1  UNL     1      24.999  -1.092  55.093  1.00  0.00    -0.356 OA
HETATM   20  C10 UNL     1      23.741  -1.391  55.637  1.00  0.00     0.210 C 
ENDBRANCH   8  19
TORSDOF 2
ENDMDL
MODEL 4
REMARK VINA RESULT:      -6.5      3.193      6.727
REMARK  2 active torsions:
REMARK  status: ('A' for Active; 'I' for Inactive)
REMARK    1  A    between atoms: C3_3  and  C4_5 
REMARK    2  A    between atoms: C9_12  and  O1_13 
ROOT
HETATM    1  C4  UNL     1      26.120   1.790  51.406  1.00  0.00     0.127 A 
HETATM    2  N1  UNL     1      26.896   2.752  50.877  1.00  0.00    -0.237 NA
HETATM    3  C5  UNL     1      26.267   3.807  50.333  1.00  0.00     0.234 A 
HETATM    4  N2  UNL     1      24.906   3.892  50.319  1.00  0.00    -0.240 NA
HETATM    5  C6  UNL     1      24.147   2.912  50.857  1.00  0.00     0.089 A 
HETATM    6  C7  UNL     1      22.812   3.230  50.718  1.00  0.00     0.037 C 
HETATM    7  C8  UNL     1      21.743   3.388  51.579  1.00  0.00     0.039 C 
HETATM    8  C9  UNL     1      20.610   2.634  51.723  1.00  0.00     0.068 C 
HETATM    9  C11 UNL     1      20.585   1.316  51.405  1.00  0.00     0.037 C 
HETATM   10  C12 UNL     1      20.769   0.070  51.929  1.00  0.00     0.006 C 
HETATM   11  C13 UNL     1      21.428   0.102  53.141  1.00  0.00     0.037 C 
HETATM   12  P1  UNL     1      22.882   1.039  53.249  1.00  0.00     0.088 P 
HETATM   13  N3  UNL     1      23.956   0.859  51.950  1.00  0.00    -0.246 NA
HETATM   14  C14 UNL     1      24.741   1.806  51.429  1.00  0.00     0.117 A 
ENDROOT
BRANCH   1  15
HETATM   15  C3  UNL     1      26.795   0.655  51.990  1.00  0.00     0.143 C 
HETATM   16  C2  UNL     1      27.602   0.520  53.018  1.00  0.00     0.014 C 
HETATM   17  C1  UNL     1      28.145  -0.811  53.373  1.00  0.00     0.039 C 
HETATM   18  F1  UNL     1      26.675  -0.608  51.484  1.00  0.00    -0.204 F 
ENDBRANCH   1  15
BRANCH   8  19
HETATM   19  O1  UNL     1      19.514   3.331  52.217  1.00  0.00    -0.356 OA
HETATM   20  C10 UNL     1      18.368   3.606  51.456  1.00  0.00     0.210 C 
ENDBRANCH   8  19
TORSDOF 2
ENDMDL
MODEL 5
REMARK VINA RESULT:      -6.5     10.304     12.306
REMARK  2 active torsions:
REMARK  status: ('A' for Active; 'I' for Inactive)
REMARK    1  A    between atoms: C3_3  and  C4_5 
REMARK    2  A    between atoms: C9_12  and  O1_13 
ROOT
HETATM    1  C4  UNL     1      33.511   4.482  47.809  1.00  0.00     0.127 A 
HETATM    2  N1  UNL     1      34.779   4.512  48.254  1.00  0.00    -0.237 NA
HETATM    3  C5  UNL     1      35.206   5.666  48.791  1.00  0.00     0.234 A 
HETATM    4  N2  UNL     1      34.389   6.753  48.877  1.00  0.00    -0.240 NA
HETATM    5  C6  UNL     1      33.117   6.700  48.423  1.00  0.00     0.089 A 
HETATM    6  C7  UNL     1      32.502   7.918  48.622  1.00  0.00     0.037 C 
HETATM    7  C8  UNL     1      31.367   8.352  49.281  1.00  0.00     0.039 C 
HETATM    8  C9  UNL     1      30.205   8.874  48.782  1.00  0.00     0.068 C 
HETATM    9  C11 UNL     1      29.768   8.577  47.534  1.00  0.00     0.037 C 
HETATM   10  C12 UNL     1      28.980   7.706  46.840  1.00  0.00     0.006 C 
HETATM   11  C13 UNL     1      28.671   6.578  47.572  1.00  0.00     0.037 C 
HETATM   12  P1  UNL     1      29.969   5.744  48.362  1.00  0.00     0.088 P 
HETATM   13  N3  UNL     1      31.364   5.526  47.425  1.00  0.00    -0.246 NA
HETATM   14  C14 UNL     1      32.627   5.539  47.862  1.00  0.00     0.117 A 
ENDROOT
BRANCH   1  15
HETATM   15  C3  UNL     1      33.051   3.241  47.230  1.00  0.00     0.143 C 
HETATM   16  C2  UNL     1      32.856   2.038  47.720  1.00  0.00     0.014 C 
HETATM   17  C1  UNL     1      32.366   0.945  46.849  1.00  0.00     0.039 C 
HETATM   18  F1  UNL     1      32.711   3.131  45.912  1.00  0.00    -0.204 F 
ENDBRANCH   1  15
BRANCH   8  19
HETATM   19  O1  UNL     1      29.532   9.718  49.657  1.00  0.00    -0.356 OA
HETATM   20  C10 UNL     1      28.136   9.737  49.790  1.00  0.00     0.210 C 
ENDBRANCH   8  19
TORSDOF 2
ENDMDL
MODEL 6
REMARK VINA RESULT:      -6.4      3.368      4.972
REMARK  2 active torsions:
REMARK  status: ('A' for Active; 'I' for Inactive)
REMARK    1  A    between atoms: C3_3  and  C4_5 
REMARK    2  A    between atoms: C9_12  and  O1_13 
ROOT
HETATM    1  C4  UNL     1      23.820   3.621  49.272  1.00  0.00     0.127 A 
HETATM    2  N1  UNL     1      22.822   3.871  48.405  1.00  0.00    -0.237 NA
HETATM    3  C5  UNL     1      21.718   3.115  48.518  1.00  0.00     0.234 A 
HETATM    4  N2  UNL     1      21.618   2.142  49.468  1.00  0.00    -0.240 NA
HETATM    5  C6  UNL     1      22.634   1.909  50.329  1.00  0.00     0.089 A 
HETATM    6  C7  UNL     1      22.291   0.884  51.184  1.00  0.00     0.037 C 
HETATM    7  C8  UNL     1      22.198   0.734  52.555  1.00  0.00     0.039 C 
HETATM    8  C9  UNL     1      22.950  -0.024  53.411  1.00  0.00     0.068 C 
HETATM    9  C11 UNL     1      24.235  -0.354  53.129  1.00  0.00     0.037 C 
HETATM   10  C12 UNL     1      25.524   0.057  53.304  1.00  0.00     0.006 C 
HETATM   11  C13 UNL     1      25.605   1.376  53.704  1.00  0.00     0.037 C 
HETATM   12  P1  UNL     1      24.696   2.551  52.812  1.00  0.00     0.088 P 
HETATM   13  N3  UNL     1      24.772   2.396  51.126  1.00  0.00    -0.246 NA
HETATM   14  C14 UNL     1      23.792   2.657  50.257  1.00  0.00     0.117 A 
ENDROOT
BRANCH   1  15
HETATM   15  C3  UNL     1      25.008   4.433  49.150  1.00  0.00     0.143 C 
HETATM   16  C2  UNL     1      25.217   5.730  49.166  1.00  0.00     0.014 C 
HETATM   17  C1  UNL     1      26.588   6.268  49.012  1.00  0.00     0.039 C 
HETATM   18  F1  UNL     1      26.249   3.890  48.976  1.00  0.00    -0.204 F 
ENDBRANCH   1  15
BRANCH   8  19
HETATM   19  O1  UNL     1      22.288  -0.412  54.569  1.00  0.00    -0.356 OA
HETATM   20  C10 UNL     1      21.260  -1.366  54.587  1.00  0.00     0.210 C 
ENDBRANCH   8  19
TORSDOF 2
ENDMDL
MODEL 7
REMARK VINA RESULT:      -6.3      2.180      2.819
REMARK  2 active torsions:
REMARK  status: ('A' for Active; 'I' for Inactive)
REMARK    1  A    between atoms: C3_3  and  C4_5 
REMARK    2  A    between atoms: C9_12  and  O1_13 
ROOT
HETATM    1  C4  UNL     1      22.024   2.455  50.364  1.00  0.00     0.127 A 
HETATM    2  N1  UNL     1      20.683   2.398  50.457  1.00  0.00    -0.237 NA
HETATM    3  C5  UNL     1      20.173   1.502  51.317  1.00  0.00     0.234 A 
HETATM    4  N2  UNL     1      20.979   0.691  52.058  1.00  0.00    -0.240 NA
HETATM    5  C6  UNL     1      22.324   0.765  51.948  1.00  0.00     0.089 A 
HETATM    6  C7  UNL     1      22.911  -0.152  52.794  1.00  0.00     0.037 C 
HETATM    7  C8  UNL     1      23.825  -0.094  53.828  1.00  0.00     0.039 C 
HETATM    8  C9  UNL     1      25.105  -0.574  53.900  1.00  0.00     0.068 C 
HETATM    9  C11 UNL     1      25.870  -0.734  52.792  1.00  0.00     0.037 C 
HETATM   10  C12 UNL     1      26.784  -0.098  52.004  1.00  0.00     0.006 C 
HETATM   11  C13 UNL     1      26.816   1.263  52.231  1.00  0.00     0.037 C 
HETATM   12  P1  UNL     1      25.309   2.119  52.245  1.00  0.00     0.088 P 
HETATM   13  N3  UNL     1      24.235   1.711  50.999  1.00  0.00    -0.246 NA
HETATM   14  C14 UNL     1      22.902   1.668  51.079  1.00  0.00     0.117 A 
ENDROOT
BRANCH   1  15
HETATM   15  C3  UNL     1      22.574   3.417  49.438  1.00  0.00     0.143 C 
HETATM   16  C2  UNL     1      22.719   4.722  49.478  1.00  0.00     0.014 C 
HETATM   17  C1  UNL     1      23.336   5.441  48.340  1.00  0.00     0.039 C 
HETATM   18  F1  UNL     1      23.086   3.054  48.225  1.00  0.00    -0.204 F 
ENDBRANCH   1  15
BRANCH   8  19
HETATM   19  O1  UNL     1      25.535  -0.874  55.187  1.00  0.00    -0.356 OA
HETATM   20  C10 UNL     1      24.662  -1.198  56.236  1.00  0.00     0.210 C 
ENDBRANCH   8  19
TORSDOF 2
ENDMDL
MODEL 8
REMARK VINA RESULT:      -6.3      3.160      4.348
REMARK  2 active torsions:
REMARK  status: ('A' for Active; 'I' for Inactive)
REMARK    1  A    between atoms: C3_3  and  C4_5 
REMARK    2  A    between atoms: C9_12  and  O1_13 
ROOT
HETATM    1  C4  UNL     1      20.865  -1.055  53.848  1.00  0.00     0.127 A 
HETATM    2  N1  UNL     1      21.396  -1.704  54.899  1.00  0.00    -0.237 NA
HETATM    3  C5  UNL     1      22.689  -1.462  55.170  1.00  0.00     0.234 A 
HETATM    4  N2  UNL     1      23.423  -0.600  54.411  1.00  0.00    -0.240 NA
HETATM    5  C6  UNL     1      22.868   0.040  53.359  1.00  0.00     0.089 A 
HETATM    6  C7  UNL     1      23.810   0.849  52.758  1.00  0.00     0.037 C 
HETATM    7  C8  UNL     1      23.906   2.195  52.461  1.00  0.00     0.039 C 
HETATM    8  C9  UNL     1      23.917   2.832  51.250  1.00  0.00     0.068 C 
HETATM    9  C11 UNL     1      23.317   2.296  50.158  1.00  0.00     0.037 C 
HETATM   10  C12 UNL     1      22.139   2.272  49.470  1.00  0.00     0.006 C 
HETATM   11  C13 UNL     1      21.086   2.767  50.212  1.00  0.00     0.037 C 
HETATM   12  P1  UNL     1      20.874   2.161  51.822  1.00  0.00     0.088 P 
HETATM   13  N3  UNL     1      21.031   0.481  51.988  1.00  0.00    -0.246 NA
HETATM   14  C14 UNL     1      21.543  -0.171  53.036  1.00  0.00     0.117 A 
ENDROOT
BRANCH   1  15
HETATM   15  C3  UNL     1      19.475  -1.315  53.555  1.00  0.00     0.143 C 
HETATM   16  C2  UNL     1      18.540  -0.627  52.940  1.00  0.00     0.014 C 
HETATM   17  C1  UNL     1      17.174  -1.180  52.798  1.00  0.00     0.039 C 
HETATM   18  F1  UNL     1      18.852  -2.471  53.932  1.00  0.00    -0.204 F 
ENDBRANCH   1  15
BRANCH   8  19
HETATM   19  O1  UNL     1      24.584   4.050  51.246  1.00  0.00    -0.356 OA
HETATM   20  C10 UNL     1      25.319   4.524  50.150  1.00  0.00     0.210 C 
ENDBRANCH   8  19
TORSDOF 2
ENDMDL
MODEL 9
REMARK VINA RESULT:      -6.0      9.747     11.369
REMARK  2 active torsions:
REMARK  status: ('A' for Active; 'I' for Inactive)
REMARK    1  A    between atoms: C3_3  and  C4_5 
REMARK    2  A    between atoms: C9_12  and  O1_13 
ROOT
HETATM    1  C4  UNL     1      29.432   8.945  48.832  1.00  0.00     0.127 A 
HETATM    2  N1  UNL     1      28.141   8.723  49.137  1.00  0.00    -0.237 NA
HETATM    3  C5  UNL     1      27.662   7.495  48.882  1.00  0.00     0.234 A 
HETATM    4  N2  UNL     1      28.449   6.524  48.339  1.00  0.00    -0.240 NA
HETATM    5  C6  UNL     1      29.744   6.770  48.041  1.00  0.00     0.089 A 
HETATM    6  C7  UNL     1      30.321   5.637  47.507  1.00  0.00     0.037 C 
HETATM    7  C8  UNL     1      31.409   4.845  47.820  1.00  0.00     0.039 C 
HETATM    8  C9  UNL     1      32.585   4.657  47.145  1.00  0.00     0.068 C 
HETATM    9  C11 UNL     1      33.094   5.606  46.322  1.00  0.00     0.037 C 
HETATM   10  C12 UNL     1      33.936   6.679  46.294  1.00  0.00     0.006 C 
HETATM   11  C13 UNL     1      34.230   7.149  47.558  1.00  0.00     0.037 C 
HETATM   12  P1  UNL     1      32.912   7.426  48.647  1.00  0.00     0.088 P 
HETATM   13  N3  UNL     1      31.573   8.219  47.974  1.00  0.00    -0.246 NA
HETATM   14  C14 UNL     1      30.289   8.014  48.282  1.00  0.00     0.117 A 
ENDROOT
BRANCH   1  15
HETATM   15  C3  UNL     1      29.949  10.266  49.105  1.00  0.00     0.143 C 
HETATM   16  C2  UNL     1      29.719  11.448  48.581  1.00  0.00     0.014 C 
HETATM   17  C1  UNL     1      30.426  12.644  49.092  1.00  0.00     0.039 C 
HETATM   18  F1  UNL     1      30.878  10.500  50.079  1.00  0.00    -0.204 F 
ENDBRANCH   1  15
BRANCH   8  19
HETATM   19  O1  UNL     1      33.192   3.429  47.379  1.00  0.00    -0.356 OA
HETATM   20  C10 UNL     1      34.529   3.294  47.779  1.00  0.00     0.210 C 
ENDBRANCH   8  19
TORSDOF 2
ENDMDL
