MODEL 1
REMARK VINA RESULT:      -8.2      0.000      0.000
REMARK  6 active torsions:
REMARK  status: ('A' for Active; 'I' for Inactive)
REMARK    1  A    between atoms: O1_2  and  C2_3 
REMARK    2  A    between atoms: C5_6  and  O2_7 
REMARK    3  A    between atoms: O2_7  and  N1_8 
REMARK    4  A    between atoms: C7_10  and  C8_11 
REMARK    5  A    between atoms: C8_11  and  C9_12 
REMARK    6  A    between atoms: C13_17  and  P1_18 
ROOT
HETATM    1  C9  UNL     1      25.247   2.300  51.515  1.00  0.00     0.014 C 
HETATM    2  C10 UNL     1      24.707   2.251  52.702  1.00  0.00    -0.029 C 
HETATM    3  C11 UNL     1      25.845   2.473  53.679  1.00  0.00     0.070 C 
HETATM    4  C12 UNL     1      26.802   1.477  52.999  1.00  0.00     0.137 C 
HETATM    5  N2  UNL     1      26.610   1.874  51.586  1.00  0.00    -0.382 N 
HETATM    6  C13 UNL     1      26.365   0.099  53.225  1.00  0.00     0.051 C 
HETATM    7  N3  UNL     1      25.289  -0.515  53.444  1.00  0.00    -0.272 NA
HETATM    8  C14 UNL     1      23.932  -0.374  53.772  1.00  0.00     0.274 C 
HETATM    9  N4  UNL     1      23.165   0.536  52.969  1.00  0.00    -0.360 N 
HETATM   10  C15 UNL     1      22.254  -0.296  52.262  1.00  0.00     0.088 A 
HETATM   11  C16 UNL     1      21.413   0.343  51.464  1.00  0.00     0.017 A 
HETATM   12  C17 UNL     1      21.385   1.789  51.286  1.00  0.00    -0.000 A 
HETATM   13  C18 UNL     1      22.295   2.458  51.999  1.00  0.00     0.003 A 
HETATM   14  C19 UNL     1      23.316   2.010  52.923  1.00  0.00     0.139 A 
HETATM   15  H14 UNL     1      27.376   1.822  50.847  1.00  0.00     0.160 HD
ENDROOT
BRANCH   1  16
HETATM   16  C8  UNL     1      24.716   2.689  50.226  1.00  0.00     0.098 C 
BRANCH  16  17
HETATM   17  C7  UNL     1      25.428   3.922  49.692  1.00  0.00    -0.017 A 
HETATM   18  C2  UNL     1      24.762   5.148  49.636  1.00  0.00     0.075 A 
HETATM   19  C3  UNL     1      25.386   6.283  49.162  1.00  0.00     0.040 A 
HETATM   20  C4  UNL     1      26.697   6.215  48.732  1.00  0.00     0.041 A 
HETATM   21  C5  UNL     1      27.350   4.991  48.793  1.00  0.00     0.092 A 
HETATM   22  C6  UNL     1      26.732   3.853  49.266  1.00  0.00     0.049 A 
BRANCH  18  23
HETATM   23  O1  UNL     1      23.456   5.170  50.075  1.00  0.00    -0.355 OA
HETATM   24  C1  UNL     1      23.051   5.928  51.177  1.00  0.00     0.210 C 
ENDBRANCH  18  23
BRANCH  21  25
HETATM   25  O2  UNL     1      28.678   4.833  48.378  1.00  0.00    -0.267 OA
BRANCH  25  26
HETATM   26  N1  UNL     1      29.690   5.539  49.011  1.00  0.00    -0.209 NA
HETATM   27  H6  UNL     1      29.959   5.042  49.881  1.00  0.00     0.150 HD
HETATM   28  H7  UNL     1      29.291   6.472  49.253  1.00  0.00     0.150 HD
ENDBRANCH  25  26
ENDBRANCH  21  25
ENDBRANCH  16  17
ENDBRANCH   1  16
BRANCH   6  29
HETATM   29  P1  UNL     1      27.803  -1.028  53.162  1.00  0.00    -0.089 P 
HETATM   30  H15 UNL     1      27.420  -2.406  52.925  1.00  0.00     0.060 HD
HETATM   31  H16 UNL     1      28.642  -0.618  52.049  1.00  0.00     0.060 HD
ENDBRANCH   6  29
TORSDOF 6
ENDMDL
MODEL 2
REMARK VINA RESULT:      -8.2      3.346      5.471
REMARK  6 active torsions:
REMARK  status: ('A' for Active; 'I' for Inactive)
REMARK    1  A    between atoms: O1_2  and  C2_3 
REMARK    2  A    between atoms: C5_6  and  O2_7 
REMARK    3  A    between atoms: O2_7  and  N1_8 
REMARK    4  A    between atoms: C7_10  and  C8_11 
REMARK    5  A    between atoms: C8_11  and  C9_12 
REMARK    6  A    between atoms: C13_17  and  P1_18 
ROOT
HETATM    1  C9  UNL     1      23.995   3.115  51.504  1.00  0.00     0.014 C 
HETATM    2  C10 UNL     1      23.678   2.966  50.246  1.00  0.00    -0.029 C 
HETATM    3  C11 UNL     1      24.689   3.785  49.469  1.00  0.00     0.070 C 
HETATM    4  C12 UNL     1      24.571   5.030  50.366  1.00  0.00     0.137 C 
HETATM    5  N2  UNL     1      24.624   4.384  51.697  1.00  0.00    -0.382 N 
HETATM    6  C13 UNL     1      23.290   5.703  50.155  1.00  0.00     0.051 C 
HETATM    7  N3  UNL     1      22.125   5.399  49.792  1.00  0.00    -0.272 NA
HETATM    8  C14 UNL     1      21.322   4.397  49.226  1.00  0.00     0.274 C 
HETATM    9  N4  UNL     1      21.398   3.094  49.825  1.00  0.00    -0.360 N 
HETATM   10  C15 UNL     1      20.119   2.900  50.414  1.00  0.00     0.088 A 
HETATM   11  C16 UNL     1      19.947   1.732  51.012  1.00  0.00     0.017 A 
HETATM   12  C17 UNL     1      20.964   0.690  51.092  1.00  0.00    -0.000 A 
HETATM   13  C18 UNL     1      22.125   0.997  50.506  1.00  0.00     0.003 A 
HETATM   14  C19 UNL     1      22.567   2.184  49.804  1.00  0.00     0.139 A 
HETATM   15  H14 UNL     1      25.055   4.837  52.559  1.00  0.00     0.160 HD
ENDROOT
BRANCH   1  16
HETATM   16  C8  UNL     1      23.818   2.254  52.654  1.00  0.00     0.098 C 
BRANCH  16  17
HETATM   17  C7  UNL     1      25.020   1.341  52.842  1.00  0.00    -0.017 A 
HETATM   18  C2  UNL     1      24.836  -0.013  53.125  1.00  0.00     0.075 A 
HETATM   19  C3  UNL     1      25.908  -0.863  53.295  1.00  0.00     0.040 A 
HETATM   20  C4  UNL     1      27.194  -0.373  53.183  1.00  0.00     0.041 A 
HETATM   21  C5  UNL     1      27.367   0.975  52.900  1.00  0.00     0.092 A 
HETATM   22  C6  UNL     1      26.299   1.830  52.730  1.00  0.00     0.049 A 
BRANCH  18  23
HETATM   23  O1  UNL     1      23.535  -0.458  53.228  1.00  0.00    -0.355 OA
HETATM   24  C1  UNL     1      22.995  -0.914  54.433  1.00  0.00     0.210 C 
ENDBRANCH  18  23
BRANCH  21  25
HETATM   25  O2  UNL     1      28.635   1.553  52.770  1.00  0.00    -0.267 OA
BRANCH  25  26
HETATM   26  N1  UNL     1      28.832   2.879  53.128  1.00  0.00    -0.209 NA
HETATM   27  H6  UNL     1      28.490   3.024  54.097  1.00  0.00     0.150 HD
HETATM   28  H7  UNL     1      28.260   3.450  52.468  1.00  0.00     0.150 HD
ENDBRANCH  25  26
ENDBRANCH  21  25
ENDBRANCH  16  17
ENDBRANCH   1  16
BRANCH   6  29
HETATM   29  P1  UNL     1      23.452   7.484  50.537  1.00  0.00    -0.089 P 
HETATM   30  H15 UNL     1      22.751   8.324  49.586  1.00  0.00     0.060 HD
HETATM   31  H16 UNL     1      22.851   7.716  51.840  1.00  0.00     0.060 HD
ENDBRANCH   6  29
TORSDOF 6
ENDMDL
MODEL 3
REMARK VINA RESULT:      -7.9      3.685      6.867
REMARK  6 active torsions:
REMARK  status: ('A' for Active; 'I' for Inactive)
REMARK    1  A    between atoms: O1_2  and  C2_3 
REMARK    2  A    between atoms: C5_6  and  O2_7 
REMARK    3  A    between atoms: O2_7  and  N1_8 
REMARK    4  A    between atoms: C7_10  and  C8_11 
REMARK    5  A    between atoms: C8_11  and  C9_12 
REMARK    6  A    between atoms: C13_17  and  P1_18 
ROOT
HETATM    1  C9  UNL     1      22.600   2.556  51.536  1.00  0.00     0.014 C 
HETATM    2  C10 UNL     1      23.224   3.601  52.007  1.00  0.00    -0.029 C 
HETATM    3  C11 UNL     1      22.162   4.440  52.690  1.00  0.00     0.070 C 
HETATM    4  C12 UNL     1      21.151   4.344  51.533  1.00  0.00     0.137 C 
HETATM    5  N2  UNL     1      21.243   2.895  51.242  1.00  0.00    -0.382 N 
HETATM    6  C13 UNL     1      21.593   5.142  50.389  1.00  0.00     0.051 C 
HETATM    7  N3  UNL     1      22.677   5.549  49.898  1.00  0.00    -0.272 NA
HETATM    8  C14 UNL     1      24.055   5.693  50.117  1.00  0.00     0.274 C 
HETATM    9  N4  UNL     1      24.769   4.520  50.537  1.00  0.00    -0.360 N 
HETATM   10  C15 UNL     1      25.620   4.212  49.441  1.00  0.00     0.088 A 
HETATM   11  C16 UNL     1      26.406   3.162  49.617  1.00  0.00     0.017 A 
HETATM   12  C17 UNL     1      26.432   2.347  50.825  1.00  0.00    -0.000 A 
HETATM   13  C18 UNL     1      25.580   2.734  51.779  1.00  0.00     0.003 A 
HETATM   14  C19 UNL     1      24.626   3.821  51.836  1.00  0.00     0.139 A 
HETATM   15  H14 UNL     1      20.425   2.308  50.893  1.00  0.00     0.160 HD
ENDROOT
BRANCH   1  16
HETATM   16  C8  UNL     1      23.040   1.200  51.281  1.00  0.00     0.098 C 
BRANCH  16  17
HETATM   17  C7  UNL     1      22.931   0.347  52.535  1.00  0.00    -0.017 A 
HETATM   18  C2  UNL     1      21.690  -0.139  52.949  1.00  0.00     0.075 A 
HETATM   19  C3  UNL     1      21.564  -0.920  54.079  1.00  0.00     0.040 A 
HETATM   20  C4  UNL     1      22.684  -1.233  54.822  1.00  0.00     0.041 A 
HETATM   21  C5  UNL     1      23.915  -0.745  54.402  1.00  0.00     0.092 A 
HETATM   22  C6  UNL     1      24.047   0.036  53.274  1.00  0.00     0.049 A 
BRANCH  18  23
HETATM   23  O1  UNL     1      20.598   0.198  52.176  1.00  0.00    -0.355 OA
HETATM   24  C1  UNL     1      19.288  -0.079  52.574  1.00  0.00     0.210 C 
ENDBRANCH  18  23
BRANCH  21  25
HETATM   25  O2  UNL     1      25.100  -1.014  55.097  1.00  0.00    -0.267 OA
BRANCH  25  26
HETATM   26  N1  UNL     1      25.059  -1.300  56.453  1.00  0.00    -0.209 NA
HETATM   27  H6  UNL     1      25.356  -2.283  56.603  1.00  0.00     0.150 HD
HETATM   28  H7  UNL     1      24.064  -1.189  56.747  1.00  0.00     0.150 HD
ENDBRANCH  25  26
ENDBRANCH  21  25
ENDBRANCH  16  17
ENDBRANCH   1  16
BRANCH   6  29
HETATM   29  P1  UNL     1      20.145   5.683  49.412  1.00  0.00    -0.089 P 
HETATM   30  H15 UNL     1      20.479   5.960  48.029  1.00  0.00     0.060 HD
HETATM   31  H16 UNL     1      19.177   4.600  49.412  1.00  0.00     0.060 HD
ENDBRANCH   6  29
TORSDOF 6
ENDMDL
MODEL 4
REMARK VINA RESULT:      -7.5      3.306      4.884
REMARK  6 active torsions:
REMARK  status: ('A' for Active; 'I' for Inactive)
REMARK    1  A    between atoms: O1_2  and  C2_3 
REMARK    2  A    between atoms: C5_6  and  O2_7 
REMARK    3  A    between atoms: O2_7  and  N1_8 
REMARK    4  A    between atoms: C7_10  and  C8_11 
REMARK    5  A    between atoms: C8_11  and  C9_12 
REMARK    6  A    between atoms: C13_17  and  P1_18 
ROOT
HETATM    1  C9  UNL     1      21.712   2.544  50.461  1.00  0.00     0.014 C 
HETATM    2  C10 UNL     1      21.514   1.271  50.249  1.00  0.00    -0.029 C 
HETATM    3  C11 UNL     1      21.172   1.148  48.778  1.00  0.00     0.070 C 
HETATM    4  C12 UNL     1      20.159   2.307  48.778  1.00  0.00     0.137 C 
HETATM    5  N2  UNL     1      20.933   3.313  49.541  1.00  0.00    -0.382 N 
HETATM    6  C13 UNL     1      18.938   1.930  49.488  1.00  0.00     0.051 C 
HETATM    7  N3  UNL     1      18.599   1.145  50.411  1.00  0.00    -0.272 NA
HETATM    8  C14 UNL     1      19.010   0.071  51.215  1.00  0.00     0.274 C 
HETATM    9  N4  UNL     1      20.263   0.222  51.901  1.00  0.00    -0.360 N 
HETATM   10  C15 UNL     1      19.909   0.289  53.276  1.00  0.00     0.088 A 
HETATM   11  C16 UNL     1      20.927   0.404  54.114  1.00  0.00     0.017 A 
HETATM   12  C17 UNL     1      22.325   0.465  53.707  1.00  0.00    -0.000 A 
HETATM   13  C18 UNL     1      22.526   0.399  52.387  1.00  0.00     0.003 A 
HETATM   14  C19 UNL     1      21.606   0.281  51.276  1.00  0.00     0.139 A 
HETATM   15  H14 UNL     1      20.865   4.363  49.376  1.00  0.00     0.160 HD
ENDROOT
BRANCH   1  16
HETATM   16  C8  UNL     1      22.537   3.248  51.418  1.00  0.00     0.098 C 
BRANCH  16  17
HETATM   17  C7  UNL     1      23.959   3.406  50.901  1.00  0.00    -0.017 A 
HETATM   18  C2  UNL     1      24.233   4.294  49.860  1.00  0.00     0.075 A 
HETATM   19  C3  UNL     1      25.513   4.461  49.375  1.00  0.00     0.040 A 
HETATM   20  C4  UNL     1      26.552   3.736  49.926  1.00  0.00     0.041 A 
HETATM   21  C5  UNL     1      26.269   2.856  50.961  1.00  0.00     0.092 A 
HETATM   22  C6  UNL     1      24.992   2.685  51.450  1.00  0.00     0.049 A 
BRANCH  18  23
HETATM   23  O1  UNL     1      23.166   4.996  49.341  1.00  0.00    -0.355 OA
HETATM   24  C1  UNL     1      23.249   5.698  48.136  1.00  0.00     0.210 C 
ENDBRANCH  18  23
BRANCH  21  25
HETATM   25  O2  UNL     1      27.262   2.083  51.576  1.00  0.00    -0.267 OA
BRANCH  25  26
HETATM   26  N1  UNL     1      28.066   2.642  52.559  1.00  0.00    -0.209 NA
HETATM   27  H6  UNL     1      29.042   2.316  52.426  1.00  0.00     0.150 HD
HETATM   28  H7  UNL     1      27.702   2.289  53.471  1.00  0.00     0.150 HD
ENDBRANCH  25  26
ENDBRANCH  21  25
ENDBRANCH  16  17
ENDBRANCH   1  16
BRANCH   6  29
HETATM   29  P1  UNL     1      17.520   2.884  48.838  1.00  0.00    -0.089 P 
HETATM   30  H15 UNL     1      16.255   2.453  49.399  1.00  0.00     0.060 HD
HETATM   31  H16 UNL     1      17.707   4.274  49.216  1.00  0.00     0.060 HD
ENDBRANCH   6  29
TORSDOF 6
ENDMDL
MODEL 5
REMARK VINA RESULT:      -7.4      5.288      9.352
REMARK  6 active torsions:
REMARK  status: ('A' for Active; 'I' for Inactive)
REMARK    1  A    between atoms: O1_2  and  C2_3 
REMARK    2  A    between atoms: C5_6  and  O2_7 
REMARK    3  A    between atoms: O2_7  and  N1_8 
REMARK    4  A    between atoms: C7_10  and  C8_11 
REMARK    5  A    between atoms: C8_11  and  C9_12 
REMARK    6  A    between atoms: C13_17  and  P1_18 
ROOT
HETATM    1  C9  UNL     1      30.343   7.543  47.793  1.00  0.00     0.014 C 
HETATM    2  C10 UNL     1      31.357   7.239  48.558  1.00  0.00    -0.029 C 
HETATM    3  C11 UNL     1      31.468   8.372  49.559  1.00  0.00     0.070 C 
HETATM    4  C12 UNL     1      31.336   9.491  48.511  1.00  0.00     0.137 C 
HETATM    5  N2  UNL     1      30.197   8.963  47.726  1.00  0.00    -0.382 N 
HETATM    6  C13 UNL     1      32.545   9.583  47.693  1.00  0.00     0.051 C 
HETATM    7  N3  UNL     1      33.469   8.823  47.305  1.00  0.00    -0.272 NA
HETATM    8  C14 UNL     1      34.068   7.565  47.470  1.00  0.00     0.274 C 
HETATM    9  N4  UNL     1      33.200   6.423  47.404  1.00  0.00    -0.360 N 
HETATM   10  C15 UNL     1      33.592   5.748  46.217  1.00  0.00     0.088 A 
HETATM   11  C16 UNL     1      32.931   4.629  45.962  1.00  0.00     0.017 A 
HETATM   12  C17 UNL     1      31.871   4.090  46.804  1.00  0.00    -0.000 A 
HETATM   13  C18 UNL     1      31.591   4.821  47.887  1.00  0.00     0.003 A 
HETATM   14  C19 UNL     1      32.147   6.062  48.383  1.00  0.00     0.139 A 
HETATM   15  H14 UNL     1      29.471   9.579  47.249  1.00  0.00     0.160 HD
ENDROOT
BRANCH   1  16
HETATM   16  C8  UNL     1      29.411   6.721  47.052  1.00  0.00     0.098 C 
BRANCH  16  17
HETATM   17  C7  UNL     1      28.224   6.327  47.916  1.00  0.00    -0.017 A 
HETATM   18  C2  UNL     1      27.201   7.244  48.165  1.00  0.00     0.075 A 
HETATM   19  C3  UNL     1      26.111   6.911  48.941  1.00  0.00     0.040 A 
HETATM   20  C4  UNL     1      26.020   5.646  49.487  1.00  0.00     0.041 A 
HETATM   21  C5  UNL     1      27.042   4.741  49.233  1.00  0.00     0.092 A 
HETATM   22  C6  UNL     1      28.135   5.068  48.459  1.00  0.00     0.049 A 
BRANCH  18  23
HETATM   23  O1  UNL     1      27.333   8.495  47.600  1.00  0.00    -0.355 OA
HETATM   24  C1  UNL     1      26.708   9.624  48.133  1.00  0.00     0.210 C 
ENDBRANCH  18  23
BRANCH  21  25
HETATM   25  O2  UNL     1      27.030   3.439  49.747  1.00  0.00    -0.267 OA
BRANCH  25  26
HETATM   26  N1  UNL     1      27.059   3.235  51.119  1.00  0.00    -0.209 NA
HETATM   27  H6  UNL     1      26.958   4.148  51.601  1.00  0.00     0.150 HD
HETATM   28  H7  UNL     1      27.996   2.830  51.336  1.00  0.00     0.150 HD
ENDBRANCH  25  26
ENDBRANCH  21  25
ENDBRANCH  16  17
ENDBRANCH   1  16
BRANCH   6  29
HETATM   29  P1  UNL     1      32.743  11.289  47.065  1.00  0.00    -0.089 P 
HETATM   30  H15 UNL     1      32.915  12.257  48.129  1.00  0.00     0.060 HD
HETATM   31  H16 UNL     1      33.946  11.326  46.250  1.00  0.00     0.060 HD
ENDBRANCH   6  29
TORSDOF 6
ENDMDL
MODEL 6
REMARK VINA RESULT:      -7.2      1.837      2.220
REMARK  6 active torsions:
REMARK  status: ('A' for Active; 'I' for Inactive)
REMARK    1  A    between atoms: O1_2  and  C2_3 
REMARK    2  A    between atoms: C5_6  and  O2_7 
REMARK    3  A    between atoms: O2_7  and  N1_8 
REMARK    4  A    between atoms: C7_10  and  C8_11 
REMARK    5  A    between atoms: C8_11  and  C9_12 
REMARK    6  A    between atoms: C13_17  and  P1_18 
ROOT
HETATM    1  C9  UNL     1      24.005   2.596  50.968  1.00  0.00     0.014 C 
HETATM    2  C10 UNL     1      23.309   2.797  52.054  1.00  0.00    -0.029 C 
HETATM    3  C11 UNL     1      24.316   3.168  53.124  1.00  0.00     0.070 C 
HETATM    4  C12 UNL     1      25.295   2.029  52.788  1.00  0.00     0.137 C 
HETATM    5  N2  UNL     1      25.318   2.149  51.312  1.00  0.00    -0.382 N 
HETATM    6  C13 UNL     1      24.751   0.736  53.205  1.00  0.00     0.051 C 
HETATM    7  N3  UNL     1      23.622   0.212  53.380  1.00  0.00    -0.272 NA
HETATM    8  C14 UNL     1      22.243   0.457  53.478  1.00  0.00     0.274 C 
HETATM    9  N4  UNL     1      21.646   1.217  52.416  1.00  0.00    -0.360 N 
HETATM   10  C15 UNL     1      20.790   0.293  51.756  1.00  0.00     0.088 A 
HETATM   11  C16 UNL     1      20.103   0.790  50.740  1.00  0.00     0.017 A 
HETATM   12  C17 UNL     1      20.185   2.174  50.290  1.00  0.00    -0.000 A 
HETATM   13  C18 UNL     1      21.029   2.939  50.987  1.00  0.00     0.003 A 
HETATM   14  C19 UNL     1      21.889   2.648  52.115  1.00  0.00     0.139 A 
HETATM   15  H14 UNL     1      26.172   1.929  50.714  1.00  0.00     0.160 HD
ENDROOT
BRANCH   1  16
HETATM   16  C8  UNL     1      23.675   2.743  49.567  1.00  0.00     0.098 C 
BRANCH  16  17
HETATM   17  C7  UNL     1      23.915   4.169  49.097  1.00  0.00    -0.017 A 
HETATM   18  C2  UNL     1      23.010   4.785  48.231  1.00  0.00     0.075 A 
HETATM   19  C3  UNL     1      23.200   6.079  47.794  1.00  0.00     0.040 A 
HETATM   20  C4  UNL     1      24.306   6.788  48.217  1.00  0.00     0.041 A 
HETATM   21  C5  UNL     1      25.200   6.167  49.079  1.00  0.00     0.092 A 
HETATM   22  C6  UNL     1      25.016   4.874  49.520  1.00  0.00     0.049 A 
BRANCH  18  23
HETATM   23  O1  UNL     1      21.920   4.040  47.834  1.00  0.00    -0.355 OA
HETATM   24  C1  UNL     1      21.711   3.674  46.502  1.00  0.00     0.210 C 
ENDBRANCH  18  23
BRANCH  21  25
HETATM   25  O2  UNL     1      26.347   6.813  49.557  1.00  0.00    -0.267 OA
BRANCH  25  26
HETATM   26  N1  UNL     1      27.601   6.414  49.119  1.00  0.00    -0.209 NA
HETATM   27  H6  UNL     1      28.316   7.064  49.497  1.00  0.00     0.150 HD
HETATM   28  H7  UNL     1      27.584   6.481  48.078  1.00  0.00     0.150 HD
ENDBRANCH  25  26
ENDBRANCH  21  25
ENDBRANCH  16  17
ENDBRANCH   1  16
BRANCH   6  29
HETATM   29  P1  UNL     1      26.116  -0.427  53.562  1.00  0.00    -0.089 P 
HETATM   30  H15 UNL     1      27.098   0.129  54.471  1.00  0.00     0.060 HD
HETATM   31  H16 UNL     1      25.546  -1.598  54.207  1.00  0.00     0.060 HD
ENDBRANCH   6  29
TORSDOF 6
ENDMDL
MODEL 7
REMARK VINA RESULT:      -7.0      5.389      9.927
REMARK  6 active torsions:
REMARK  status: ('A' for Active; 'I' for Inactive)
REMARK    1  A    between atoms: O1_2  and  C2_3 
REMARK    2  A    between atoms: C5_6  and  O2_7 
REMARK    3  A    between atoms: O2_7  and  N1_8 
REMARK    4  A    between atoms: C7_10  and  C8_11 
REMARK    5  A    between atoms: C8_11  and  C9_12 
REMARK    6  A    between atoms: C13_17  and  P1_18 
ROOT
HETATM    1  C9  UNL     1      29.950   8.177  47.896  1.00  0.00     0.014 C 
HETATM    2  C10 UNL     1      31.228   8.175  48.166  1.00  0.00    -0.029 C 
HETATM    3  C11 UNL     1      31.345   8.660  49.596  1.00  0.00     0.070 C 
HETATM    4  C12 UNL     1      30.388   9.851  49.413  1.00  0.00     0.137 C 
HETATM    5  N2  UNL     1      29.294   9.179  48.675  1.00  0.00    -0.382 N 
HETATM    6  C13 UNL     1      31.009  10.898  48.601  1.00  0.00     0.051 C 
HETATM    7  N3  UNL     1      31.881  10.985  47.700  1.00  0.00    -0.272 NA
HETATM    8  C14 UNL     1      32.897  10.302  47.014  1.00  0.00     0.274 C 
HETATM    9  N4  UNL     1      32.555   9.023  46.459  1.00  0.00    -0.360 N 
HETATM   10  C15 UNL     1      32.612   9.219  45.052  1.00  0.00     0.088 A 
HETATM   11  C16 UNL     1      32.354   8.145  44.323  1.00  0.00     0.017 A 
HETATM   12  C17 UNL     1      32.025   6.837  44.874  1.00  0.00    -0.000 A 
HETATM   13  C18 UNL     1      31.996   6.783  46.209  1.00  0.00     0.003 A 
HETATM   14  C19 UNL     1      32.229   7.793  47.220  1.00  0.00     0.139 A 
HETATM   15  H14 UNL     1      28.267   9.447  48.765  1.00  0.00     0.160 HD
ENDROOT
BRANCH   1  16
HETATM   16  C8  UNL     1      29.152   7.379  46.990  1.00  0.00     0.098 C 
BRANCH  16  17
HETATM   17  C7  UNL     1      27.994   6.718  47.722  1.00  0.00    -0.017 A 
HETATM   18  C2  UNL     1      26.753   7.352  47.793  1.00  0.00     0.075 A 
HETATM   19  C3  UNL     1      25.686   6.772  48.445  1.00  0.00     0.040 A 
HETATM   20  C4  UNL     1      25.839   5.537  49.044  1.00  0.00     0.041 A 
HETATM   21  C5  UNL     1      27.077   4.914  48.968  1.00  0.00     0.092 A 
HETATM   22  C6  UNL     1      28.148   5.489  48.317  1.00  0.00     0.049 A 
BRANCH  18  23
HETATM   23  O1  UNL     1      26.646   8.583  47.181  1.00  0.00    -0.355 OA
HETATM   24  C1  UNL     1      25.573   9.445  47.421  1.00  0.00     0.210 C 
ENDBRANCH  18  23
BRANCH  21  25
HETATM   25  O2  UNL     1      27.319   3.663  49.547  1.00  0.00    -0.267 OA
BRANCH  25  26
HETATM   26  N1  UNL     1      26.947   3.424  50.861  1.00  0.00    -0.209 NA
HETATM   27  H6  UNL     1      26.501   4.276  51.249  1.00  0.00     0.150 HD
HETATM   28  H7  UNL     1      27.828   3.223  51.384  1.00  0.00     0.150 HD
ENDBRANCH  25  26
ENDBRANCH  21  25
ENDBRANCH  16  17
ENDBRANCH   1  16
BRANCH   6  29
HETATM   29  P1  UNL     1      30.296  12.526  49.033  1.00  0.00    -0.089 P 
HETATM   30  H15 UNL     1      30.549  12.896  50.411  1.00  0.00     0.060 HD
HETATM   31  H16 UNL     1      30.933  13.527  48.194  1.00  0.00     0.060 HD
ENDBRANCH   6  29
TORSDOF 6
ENDMDL
MODEL 8
REMARK VINA RESULT:      -6.8      5.384      9.080
REMARK  6 active torsions:
REMARK  status: ('A' for Active; 'I' for Inactive)
REMARK    1  A    between atoms: O1_2  and  C2_3 
REMARK    2  A    between atoms: C5_6  and  O2_7 
REMARK    3  A    between atoms: O2_7  and  N1_8 
REMARK    4  A    between atoms: C7_10  and  C8_11 
REMARK    5  A    between atoms: C8_11  and  C9_12 
REMARK    6  A    between atoms: C13_17  and  P1_18 
ROOT
HETATM    1  C9  UNL     1      30.441   6.439  48.597  1.00  0.00     0.014 C 
HETATM    2  C10 UNL     1      31.719   6.375  48.854  1.00  0.00    -0.029 C 
HETATM    3  C11 UNL     1      31.973   7.410  49.931  1.00  0.00     0.070 C 
HETATM    4  C12 UNL     1      31.171   8.526  49.238  1.00  0.00     0.137 C 
HETATM    5  N2  UNL     1      29.962   7.761  48.855  1.00  0.00    -0.382 N 
HETATM    6  C13 UNL     1      31.880   9.019  48.057  1.00  0.00     0.051 C 
HETATM    7  N3  UNL     1      32.708   8.585  47.217  1.00  0.00    -0.272 NA
HETATM    8  C14 UNL     1      33.590   7.538  46.907  1.00  0.00     0.274 C 
HETATM    9  N4  UNL     1      33.055   6.206  46.962  1.00  0.00    -0.360 N 
HETATM   10  C15 UNL     1      33.065   5.765  45.611  1.00  0.00     0.088 A 
HETATM   11  C16 UNL     1      32.631   4.529  45.420  1.00  0.00     0.017 A 
HETATM   12  C17 UNL     1      32.164   3.647  46.482  1.00  0.00    -0.000 A 
HETATM   13  C18 UNL     1      32.197   4.181  47.707  1.00  0.00     0.003 A 
HETATM   14  C19 UNL     1      32.612   5.486  48.179  1.00  0.00     0.139 A 
HETATM   15  H14 UNL     1      28.985   8.182  48.809  1.00  0.00     0.160 HD
ENDROOT
BRANCH   1  16
HETATM   16  C8  UNL     1      29.499   5.448  48.121  1.00  0.00     0.098 C 
BRANCH  16  17
HETATM   17  C7  UNL     1      28.079   5.990  48.145  1.00  0.00    -0.017 A 
HETATM   18  C2  UNL     1      27.065   5.277  48.787  1.00  0.00     0.075 A 
HETATM   19  C3  UNL     1      25.770   5.749  48.828  1.00  0.00     0.040 A 
HETATM   20  C4  UNL     1      25.460   6.952  48.225  1.00  0.00     0.041 A 
HETATM   21  C5  UNL     1      26.476   7.654  47.589  1.00  0.00     0.092 A 
HETATM   22  C6  UNL     1      27.772   7.188  47.544  1.00  0.00     0.049 A 
BRANCH  18  23
HETATM   23  O1  UNL     1      27.420   4.082  49.376  1.00  0.00    -0.355 OA
HETATM   24  C1  UNL     1      26.473   3.199  49.902  1.00  0.00     0.210 C 
ENDBRANCH  18  23
BRANCH  21  25
HETATM   25  O2  UNL     1      26.249   8.880  46.952  1.00  0.00    -0.267 OA
BRANCH  25  26
HETATM   26  N1  UNL     1      27.297   9.770  46.770  1.00  0.00    -0.209 NA
HETATM   27  H6  UNL     1      27.519   9.831  45.758  1.00  0.00     0.150 HD
HETATM   28  H7  UNL     1      28.114   9.371  47.282  1.00  0.00     0.150 HD
ENDBRANCH  25  26
ENDBRANCH  21  25
ENDBRANCH  16  17
ENDBRANCH   1  16
BRANCH   6  29
HETATM   29  P1  UNL     1      31.410  10.756  47.730  1.00  0.00    -0.089 P 
HETATM   30  H15 UNL     1      29.978  10.925  47.578  1.00  0.00     0.060 HD
HETATM   31  H16 UNL     1      31.819  11.552  48.874  1.00  0.00     0.060 HD
ENDBRANCH   6  29
TORSDOF 6
ENDMDL
MODEL 9
REMARK VINA RESULT:      -6.8      4.725      7.532
REMARK  6 active torsions:
REMARK  status: ('A' for Active; 'I' for Inactive)
REMARK    1  A    between atoms: O1_2  and  C2_3 
REMARK    2  A    between atoms: C5_6  and  O2_7 
REMARK    3  A    between atoms: O2_7  and  N1_8 
REMARK    4  A    between atoms: C7_10  and  C8_11 
REMARK    5  A    between atoms: C8_11  and  C9_12 
REMARK    6  A    between atoms: C13_17  and  P1_18 
ROOT
HETATM    1  C9  UNL     1      20.264   1.927  51.109  1.00  0.00     0.014 C 
HETATM    2  C10 UNL     1      20.699   3.150  50.970  1.00  0.00    -0.029 C 
HETATM    3  C11 UNL     1      19.909   3.982  51.960  1.00  0.00     0.070 C 
HETATM    4  C12 UNL     1      18.543   3.382  51.579  1.00  0.00     0.137 C 
HETATM    5  N2  UNL     1      18.904   1.946  51.548  1.00  0.00    -0.382 N 
HETATM    6  C13 UNL     1      18.119   3.850  50.260  1.00  0.00     0.051 C 
HETATM    7  N3  UNL     1      18.655   4.250  49.195  1.00  0.00    -0.272 NA
HETATM    8  C14 UNL     1      19.854   4.667  48.598  1.00  0.00     0.274 C 
HETATM    9  N4  UNL     1      20.990   3.803  48.760  1.00  0.00    -0.360 N 
HETATM   10  C15 UNL     1      21.251   3.311  47.452  1.00  0.00     0.088 A 
HETATM   11  C16 UNL     1      22.292   2.500  47.355  1.00  0.00     0.017 A 
HETATM   12  C17 UNL     1      23.138   2.107  48.474  1.00  0.00    -0.000 A 
HETATM   13  C18 UNL     1      22.785   2.631  49.652  1.00  0.00     0.003 A 
HETATM   14  C19 UNL     1      21.707   3.522  50.027  1.00  0.00     0.139 A 
HETATM   15  H14 UNL     1      18.233   1.161  51.811  1.00  0.00     0.160 HD
ENDROOT
BRANCH   1  16
HETATM   16  C8  UNL     1      20.901   0.644  50.900  1.00  0.00     0.098 C 
BRANCH  16  17
HETATM   17  C7  UNL     1      21.490   0.111  52.196  1.00  0.00    -0.017 A 
HETATM   18  C2  UNL     1      20.665  -0.487  53.150  1.00  0.00     0.075 A 
HETATM   19  C3  UNL     1      21.175  -0.984  54.331  1.00  0.00     0.040 A 
HETATM   20  C4  UNL     1      22.530  -0.892  54.584  1.00  0.00     0.041 A 
HETATM   21  C5  UNL     1      23.342  -0.297  53.629  1.00  0.00     0.092 A 
HETATM   22  C6  UNL     1      22.839   0.202  52.446  1.00  0.00     0.049 A 
BRANCH  18  23
HETATM   23  O1  UNL     1      19.320  -0.557  52.856  1.00  0.00    -0.355 OA
HETATM   24  C1  UNL     1      18.472  -1.490  53.457  1.00  0.00     0.210 C 
ENDBRANCH  18  23
BRANCH  21  25
HETATM   25  O2  UNL     1      24.725  -0.163  53.804  1.00  0.00    -0.267 OA
BRANCH  25  26
HETATM   26  N1  UNL     1      25.372  -0.891  54.791  1.00  0.00    -0.209 NA
HETATM   27  H6  UNL     1      25.581  -1.841  54.431  1.00  0.00     0.150 HD
HETATM   28  H7  UNL     1      24.704  -0.961  55.590  1.00  0.00     0.150 HD
ENDBRANCH  25  26
ENDBRANCH  21  25
ENDBRANCH  16  17
ENDBRANCH   1  16
BRANCH   6  29
HETATM   29  P1  UNL     1      16.293   3.836  50.152  1.00  0.00    -0.089 P 
HETATM   30  H15 UNL     1      15.761   2.512  49.898  1.00  0.00     0.060 HD
HETATM   31  H16 UNL     1      15.768   4.272  51.435  1.00  0.00     0.060 HD
ENDBRANCH   6  29
TORSDOF 6
ENDMDL
