MODEL 1
REMARK VINA RESULT:      -6.6      0.000      0.000
REMARK  5 active torsions:
REMARK  status: ('A' for Active; 'I' for Inactive)
REMARK    1  A    between atoms: C3_3  and  C4_4 
REMARK    2  A    between atoms: C4_4  and  C5_6 
REMARK    3  A    between atoms: C5_6  and  C6_7 
REMARK    4  A    between atoms: C9_10  and  O1_11 
REMARK    5  A    between atoms: C11_13  and  O2_14 
ROOT
HETATM    1  C6  UNL     1      24.102   1.761  52.222  1.00  0.00    -0.044 C 
HETATM    2  C7  UNL     1      24.254   1.012  53.435  1.00  0.00     0.067 C 
HETATM    3  C8  UNL     1      25.134  -0.189  53.212  1.00  0.00     0.017 C 
HETATM    4  C9  UNL     1      26.350  -0.509  53.621  1.00  0.00     0.100 C 
HETATM    5  C11 UNL     1      27.566  -0.203  54.356  1.00  0.00     0.132 C 
HETATM    6  C13 UNL     1      27.120   0.993  54.718  1.00  0.00     0.126 C 
HETATM    7  N1  UNL     1      27.394   1.891  53.821  1.00  0.00    -0.237 NA
HETATM    8  C14 UNL     1      27.244   1.435  52.458  1.00  0.00     0.227 C 
HETATM    9  N2  UNL     1      26.417   1.562  51.439  1.00  0.00    -0.279 NA
HETATM   10  C15 UNL     1      25.222   2.410  51.607  1.00  0.00     0.185 C 
ENDROOT
BRANCH   1  11
HETATM   11  C5  UNL     1      22.903   1.848  51.655  1.00  0.00    -0.003 C 
BRANCH  11  12
HETATM   12  C4  UNL     1      21.605   2.011  51.566  1.00  0.00     0.022 C 
HETATM   13 BR1  UNL     1      20.779   3.661  51.800  1.00  0.00    -0.050 Br
BRANCH  12  14
HETATM   14  C3  UNL     1      21.237   0.658  51.278  1.00  0.00     0.015 C 
HETATM   15  C2  UNL     1      20.684  -0.042  52.255  1.00  0.00    -0.030 C 
HETATM   16  C1  UNL     1      20.551   0.757  53.510  1.00  0.00     0.036 C 
ENDBRANCH  12  14
ENDBRANCH  11  12
ENDBRANCH   1  11
BRANCH   4  17
HETATM   17  O1  UNL     1      27.012  -1.718  53.296  1.00  0.00    -0.353 OA
HETATM   18  C10 UNL     1      26.712  -2.245  52.015  1.00  0.00     0.210 C 
ENDBRANCH   4  17
BRANCH   5  19
HETATM   19  O2  UNL     1      28.836  -0.403  54.867  1.00  0.00    -0.351 OA
HETATM   20  C12 UNL     1      29.859  -0.681  53.900  1.00  0.00     0.210 C 
ENDBRANCH   5  19
TORSDOF 5
ENDMDL
MODEL 2
REMARK VINA RESULT:      -6.6      1.923      3.089
REMARK  5 active torsions:
REMARK  status: ('A' for Active; 'I' for Inactive)
REMARK    1  A    between atoms: C3_3  and  C4_4 
REMARK    2  A    between atoms: C4_4  and  C5_6 
REMARK    3  A    between atoms: C5_6  and  C6_7 
REMARK    4  A    between atoms: C9_10  and  O1_11 
REMARK    5  A    between atoms: C11_13  and  O2_14 
ROOT
HETATM    1  C6  UNL     1      23.831   1.089  52.075  1.00  0.00    -0.044 C 
HETATM    2  C7  UNL     1      25.180   1.172  51.596  1.00  0.00     0.067 C 
HETATM    3  C8  UNL     1      26.109   1.608  52.698  1.00  0.00     0.017 C 
HETATM    4  C9  UNL     1      27.068   0.994  53.370  1.00  0.00     0.100 C 
HETATM    5  C11 UNL     1      27.867  -0.187  53.652  1.00  0.00     0.132 C 
HETATM    6  C13 UNL     1      27.209  -0.921  52.764  1.00  0.00     0.126 C 
HETATM    7  N1  UNL     1      26.156  -1.466  53.290  1.00  0.00    -0.237 NA
HETATM    8  C14 UNL     1      25.439  -0.612  54.210  1.00  0.00     0.227 C 
HETATM    9  N2  UNL     1      24.334   0.106  54.263  1.00  0.00    -0.279 NA
HETATM   10  C15 UNL     1      23.458   0.137  53.078  1.00  0.00     0.185 C 
ENDROOT
BRANCH   1  11
HETATM   11  C5  UNL     1      22.913   1.916  51.583  1.00  0.00    -0.003 C 
BRANCH  11  12
HETATM   12  C4  UNL     1      22.417   2.980  51.000  1.00  0.00     0.022 C 
HETATM   13 BR1  UNL     1      22.120   4.578  51.905  1.00  0.00    -0.050 Br
BRANCH  12  14
HETATM   14  C3  UNL     1      22.258   2.448  49.681  1.00  0.00     0.015 C 
HETATM   15  C2  UNL     1      23.096   2.874  48.749  1.00  0.00    -0.030 C 
HETATM   16  C1  UNL     1      24.075   3.866  49.288  1.00  0.00     0.036 C 
ENDBRANCH  12  14
ENDBRANCH  11  12
ENDBRANCH   1  11
BRANCH   4  17
HETATM   17  O1  UNL     1      27.845   1.597  54.389  1.00  0.00    -0.353 OA
HETATM   18  C10 UNL     1      28.879   2.451  53.932  1.00  0.00     0.210 C 
ENDBRANCH   4  17
BRANCH   5  19
HETATM   19  O2  UNL     1      28.845  -0.954  54.260  1.00  0.00    -0.351 OA
HETATM   20  C12 UNL     1      30.096  -1.034  53.562  1.00  0.00     0.210 C 
ENDBRANCH   5  19
TORSDOF 5
ENDMDL
MODEL 3
REMARK VINA RESULT:      -6.5      0.963      1.507
REMARK  5 active torsions:
REMARK  status: ('A' for Active; 'I' for Inactive)
REMARK    1  A    between atoms: C3_3  and  C4_4 
REMARK    2  A    between atoms: C4_4  and  C5_6 
REMARK    3  A    between atoms: C5_6  and  C6_7 
REMARK    4  A    between atoms: C9_10  and  O1_11 
REMARK    5  A    between atoms: C11_13  and  O2_14 
ROOT
HETATM    1  C6  UNL     1      23.820   1.466  52.086  1.00  0.00    -0.044 C 
HETATM    2  C7  UNL     1      23.969   0.697  53.287  1.00  0.00     0.067 C 
HETATM    3  C8  UNL     1      24.995  -0.389  53.099  1.00  0.00     0.017 C 
HETATM    4  C9  UNL     1      26.207  -0.585  53.590  1.00  0.00     0.100 C 
HETATM    5  C11 UNL     1      27.325  -0.169  54.422  1.00  0.00     0.132 C 
HETATM    6  C13 UNL     1      26.720   0.956  54.781  1.00  0.00     0.126 C 
HETATM    7  N1  UNL     1      26.952   1.909  53.931  1.00  0.00    -0.237 NA
HETATM    8  C14 UNL     1      26.954   1.487  52.549  1.00  0.00     0.227 C 
HETATM    9  N2  UNL     1      26.192   1.556  51.475  1.00  0.00    -0.279 NA
HETATM   10  C15 UNL     1      24.899   2.257  51.575  1.00  0.00     0.185 C 
ENDROOT
BRANCH   1  11
HETATM   11  C5  UNL     1      22.662   1.437  51.433  1.00  0.00    -0.003 C 
BRANCH  11  12
HETATM   12  C4  UNL     1      21.448   1.792  51.086  1.00  0.00     0.022 C 
HETATM   13 BR1  UNL     1      20.564   3.238  51.851  1.00  0.00    -0.050 Br
BRANCH  12  14
HETATM   14  C3  UNL     1      21.206   0.787  50.097  1.00  0.00     0.015 C 
HETATM   15  C2  UNL     1      21.405   1.119  48.831  1.00  0.00    -0.030 C 
HETATM   16  C1  UNL     1      21.859   2.535  48.689  1.00  0.00     0.036 C 
ENDBRANCH  12  14
ENDBRANCH  11  12
ENDBRANCH   1  11
BRANCH   4  17
HETATM   17  O1  UNL     1      27.025  -1.699  53.284  1.00  0.00    -0.353 OA
HETATM   18  C10 UNL     1      26.743  -2.333  52.048  1.00  0.00     0.210 C 
ENDBRANCH   4  17
BRANCH   5  19
HETATM   19  O2  UNL     1      28.569  -0.243  55.022  1.00  0.00    -0.351 OA
HETATM   20  C12 UNL     1      29.681  -0.405  54.129  1.00  0.00     0.210 C 
ENDBRANCH   5  19
TORSDOF 5
ENDMDL
MODEL 4
REMARK VINA RESULT:      -6.3      3.734      6.764
REMARK  5 active torsions:
REMARK  status: ('A' for Active; 'I' for Inactive)
REMARK    1  A    between atoms: C3_3  and  C4_4 
REMARK    2  A    between atoms: C4_4  and  C5_6 
REMARK    3  A    between atoms: C5_6  and  C6_7 
REMARK    4  A    between atoms: C9_10  and  O1_11 
REMARK    5  A    between atoms: C11_13  and  O2_14 
ROOT
HETATM    1  C6  UNL     1      24.397   0.385  53.403  1.00  0.00    -0.044 C 
HETATM    2  C7  UNL     1      23.775   1.509  52.767  1.00  0.00     0.067 C 
HETATM    3  C8  UNL     1      22.955   1.064  51.585  1.00  0.00     0.017 C 
HETATM    4  C9  UNL     1      21.655   1.027  51.347  1.00  0.00     0.100 C 
HETATM    5  C11 UNL     1      20.279   1.253  51.761  1.00  0.00     0.132 C 
HETATM    6  C13 UNL     1      20.645   1.672  52.965  1.00  0.00     0.126 C 
HETATM    7  N1  UNL     1      20.768   0.680  53.793  1.00  0.00    -0.237 NA
HETATM    8  C14 UNL     1      21.363  -0.505  53.218  1.00  0.00     0.227 C 
HETATM    9  N2  UNL     1      22.505  -1.163  53.227  1.00  0.00    -0.279 NA
HETATM   10  C15 UNL     1      23.615  -0.633  54.039  1.00  0.00     0.185 C 
ENDROOT
BRANCH   1  11
HETATM   11  C5  UNL     1      25.723   0.284  53.397  1.00  0.00    -0.003 C 
BRANCH  11  12
HETATM   12  C4  UNL     1      26.961   0.501  53.023  1.00  0.00     0.022 C 
HETATM   13 BR1  UNL     1      27.766   2.174  53.125  1.00  0.00    -0.050 Br
BRANCH  12  14
HETATM   14  C3  UNL     1      27.295  -0.828  52.608  1.00  0.00     0.015 C 
HETATM   15  C2  UNL     1      28.373  -1.378  53.144  1.00  0.00    -0.030 C 
HETATM   16  C1  UNL     1      29.049  -0.462  54.110  1.00  0.00     0.036 C 
ENDBRANCH  12  14
ENDBRANCH  11  12
ENDBRANCH   1  11
BRANCH   4  17
HETATM   17  O1  UNL     1      21.073   0.566  50.141  1.00  0.00    -0.353 OA
HETATM   18  C10 UNL     1      21.473   1.262  48.973  1.00  0.00     0.210 C 
ENDBRANCH   4  17
BRANCH   5  19
HETATM   19  O2  UNL     1      18.900   1.285  51.653  1.00  0.00    -0.351 OA
HETATM   20  C12 UNL     1      18.324   2.582  51.438  1.00  0.00     0.210 C 
ENDBRANCH   5  19
TORSDOF 5
ENDMDL
MODEL 5
REMARK VINA RESULT:      -6.0      3.966      6.438
REMARK  5 active torsions:
REMARK  status: ('A' for Active; 'I' for Inactive)
REMARK    1  A    between atoms: C3_3  and  C4_4 
REMARK    2  A    between atoms: C4_4  and  C5_6 
REMARK    3  A    between atoms: C5_6  and  C6_7 
REMARK    4  A    between atoms: C9_10  and  O1_11 
REMARK    5  A    between atoms: C11_13  and  O2_14 
ROOT
HETATM    1  C6  UNL     1      24.538   1.094  53.005  1.00  0.00    -0.044 C 
HETATM    2  C7  UNL     1      25.099   2.412  52.972  1.00  0.00     0.067 C 
HETATM    3  C8  UNL     1      25.214   2.906  51.554  1.00  0.00     0.017 C 
HETATM    4  C9  UNL     1      24.591   3.852  50.871  1.00  0.00     0.100 C 
HETATM    5  C11 UNL     1      23.601   4.912  50.781  1.00  0.00     0.132 C 
HETATM    6  C13 UNL     1      23.191   4.721  52.028  1.00  0.00     0.126 C 
HETATM    7  N1  UNL     1      22.265   3.814  52.087  1.00  0.00    -0.237 NA
HETATM    8  C14 UNL     1      22.477   2.688  51.205  1.00  0.00     0.227 C 
HETATM    9  N2  UNL     1      22.853   1.426  51.257  1.00  0.00    -0.279 NA
HETATM   10  C15 UNL     1      23.196   0.849  52.570  1.00  0.00     0.185 C 
ENDROOT
BRANCH   1  11
HETATM   11  C5  UNL     1      25.280   0.080  53.441  1.00  0.00    -0.003 C 
BRANCH  11  12
HETATM   12  C4  UNL     1      26.342  -0.670  53.610  1.00  0.00     0.022 C 
HETATM   13 BR1  UNL     1      26.826  -2.014  52.419  1.00  0.00    -0.050 Br
BRANCH  12  14
HETATM   14  C3  UNL     1      26.816  -0.099  54.834  1.00  0.00     0.015 C 
HETATM   15  C2  UNL     1      28.010   0.471  54.817  1.00  0.00    -0.030 C 
HETATM   16  C1  UNL     1      28.646   0.397  53.467  1.00  0.00     0.036 C 
ENDBRANCH  12  14
ENDBRANCH  11  12
ENDBRANCH   1  11
BRANCH   4  17
HETATM   17  O1  UNL     1      24.856   4.168  49.517  1.00  0.00    -0.353 OA
HETATM   18  C10 UNL     1      26.088   4.826  49.280  1.00  0.00     0.210 C 
ENDBRANCH   4  17
BRANCH   5  19
HETATM   19  O2  UNL     1      22.874   5.937  50.202  1.00  0.00    -0.351 OA
HETATM   20  C12 UNL     1      23.176   7.258  50.676  1.00  0.00     0.210 C 
ENDBRANCH   5  19
TORSDOF 5
ENDMDL
MODEL 6
REMARK VINA RESULT:      -5.8      2.725      4.476
REMARK  5 active torsions:
REMARK  status: ('A' for Active; 'I' for Inactive)
REMARK    1  A    between atoms: C3_3  and  C4_4 
REMARK    2  A    between atoms: C4_4  and  C5_6 
REMARK    3  A    between atoms: C5_6  and  C6_7 
REMARK    4  A    between atoms: C9_10  and  O1_11 
REMARK    5  A    between atoms: C11_13  and  O2_14 
ROOT
HETATM    1  C6  UNL     1      24.908   3.563  51.165  1.00  0.00    -0.044 C 
HETATM    2  C7  UNL     1      25.812   2.586  50.632  1.00  0.00     0.067 C 
HETATM    3  C8  UNL     1      26.941   2.326  51.594  1.00  0.00     0.017 C 
HETATM    4  C9  UNL     1      27.275   1.287  52.340  1.00  0.00     0.100 C 
HETATM    5  C11 UNL     1      27.032  -0.065  52.819  1.00  0.00     0.132 C 
HETATM    6  C13 UNL     1      25.914  -0.181  52.115  1.00  0.00     0.126 C 
HETATM    7  N1  UNL     1      24.892   0.274  52.774  1.00  0.00    -0.237 NA
HETATM    8  C14 UNL     1      25.159   1.474  53.534  1.00  0.00     0.227 C 
HETATM    9  N2  UNL     1      24.920   2.770  53.484  1.00  0.00    -0.279 NA
HETATM   10  C15 UNL     1      24.144   3.298  52.347  1.00  0.00     0.185 C 
ENDROOT
BRANCH   1  11
HETATM   11  C5  UNL     1      24.783   4.737  50.554  1.00  0.00    -0.003 C 
BRANCH  11  12
HETATM   12  C4  UNL     1      24.191   5.755  49.977  1.00  0.00     0.022 C 
HETATM   13 BR1  UNL     1      22.753   6.651  50.744  1.00  0.00    -0.050 Br
BRANCH  12  14
HETATM   14  C3  UNL     1      24.984   5.819  48.787  1.00  0.00     0.015 C 
HETATM   15  C2  UNL     1      25.938   6.735  48.740  1.00  0.00    -0.030 C 
HETATM   16  C1  UNL     1      25.992   7.551  49.990  1.00  0.00     0.036 C 
ENDBRANCH  12  14
ENDBRANCH  11  12
ENDBRANCH   1  11
BRANCH   4  17
HETATM   17  O1  UNL     1      28.404   1.241  53.193  1.00  0.00    -0.353 OA
HETATM   18  C10 UNL     1      28.791   2.486  53.749  1.00  0.00     0.210 C 
ENDBRANCH   4  17
BRANCH   5  19
HETATM   19  O2  UNL     1      27.259  -1.229  53.531  1.00  0.00    -0.351 OA
HETATM   20  C12 UNL     1      27.439  -2.415  52.743  1.00  0.00     0.210 C 
ENDBRANCH   5  19
TORSDOF 5
ENDMDL
MODEL 7
REMARK VINA RESULT:      -5.7      4.194      6.989
REMARK  5 active torsions:
REMARK  status: ('A' for Active; 'I' for Inactive)
REMARK    1  A    between atoms: C3_3  and  C4_4 
REMARK    2  A    between atoms: C4_4  and  C5_6 
REMARK    3  A    between atoms: C5_6  and  C6_7 
REMARK    4  A    between atoms: C9_10  and  O1_11 
REMARK    5  A    between atoms: C11_13  and  O2_14 
ROOT
HETATM    1  C6  UNL     1      23.268   1.138  53.047  1.00  0.00    -0.044 C 
HETATM    2  C7  UNL     1      23.407   2.357  52.304  1.00  0.00     0.067 C 
HETATM    3  C8  UNL     1      22.755   2.233  50.953  1.00  0.00     0.017 C 
HETATM    4  C9  UNL     1      21.680   2.780  50.412  1.00  0.00     0.100 C 
HETATM    5  C11 UNL     1      20.521   3.655  50.493  1.00  0.00     0.132 C 
HETATM    6  C13 UNL     1      20.767   3.969  51.758  1.00  0.00     0.126 C 
HETATM    7  N1  UNL     1      20.223   3.116  52.570  1.00  0.00    -0.237 NA
HETATM    8  C14 UNL     1      20.297   1.741  52.128  1.00  0.00     0.227 C 
HETATM    9  N2  UNL     1      20.960   0.633  52.394  1.00  0.00    -0.279 NA
HETATM   10  C15 UNL     1      21.981   0.663  53.458  1.00  0.00     0.185 C 
ENDROOT
BRANCH   1  11
HETATM   11  C5  UNL     1      24.354   0.434  53.353  1.00  0.00    -0.003 C 
BRANCH  11  12
HETATM   12  C4  UNL     1      25.081  -0.512  53.896  1.00  0.00     0.022 C 
HETATM   13 BR1  UNL     1      24.780  -1.151  55.617  1.00  0.00    -0.050 Br
BRANCH  12  14
HETATM   14  C3  UNL     1      25.979  -0.745  52.806  1.00  0.00     0.015 C 
HETATM   15  C2  UNL     1      27.239  -0.373  52.967  1.00  0.00    -0.030 C 
HETATM   16  C1  UNL     1      27.475   0.241  54.308  1.00  0.00     0.036 C 
ENDBRANCH  12  14
ENDBRANCH  11  12
ENDBRANCH   1  11
BRANCH   4  17
HETATM   17  O1  UNL     1      21.229   2.529  49.094  1.00  0.00    -0.353 OA
HETATM   18  C10 UNL     1      21.493   1.226  48.604  1.00  0.00     0.210 C 
ENDBRANCH   4  17
BRANCH   5  19
HETATM   19  O2  UNL     1      19.382   4.312  50.061  1.00  0.00    -0.351 OA
HETATM   20  C12 UNL     1      19.552   5.700  49.734  1.00  0.00     0.210 C 
ENDBRANCH   5  19
TORSDOF 5
ENDMDL
MODEL 8
REMARK VINA RESULT:      -5.7      4.420      6.682
REMARK  5 active torsions:
REMARK  status: ('A' for Active; 'I' for Inactive)
REMARK    1  A    between atoms: C3_3  and  C4_4 
REMARK    2  A    between atoms: C4_4  and  C5_6 
REMARK    3  A    between atoms: C5_6  and  C6_7 
REMARK    4  A    between atoms: C9_10  and  O1_11 
REMARK    5  A    between atoms: C11_13  and  O2_14 
ROOT
HETATM    1  C6  UNL     1      25.141   2.520  51.940  1.00  0.00    -0.044 C 
HETATM    2  C7  UNL     1      25.690   3.091  50.746  1.00  0.00     0.067 C 
HETATM    3  C8  UNL     1      24.617   3.281  49.706  1.00  0.00     0.017 C 
HETATM    4  C9  UNL     1      24.042   4.350  49.183  1.00  0.00     0.100 C 
HETATM    5  C11 UNL     1      23.883   5.793  49.093  1.00  0.00     0.132 C 
HETATM    6  C13 UNL     1      24.778   6.014  50.047  1.00  0.00     0.126 C 
HETATM    7  N1  UNL     1      24.228   5.993  51.223  1.00  0.00    -0.237 NA
HETATM    8  C14 UNL     1      23.216   4.974  51.389  1.00  0.00     0.227 C 
HETATM    9  N2  UNL     1      23.053   3.803  51.972  1.00  0.00    -0.279 NA
HETATM   10  C15 UNL     1      24.182   3.233  52.730  1.00  0.00     0.185 C 
ENDROOT
BRANCH   1  11
HETATM   11  C5  UNL     1      25.525   1.304  52.317  1.00  0.00    -0.003 C 
BRANCH  11  12
HETATM   12  C4  UNL     1      25.425   0.084  52.789  1.00  0.00     0.022 C 
HETATM   13 BR1  UNL     1      23.959  -0.497  53.775  1.00  0.00    -0.050 Br
BRANCH  12  14
HETATM   14  C3  UNL     1      26.667  -0.436  52.303  1.00  0.00     0.015 C 
HETATM   15  C2  UNL     1      27.688  -0.457  53.145  1.00  0.00    -0.030 C 
HETATM   16  C1  UNL     1      27.320   0.091  54.485  1.00  0.00     0.036 C 
ENDBRANCH  12  14
ENDBRANCH  11  12
ENDBRANCH   1  11
BRANCH   4  17
HETATM   17  O1  UNL     1      23.033   4.313  48.191  1.00  0.00    -0.353 OA
HETATM   18  C10 UNL     1      22.434   3.045  47.986  1.00  0.00     0.210 C 
ENDBRANCH   4  17
BRANCH   5  19
HETATM   19  O2  UNL     1      23.382   6.998  48.633  1.00  0.00    -0.351 OA
HETATM   20  C12 UNL     1      24.275   7.771  47.817  1.00  0.00     0.210 C 
ENDBRANCH   5  19
TORSDOF 5
ENDMDL
MODEL 9
REMARK VINA RESULT:      -5.6      3.970      6.904
REMARK  5 active torsions:
REMARK  status: ('A' for Active; 'I' for Inactive)
REMARK    1  A    between atoms: C3_3  and  C4_4 
REMARK    2  A    between atoms: C4_4  and  C5_6 
REMARK    3  A    between atoms: C5_6  and  C6_7 
REMARK    4  A    between atoms: C9_10  and  O1_11 
REMARK    5  A    between atoms: C11_13  and  O2_14 
ROOT
HETATM    1  C6  UNL     1      22.680   2.165  51.035  1.00  0.00    -0.044 C 
HETATM    2  C7  UNL     1      22.092   0.901  50.701  1.00  0.00     0.067 C 
HETATM    3  C8  UNL     1      21.504   0.249  51.924  1.00  0.00     0.017 C 
HETATM    4  C9  UNL     1      20.264  -0.004  52.307  1.00  0.00     0.100 C 
HETATM    5  C11 UNL     1      18.828   0.052  52.087  1.00  0.00     0.132 C 
HETATM    6  C13 UNL     1      18.967   0.704  50.940  1.00  0.00     0.126 C 
HETATM    7  N1  UNL     1      19.023   1.987  51.130  1.00  0.00    -0.237 NA
HETATM    8  C14 UNL     1      19.781   2.384  52.295  1.00  0.00     0.227 C 
HETATM    9  N2  UNL     1      20.950   2.911  52.603  1.00  0.00    -0.279 NA
HETATM   10  C15 UNL     1      21.877   3.253  51.509  1.00  0.00     0.185 C 
ENDROOT
BRANCH   1  11
HETATM   11  C5  UNL     1      23.993   2.328  50.908  1.00  0.00    -0.003 C 
BRANCH  11  12
HETATM   12  C4  UNL     1      25.211   2.707  51.214  1.00  0.00     0.022 C 
HETATM   13 BR1  UNL     1      26.418   3.336  49.946  1.00  0.00    -0.050 Br
BRANCH  12  14
HETATM   14  C3  UNL     1      25.164   2.462  52.623  1.00  0.00     0.015 C 
HETATM   15  C2  UNL     1      25.776   1.379  53.072  1.00  0.00    -0.030 C 
HETATM   16  C1  UNL     1      26.417   0.600  51.970  1.00  0.00     0.036 C 
ENDBRANCH  12  14
ENDBRANCH  11  12
ENDBRANCH   1  11
BRANCH   4  17
HETATM   17  O1  UNL     1      19.916  -0.646  53.521  1.00  0.00    -0.353 OA
HETATM   18  C10 UNL     1      20.990  -1.268  54.204  1.00  0.00     0.210 C 
ENDBRANCH   4  17
BRANCH   5  19
HETATM   19  O2  UNL     1      17.485  -0.155  52.347  1.00  0.00    -0.351 OA
HETATM   20  C12 UNL     1      16.709  -0.657  51.249  1.00  0.00     0.210 C 
ENDBRANCH   5  19
TORSDOF 5
ENDMDL
