MODEL 1
REMARK VINA RESULT:      -7.4      0.000      0.000
REMARK  1 active torsions:
REMARK  status: ('A' for Active; 'I' for Inactive)
REMARK    1  A    between atoms: N1_2  and  C2_3 
ROOT
HETATM    1  C2  UNL     1      21.430   1.454  52.234  1.00  0.00     0.263 C 
HETATM    2  C3  UNL     1      22.542   2.387  51.885  1.00  0.00     0.222 C 
HETATM    3  O1  UNL     1      23.207   1.832  50.793  1.00  0.00    -0.384 OA
HETATM    4  C4  UNL     1      24.551   1.743  50.994  1.00  0.00     0.201 C 
HETATM    5  C5  UNL     1      24.986   1.273  52.305  1.00  0.00    -0.058 C 
HETATM    6  C6  UNL     1      26.421   1.625  52.484  1.00  0.00     0.046 C 
HETATM    7  C7  UNL     1      24.517   0.639  53.382  1.00  0.00     0.037 C 
HETATM    8  C8  UNL     1      23.155   0.110  53.638  1.00  0.00     0.071 A 
HETATM    9  N2  UNL     1      23.491  -0.867  54.535  1.00  0.00    -0.241 NA
HETATM   10  C9  UNL     1      22.511  -1.627  55.043  1.00  0.00     0.235 A 
HETATM   11  N3  UNL     1      21.270  -1.419  54.673  1.00  0.00    -0.224 NA
HETATM   12  C10 UNL     1      20.871  -0.478  53.798  1.00  0.00     0.140 A 
HETATM   13  C11 UNL     1      21.832   0.375  53.208  1.00  0.00     0.064 A 
HETATM   14  N4  UNL     1      19.444  -0.742  53.799  1.00  0.00    -0.350 N 
HETATM   15  C12 UNL     1      18.508  -0.511  52.726  1.00  0.00     0.090 C 
HETATM   16  C13 UNL     1      18.535  -0.105  51.457  1.00  0.00     0.020 C 
HETATM   17  C14 UNL     1      19.709   0.285  50.669  1.00  0.00     0.042 C 
HETATM   18  C15 UNL     1      20.870   0.907  50.968  1.00  0.00     0.139 C 
HETATM   19  F1  UNL     1      21.556   0.972  49.771  1.00  0.00    -0.208 F 
HETATM   20  H14 UNL     1      19.035  -1.145  54.661  1.00  0.00     0.166 HD
ENDROOT
BRANCH   1  21
HETATM   21  N1  UNL     1      20.407   2.299  52.880  1.00  0.00     0.102 N 
HETATM   22  C1  UNL     1      20.201   3.505  52.174  1.00  0.00     0.308 C 
HETATM   23  H4  UNL     1      20.756   2.420  53.870  1.00  0.00     0.317 HD
ENDBRANCH   1  21
TORSDOF 1
ENDMDL
MODEL 2
REMARK VINA RESULT:      -7.4      2.584      4.804
REMARK  1 active torsions:
REMARK  status: ('A' for Active; 'I' for Inactive)
REMARK    1  A    between atoms: N1_2  and  C2_3 
ROOT
HETATM    1  C2  UNL     1      22.620   2.169  51.417  1.00  0.00     0.263 C 
HETATM    2  C3  UNL     1      21.560   1.147  51.667  1.00  0.00     0.222 C 
HETATM    3  O1  UNL     1      20.916   1.515  52.847  1.00  0.00    -0.384 OA
HETATM    4  C4  UNL     1      20.848   0.491  53.743  1.00  0.00     0.201 C 
HETATM    5  C5  UNL     1      22.054  -0.316  53.905  1.00  0.00    -0.058 C 
HETATM    6  C6  UNL     1      21.686  -1.590  54.578  1.00  0.00     0.046 C 
HETATM    7  C7  UNL     1      23.363  -0.279  53.646  1.00  0.00     0.037 C 
HETATM    8  C8  UNL     1      24.158   0.789  52.992  1.00  0.00     0.071 A 
HETATM    9  N2  UNL     1      25.369   0.506  53.561  1.00  0.00    -0.241 NA
HETATM   10  C9  UNL     1      26.421   1.270  53.233  1.00  0.00     0.235 A 
HETATM   11  N3  UNL     1      26.264   2.259  52.385  1.00  0.00    -0.224 NA
HETATM   12  C10 UNL     1      25.104   2.591  51.790  1.00  0.00     0.140 A 
HETATM   13  C11 UNL     1      23.938   1.843  52.072  1.00  0.00     0.064 A 
HETATM   14  N4  UNL     1      25.556   3.724  51.003  1.00  0.00    -0.350 N 
HETATM   15  C12 UNL     1      24.782   4.865  50.581  1.00  0.00     0.090 C 
HETATM   16  C13 UNL     1      23.553   5.349  50.757  1.00  0.00     0.020 C 
HETATM   17  C14 UNL     1      22.469   4.764  51.555  1.00  0.00     0.042 C 
HETATM   18  C15 UNL     1      22.087   3.498  51.826  1.00  0.00     0.139 C 
HETATM   19  F1  UNL     1      20.983   3.628  52.646  1.00  0.00    -0.208 F 
HETATM   20  H14 UNL     1      26.548   3.730  50.704  1.00  0.00     0.166 HD
ENDROOT
BRANCH   1  21
HETATM   21  N1  UNL     1      22.820   2.167  49.955  1.00  0.00     0.102 N 
HETATM   22  C1  UNL     1      21.791   1.466  49.287  1.00  0.00     0.308 C 
HETATM   23  H4  UNL     1      23.786   1.762  49.824  1.00  0.00     0.317 HD
ENDBRANCH   1  21
TORSDOF 1
ENDMDL
MODEL 3
REMARK VINA RESULT:      -7.3      2.981      5.543
REMARK  1 active torsions:
REMARK  status: ('A' for Active; 'I' for Inactive)
REMARK    1  A    between atoms: N1_2  and  C2_3 
ROOT
HETATM    1  C2  UNL     1      24.571   2.628  51.937  1.00  0.00     0.263 C 
HETATM    2  C3  UNL     1      24.424   1.927  53.247  1.00  0.00     0.222 C 
HETATM    3  O1  UNL     1      25.065   0.696  53.120  1.00  0.00    -0.384 OA
HETATM    4  C4  UNL     1      24.271  -0.344  53.500  1.00  0.00     0.201 C 
HETATM    5  C5  UNL     1      22.883  -0.304  53.050  1.00  0.00    -0.058 C 
HETATM    6  C6  UNL     1      22.090  -1.259  53.871  1.00  0.00     0.046 C 
HETATM    7  C7  UNL     1      22.106   0.306  52.152  1.00  0.00     0.037 C 
HETATM    8  C8  UNL     1      22.470   1.324  51.137  1.00  0.00     0.071 A 
HETATM    9  N2  UNL     1      21.471   1.069  50.238  1.00  0.00    -0.241 NA
HETATM   10  C9  UNL     1      21.425   1.798  49.114  1.00  0.00     0.235 A 
HETATM   11  N3  UNL     1      22.329   2.726  48.905  1.00  0.00    -0.224 NA
HETATM   12  C10 UNL     1      23.336   3.027  49.745  1.00  0.00     0.140 A 
HETATM   13  C11 UNL     1      23.467   2.313  50.958  1.00  0.00     0.064 A 
HETATM   14  N4  UNL     1      23.971   4.088  48.984  1.00  0.00    -0.350 N 
HETATM   15  C12 UNL     1      25.362   4.469  48.999  1.00  0.00     0.090 C 
HETATM   16  C13 UNL     1      26.498   4.047  49.552  1.00  0.00     0.020 C 
HETATM   17  C14 UNL     1      26.685   2.896  50.442  1.00  0.00     0.042 C 
HETATM   18  C15 UNL     1      25.924   2.320  51.397  1.00  0.00     0.139 C 
HETATM   19  F1  UNL     1      26.681   1.263  51.864  1.00  0.00    -0.208 F 
HETATM   20  H14 UNL     1      23.369   4.644  48.349  1.00  0.00     0.166 HD
ENDROOT
BRANCH   1  21
HETATM   21  N1  UNL     1      24.504   4.066  52.259  1.00  0.00     0.102 N 
HETATM   22  C1  UNL     1      23.398   4.366  53.086  1.00  0.00     0.308 C 
HETATM   23  H4  UNL     1      24.494   4.545  51.318  1.00  0.00     0.317 HD
ENDBRANCH   1  21
TORSDOF 1
ENDMDL
MODEL 4
REMARK VINA RESULT:      -7.2      2.123      3.263
REMARK  1 active torsions:
REMARK  status: ('A' for Active; 'I' for Inactive)
REMARK    1  A    between atoms: N1_2  and  C2_3 
ROOT
HETATM    1  C2  UNL     1      23.207   2.376  51.452  1.00  0.00     0.263 C 
HETATM    2  C3  UNL     1      23.546   3.630  50.716  1.00  0.00     0.222 C 
HETATM    3  O1  UNL     1      23.677   3.286  49.372  1.00  0.00    -0.384 OA
HETATM    4  C4  UNL     1      24.850   3.725  48.835  1.00  0.00     0.201 C 
HETATM    5  C5  UNL     1      26.046   3.552  49.653  1.00  0.00    -0.058 C 
HETATM    6  C6  UNL     1      27.120   4.430  49.114  1.00  0.00     0.046 C 
HETATM    7  C7  UNL     1      26.482   2.870  50.714  1.00  0.00     0.037 C 
HETATM    8  C8  UNL     1      25.757   1.888  51.558  1.00  0.00     0.071 A 
HETATM    9  N2  UNL     1      26.838   1.179  52.003  1.00  0.00    -0.241 NA
HETATM   10  C9  UNL     1      26.624   0.145  52.830  1.00  0.00     0.235 A 
HETATM   11  N3  UNL     1      25.398  -0.156  53.187  1.00  0.00    -0.224 NA
HETATM   12  C10 UNL     1      24.293   0.498  52.787  1.00  0.00     0.140 A 
HETATM   13  C11 UNL     1      24.417   1.603  51.914  1.00  0.00     0.064 A 
HETATM   14  N4  UNL     1      23.289  -0.283  53.486  1.00  0.00    -0.350 N 
HETATM   15  C12 UNL     1      21.918  -0.502  53.095  1.00  0.00     0.090 C 
HETATM   16  C13 UNL     1      21.122  -0.210  52.067  1.00  0.00     0.020 C 
HETATM   17  C14 UNL     1      21.470   0.533  50.851  1.00  0.00     0.042 C 
HETATM   18  C15 UNL     1      22.300   1.566  50.593  1.00  0.00     0.139 C 
HETATM   19  F1  UNL     1      22.171   1.795  49.237  1.00  0.00    -0.208 F 
HETATM   20  H14 UNL     1      23.574  -0.745  54.368  1.00  0.00     0.166 HD
ENDROOT
BRANCH   1  21
HETATM   21  N1  UNL     1      22.461   2.819  52.646  1.00  0.00     0.102 N 
HETATM   22  C1  UNL     1      21.563   3.867  52.343  1.00  0.00     0.308 C 
HETATM   23  H4  UNL     1      23.212   3.070  53.345  1.00  0.00     0.317 HD
ENDBRANCH   1  21
TORSDOF 1
ENDMDL
MODEL 5
REMARK VINA RESULT:      -7.1      1.945      2.456
REMARK  1 active torsions:
REMARK  status: ('A' for Active; 'I' for Inactive)
REMARK    1  A    between atoms: N1_2  and  C2_3 
ROOT
HETATM    1  C2  UNL     1      23.171   2.699  51.200  1.00  0.00     0.263 C 
HETATM    2  C3  UNL     1      24.388   3.530  51.438  1.00  0.00     0.222 C 
HETATM    3  O1  UNL     1      25.346   3.116  50.514  1.00  0.00    -0.384 OA
HETATM    4  C4  UNL     1      26.539   2.817  51.100  1.00  0.00     0.201 C 
HETATM    5  C5  UNL     1      26.482   2.048  52.340  1.00  0.00    -0.058 C 
HETATM    6  C6  UNL     1      27.792   2.170  53.034  1.00  0.00     0.046 C 
HETATM    7  C7  UNL     1      25.644   1.282  53.042  1.00  0.00     0.037 C 
HETATM    8  C8  UNL     1      24.246   0.895  52.732  1.00  0.00     0.071 A 
HETATM    9  N2  UNL     1      24.205  -0.273  53.442  1.00  0.00    -0.241 NA
HETATM   10  C9  UNL     1      23.069  -0.984  53.431  1.00  0.00     0.235 A 
HETATM   11  N3  UNL     1      22.037  -0.549  52.748  1.00  0.00    -0.224 NA
HETATM   12  C10 UNL     1      22.010   0.588  52.029  1.00  0.00     0.140 A 
HETATM   13  C11 UNL     1      23.161   1.408  51.980  1.00  0.00     0.064 A 
HETATM   14  N4  UNL     1      20.651   0.516  51.522  1.00  0.00    -0.350 N 
HETATM   15  C12 UNL     1      20.143   1.070  50.292  1.00  0.00     0.090 C 
HETATM   16  C13 UNL     1      20.616   1.709  49.223  1.00  0.00     0.020 C 
HETATM   17  C14 UNL     1      22.007   2.089  48.952  1.00  0.00     0.042 C 
HETATM   18  C15 UNL     1      23.036   2.485  49.733  1.00  0.00     0.139 C 
HETATM   19  F1  UNL     1      24.085   2.693  48.859  1.00  0.00    -0.208 F 
HETATM   20  H14 UNL     1      19.955   0.009  52.098  1.00  0.00     0.166 HD
ENDROOT
BRANCH   1  21
HETATM   21  N1  UNL     1      22.042   3.526  51.666  1.00  0.00     0.102 N 
HETATM   22  C1  UNL     1      22.486   4.699  52.318  1.00  0.00     0.308 C 
HETATM   23  H4  UNL     1      21.472   2.874  52.271  1.00  0.00     0.317 HD
ENDBRANCH   1  21
TORSDOF 1
ENDMDL
MODEL 6
REMARK VINA RESULT:      -6.8      3.893      5.933
REMARK  1 active torsions:
REMARK  status: ('A' for Active; 'I' for Inactive)
REMARK    1  A    between atoms: N1_2  and  C2_3 
ROOT
HETATM    1  C2  UNL     1      23.330   3.233  50.418  1.00  0.00     0.263 C 
HETATM    2  C3  UNL     1      23.446   1.872  51.022  1.00  0.00     0.222 C 
HETATM    3  O1  UNL     1      23.724   2.054  52.376  1.00  0.00    -0.384 OA
HETATM    4  C4  UNL     1      24.810   1.341  52.784  1.00  0.00     0.201 C 
HETATM    5  C5  UNL     1      25.967   1.348  51.894  1.00  0.00    -0.058 C 
HETATM    6  C6  UNL     1      26.867   0.226  52.277  1.00  0.00     0.046 C 
HETATM    7  C7  UNL     1      26.471   2.026  50.861  1.00  0.00     0.037 C 
HETATM    8  C8  UNL     1      25.916   3.208  50.157  1.00  0.00     0.071 A 
HETATM    9  N2  UNL     1      27.092   3.726  49.689  1.00  0.00    -0.241 NA
HETATM   10  C9  UNL     1      27.047   4.855  48.967  1.00  0.00     0.235 A 
HETATM   11  N3  UNL     1      25.891   5.428  48.731  1.00  0.00    -0.224 NA
HETATM   12  C10 UNL     1      24.700   4.974  49.161  1.00  0.00     0.140 A 
HETATM   13  C11 UNL     1      24.644   3.788  49.929  1.00  0.00     0.064 A 
HETATM   14  N4  UNL     1      23.839   6.002  48.605  1.00  0.00    -0.350 N 
HETATM   15  C12 UNL     1      22.568   6.452  49.117  1.00  0.00     0.090 C 
HETATM   16  C13 UNL     1      21.790   6.230  50.175  1.00  0.00     0.020 C 
HETATM   17  C14 UNL     1      22.048   5.321  51.298  1.00  0.00     0.042 C 
HETATM   18  C15 UNL     1      22.662   4.123  51.407  1.00  0.00     0.139 C 
HETATM   19  F1  UNL     1      22.567   3.796  52.746  1.00  0.00    -0.208 F 
HETATM   20  H14 UNL     1      24.161   6.479  47.744  1.00  0.00     0.166 HD
ENDROOT
BRANCH   1  21
HETATM   21  N1  UNL     1      22.441   3.063  49.253  1.00  0.00     0.102 N 
HETATM   22  C1  UNL     1      22.093   1.708  49.053  1.00  0.00     0.308 C 
HETATM   23  H4  UNL     1      22.970   3.505  48.454  1.00  0.00     0.317 HD
ENDBRANCH   1  21
TORSDOF 1
ENDMDL
MODEL 7
REMARK VINA RESULT:      -6.7     11.982     14.367
REMARK  1 active torsions:
REMARK  status: ('A' for Active; 'I' for Inactive)
REMARK    1  A    between atoms: N1_2  and  C2_3 
ROOT
HETATM    1  C2  UNL     1      33.423   5.645  47.412  1.00  0.00     0.263 C 
HETATM    2  C3  UNL     1      32.712   6.174  48.614  1.00  0.00     0.222 C 
HETATM    3  O1  UNL     1      31.594   5.365  48.809  1.00  0.00    -0.384 OA
HETATM    4  C4  UNL     1      30.445   6.088  48.929  1.00  0.00     0.201 C 
HETATM    5  C5  UNL     1      30.270   7.195  47.994  1.00  0.00    -0.058 C 
HETATM    6  C6  UNL     1      29.207   8.095  48.518  1.00  0.00     0.046 C 
HETATM    7  C7  UNL     1      30.750   7.655  46.837  1.00  0.00     0.037 C 
HETATM    8  C8  UNL     1      31.809   7.083  45.970  1.00  0.00     0.071 A 
HETATM    9  N2  UNL     1      31.401   7.623  44.782  1.00  0.00    -0.241 NA
HETATM   10  C9  UNL     1      32.110   7.345  43.679  1.00  0.00     0.235 A 
HETATM   11  N3  UNL     1      33.165   6.570  43.765  1.00  0.00    -0.224 NA
HETATM   12  C10 UNL     1      33.621   6.007  44.898  1.00  0.00     0.140 A 
HETATM   13  C11 UNL     1      32.940   6.242  46.115  1.00  0.00     0.064 A 
HETATM   14  N4  UNL     1      34.764   5.289  44.364  1.00  0.00    -0.350 N 
HETATM   15  C12 UNL     1      35.354   4.075  44.872  1.00  0.00     0.090 C 
HETATM   16  C13 UNL     1      35.115   3.183  45.833  1.00  0.00     0.020 C 
HETATM   17  C14 UNL     1      34.008   3.184  46.796  1.00  0.00     0.042 C 
HETATM   18  C15 UNL     1      33.325   4.159  47.433  1.00  0.00     0.139 C 
HETATM   19  F1  UNL     1      32.399   3.493  48.212  1.00  0.00    -0.208 F 
HETATM   20  H14 UNL     1      35.219   5.680  43.519  1.00  0.00     0.166 HD
ENDROOT
BRANCH   1  21
HETATM   21  N1  UNL     1      34.835   6.031  47.598  1.00  0.00     0.102 N 
HETATM   22  C1  UNL     1      35.251   5.864  48.938  1.00  0.00     0.308 C 
HETATM   23  H4  UNL     1      34.883   7.024  47.241  1.00  0.00     0.317 HD
ENDBRANCH   1  21
TORSDOF 1
ENDMDL
MODEL 8
REMARK VINA RESULT:      -6.6      8.693     11.224
REMARK  1 active torsions:
REMARK  status: ('A' for Active; 'I' for Inactive)
REMARK    1  A    between atoms: N1_2  and  C2_3 
ROOT
HETATM    1  C2  UNL     1      27.640   8.252  48.116  1.00  0.00     0.263 C 
HETATM    2  C3  UNL     1      26.285   7.644  48.274  1.00  0.00     0.222 C 
HETATM    3  O1  UNL     1      26.074   7.480  49.642  1.00  0.00    -0.384 OA
HETATM    4  C4  UNL     1      25.688   6.212  49.960  1.00  0.00     0.201 C 
HETATM    5  C5  UNL     1      26.403   5.127  49.295  1.00  0.00    -0.058 C 
HETATM    6  C6  UNL     1      25.605   3.879  49.434  1.00  0.00     0.046 C 
HETATM    7  C7  UNL     1      27.526   4.897  48.611  1.00  0.00     0.037 C 
HETATM    8  C8  UNL     1      28.606   5.843  48.240  1.00  0.00     0.071 A 
HETATM    9  N2  UNL     1      29.628   4.940  48.134  1.00  0.00    -0.241 NA
HETATM   10  C9  UNL     1      30.846   5.393  47.803  1.00  0.00     0.235 A 
HETATM   11  N3  UNL     1      31.025   6.675  47.593  1.00  0.00    -0.224 NA
HETATM   12  C10 UNL     1      30.067   7.615  47.680  1.00  0.00     0.140 A 
HETATM   13  C11 UNL     1      28.749   7.235  48.022  1.00  0.00     0.064 A 
HETATM   14  N4  UNL     1      30.856   8.790  47.356  1.00  0.00    -0.350 N 
HETATM   15  C12 UNL     1      30.632  10.146  47.792  1.00  0.00     0.090 C 
HETATM   16  C13 UNL     1      29.803  10.802  48.603  1.00  0.00     0.020 C 
HETATM   17  C14 UNL     1      28.712  10.241  49.409  1.00  0.00     0.042 C 
HETATM   18  C15 UNL     1      27.843   9.224  49.226  1.00  0.00     0.139 C 
HETATM   19  F1  UNL     1      27.064   9.213  50.366  1.00  0.00    -0.208 F 
HETATM   20  H14 UNL     1      31.681   8.654  46.744  1.00  0.00     0.166 HD
ENDROOT
BRANCH   1  21
HETATM   21  N1  UNL     1      27.584   8.991  46.841  1.00  0.00     0.102 N 
HETATM   22  C1  UNL     1      26.553   8.511  46.002  1.00  0.00     0.308 C 
HETATM   23  H4  UNL     1      28.557   8.897  46.441  1.00  0.00     0.317 HD
ENDBRANCH   1  21
TORSDOF 1
ENDMDL
MODEL 9
REMARK VINA RESULT:      -6.5     10.744     13.584
REMARK  1 active torsions:
REMARK  status: ('A' for Active; 'I' for Inactive)
REMARK    1  A    between atoms: N1_2  and  C2_3 
ROOT
HETATM    1  C2  UNL     1      31.111   8.035  46.528  1.00  0.00     0.263 C 
HETATM    2  C3  UNL     1      29.623   7.909  46.509  1.00  0.00     0.222 C 
HETATM    3  O1  UNL     1      29.166   8.340  47.753  1.00  0.00    -0.384 OA
HETATM    4  C4  UNL     1      28.332   7.437  48.341  1.00  0.00     0.201 C 
HETATM    5  C5  UNL     1      28.729   6.035  48.264  1.00  0.00    -0.058 C 
HETATM    6  C6  UNL     1      27.546   5.188  48.575  1.00  0.00     0.046 C 
HETATM    7  C7  UNL     1      29.798   5.277  48.007  1.00  0.00     0.037 C 
HETATM    8  C8  UNL     1      31.177   5.693  47.653  1.00  0.00     0.071 A 
HETATM    9  N2  UNL     1      31.837   4.586  48.108  1.00  0.00    -0.241 NA
HETATM   10  C9  UNL     1      33.172   4.544  47.983  1.00  0.00     0.235 A 
HETATM   11  N3  UNL     1      33.803   5.554  47.434  1.00  0.00    -0.224 NA
HETATM   12  C10 UNL     1      33.217   6.671  46.967  1.00  0.00     0.140 A 
HETATM   13  C11 UNL     1      31.812   6.808  47.053  1.00  0.00     0.064 A 
HETATM   14  N4  UNL     1      34.395   7.384  46.507  1.00  0.00    -0.350 N 
HETATM   15  C12 UNL     1      34.579   8.812  46.419  1.00  0.00     0.090 C 
HETATM   16  C13 UNL     1      33.908   9.919  46.735  1.00  0.00     0.020 C 
HETATM   17  C14 UNL     1      32.585  10.012  47.362  1.00  0.00     0.042 C 
HETATM   18  C15 UNL     1      31.461   9.267  47.287  1.00  0.00     0.139 C 
HETATM   19  F1  UNL     1      30.562   9.895  48.127  1.00  0.00    -0.208 F 
HETATM   20  H14 UNL     1      35.208   6.816  46.208  1.00  0.00     0.166 HD
ENDROOT
BRANCH   1  21
HETATM   21  N1  UNL     1      31.500   8.219  45.117  1.00  0.00     0.102 N 
HETATM   22  C1  UNL     1      30.563   9.008  44.413  1.00  0.00     0.308 C 
HETATM   23  H4  UNL     1      31.615   7.236  44.747  1.00  0.00     0.317 HD
ENDBRANCH   1  21
TORSDOF 1
ENDMDL
