MODEL 1
REMARK VINA RESULT:      -8.3      0.000      0.000
REMARK  7 active torsions:
REMARK  status: ('A' for Active; 'I' for Inactive)
REMARK    1  A    between atoms: O1_2  and  C2_3 
REMARK    2  A    between atoms: C9_12  and  N3_13 
REMARK    3  A    between atoms: N3_13  and  C10_14 
REMARK    4  A    between atoms: C18_23  and  N4_24 
REMARK       I    between atoms: N4_24  and  C19_25 
REMARK    5  A    between atoms: C19_25  and  C20_27 
REMARK    6  A    between atoms: C20_27  and  C21_29 
REMARK    7  A    between atoms: C21_29  and  N5_30 
ROOT
HETATM    1  C2  UNL     1      26.454   1.192  52.559  1.00  0.00     0.092 A 
HETATM    2  C3  UNL     1      26.206   0.010  53.156  1.00  0.00     0.027 A 
HETATM    3  C4  UNL     1      24.881  -0.481  53.537  1.00  0.00     0.087 A 
HETATM    4  C5  UNL     1      24.857  -0.876  54.948  1.00  0.00     0.102 C 
HETATM    5  N1  UNL     1      23.815  -1.300  55.595  1.00  0.00    -0.275 NA
HETATM    6  C6  UNL     1      22.505  -1.466  55.087  1.00  0.00     0.140 C 
HETATM    7  C7  UNL     1      21.992  -0.670  54.132  1.00  0.00     0.089 C 
HETATM    8  C8  UNL     1      20.619  -1.004  53.741  1.00  0.00     0.103 C 
HETATM    9  N2  UNL     1      19.550  -1.265  53.455  1.00  0.00    -0.191 NA
HETATM   10  C9  UNL     1      22.551   0.512  53.430  1.00  0.00     0.062 C 
HETATM   11  C16 UNL     1      23.871   0.546  53.186  1.00  0.00    -0.015 A 
HETATM   12  C17 UNL     1      24.118   1.816  52.530  1.00  0.00     0.043 A 
HETATM   13  C18 UNL     1      25.359   2.127  52.233  1.00  0.00     0.068 A 
ENDROOT
BRANCH  10  14
HETATM   14  N3  UNL     1      21.646   1.542  53.075  1.00  0.00    -0.354 N 
HETATM   15  H8  UNL     1      21.184   2.256  53.710  1.00  0.00     0.166 HD
BRANCH  14  16
HETATM   16  C10 UNL     1      21.236   1.747  51.743  1.00  0.00     0.032 A 
HETATM   17  C11 UNL     1      21.244   0.701  50.812  1.00  0.00     0.032 A 
HETATM   18  C12 UNL     1      20.830   1.038  49.554  1.00  0.00     0.044 A 
HETATM   19  C13 UNL     1      20.430   2.305  49.205  1.00  0.00     0.116 A 
HETATM   20  F1  UNL     1      20.021   2.648  47.954  1.00  0.00    -0.206 F 
HETATM   21  C14 UNL     1      20.427   3.335  50.143  1.00  0.00     0.044 A 
HETATM   22  C15 UNL     1      20.843   3.028  51.436  1.00  0.00     0.032 A 
ENDBRANCH  14  16
ENDBRANCH  10  14
BRANCH  13  23
HETATM   23  N4  UNL     1      25.908   3.266  51.597  1.00  0.00    -0.323 N 
HETATM   24  C19 UNL     1      25.482   3.738  50.337  1.00  0.00     0.242 C 
HETATM   25  O2  UNL     1      24.573   3.233  49.589  1.00  0.00    -0.271 OA
HETATM   26  H14 UNL     1      26.666   3.812  52.056  1.00  0.00     0.169 HD
BRANCH  24  27
HETATM   27  C20 UNL     1      26.126   4.962  49.738  1.00  0.00     0.202 C 
HETATM   28 CL1  UNL     1      27.444   4.419  48.691  1.00  0.00    -0.113 Cl
BRANCH  27  29
HETATM   29  C21 UNL     1      25.156   5.772  48.944  1.00  0.00     0.301 C 
BRANCH  29  30
HETATM   30  N5  UNL     1      24.859   7.067  49.459  1.00  0.00     0.081 N 
HETATM   31  C22 UNL     1      25.988   7.734  50.072  1.00  0.00     0.309 C 
HETATM   32  C23 UNL     1      23.673   7.163  50.260  1.00  0.00     0.309 C 
ENDBRANCH  29  30
ENDBRANCH  27  29
ENDBRANCH  24  27
ENDBRANCH  13  23
BRANCH   1  33
HETATM   33  O1  UNL     1      27.814   1.278  52.364  1.00  0.00    -0.354 OA
HETATM   34  C1  UNL     1      28.680   1.091  53.468  1.00  0.00     0.210 C 
ENDBRANCH   1  33
TORSDOF 7
ENDMDL
MODEL 2
REMARK VINA RESULT:      -8.1      3.188      6.495
REMARK  7 active torsions:
REMARK  status: ('A' for Active; 'I' for Inactive)
REMARK    1  A    between atoms: O1_2  and  C2_3 
REMARK    2  A    between atoms: C9_12  and  N3_13 
REMARK    3  A    between atoms: N3_13  and  C10_14 
REMARK    4  A    between atoms: C18_23  and  N4_24 
REMARK       I    between atoms: N4_24  and  C19_25 
REMARK    5  A    between atoms: C19_25  and  C20_27 
REMARK    6  A    between atoms: C20_27  and  C21_29 
REMARK    7  A    between atoms: C21_29  and  N5_30 
ROOT
HETATM    1  C2  UNL     1      22.158   0.600  53.184  1.00  0.00     0.092 A 
HETATM    2  C3  UNL     1      20.933   0.960  52.755  1.00  0.00     0.027 A 
HETATM    3  C4  UNL     1      20.660   1.759  51.559  1.00  0.00     0.087 A 
HETATM    4  C5  UNL     1      19.811   2.909  51.882  1.00  0.00     0.102 C 
HETATM    5  N1  UNL     1      19.441   3.832  51.049  1.00  0.00    -0.275 NA
HETATM    6  C6  UNL     1      19.770   3.922  49.676  1.00  0.00     0.140 C 
HETATM    7  C7  UNL     1      20.946   3.493  49.183  1.00  0.00     0.089 C 
HETATM    8  C8  UNL     1      21.097   3.675  47.736  1.00  0.00     0.103 C 
HETATM    9  N2  UNL     1      21.207   3.833  46.616  1.00  0.00    -0.191 NA
HETATM   10  C9  UNL     1      22.137   2.905  49.847  1.00  0.00     0.062 C 
HETATM   11  C16 UNL     1      21.948   2.125  50.923  1.00  0.00    -0.015 A 
HETATM   12  C17 UNL     1      23.274   1.733  51.362  1.00  0.00     0.043 A 
HETATM   13  C18 UNL     1      23.374   1.003  52.450  1.00  0.00     0.068 A 
ENDROOT
BRANCH  10  14
HETATM   14  N3  UNL     1      23.404   3.222  49.302  1.00  0.00    -0.354 N 
HETATM   15  H8  UNL     1      23.976   2.662  48.604  1.00  0.00     0.166 HD
BRANCH  14  16
HETATM   16  C10 UNL     1      24.089   4.404  49.647  1.00  0.00     0.032 A 
HETATM   17  C11 UNL     1      23.503   5.366  50.478  1.00  0.00     0.032 A 
HETATM   18  C12 UNL     1      24.273   6.467  50.727  1.00  0.00     0.044 A 
HETATM   19  C13 UNL     1      25.534   6.639  50.211  1.00  0.00     0.116 A 
HETATM   20  F1  UNL     1      26.304   7.734  50.451  1.00  0.00    -0.206 F 
HETATM   21  C14 UNL     1      26.105   5.671  49.386  1.00  0.00     0.044 A 
HETATM   22  C15 UNL     1      25.348   4.535  49.111  1.00  0.00     0.032 A 
ENDBRANCH  14  16
ENDBRANCH  10  14
BRANCH  13  23
HETATM   23  N4  UNL     1      24.504   0.468  53.113  1.00  0.00    -0.323 N 
HETATM   24  C19 UNL     1      25.487   1.260  53.743  1.00  0.00     0.242 C 
HETATM   25  O2  UNL     1      25.523   2.539  53.811  1.00  0.00    -0.271 OA
HETATM   26  H14 UNL     1      24.648  -0.562  53.162  1.00  0.00     0.169 HD
BRANCH  24  27
HETATM   27  C20 UNL     1      26.657   0.601  54.426  1.00  0.00     0.202 C 
HETATM   28 CL1  UNL     1      26.015  -0.515  55.639  1.00  0.00    -0.113 Cl
BRANCH  27  29
HETATM   29  C21 UNL     1      27.519  -0.145  53.464  1.00  0.00     0.301 C 
BRANCH  29  30
HETATM   30  N5  UNL     1      28.893   0.233  53.436  1.00  0.00     0.081 N 
HETATM   31  C22 UNL     1      29.814  -0.870  53.609  1.00  0.00     0.309 C 
HETATM   32  C23 UNL     1      29.245   1.365  54.244  1.00  0.00     0.309 C 
ENDBRANCH  29  30
ENDBRANCH  27  29
ENDBRANCH  24  27
ENDBRANCH  13  23
BRANCH   1  33
HETATM   33  O1  UNL     1      21.990  -0.143  54.331  1.00  0.00    -0.354 OA
HETATM   34  C1  UNL     1      21.341  -1.399  54.248  1.00  0.00     0.210 C 
ENDBRANCH   1  33
TORSDOF 7
ENDMDL
MODEL 3
REMARK VINA RESULT:      -7.7      2.731      5.408
REMARK  7 active torsions:
REMARK  status: ('A' for Active; 'I' for Inactive)
REMARK    1  A    between atoms: O1_2  and  C2_3 
REMARK    2  A    between atoms: C9_12  and  N3_13 
REMARK    3  A    between atoms: N3_13  and  C10_14 
REMARK    4  A    between atoms: C18_23  and  N4_24 
REMARK       I    between atoms: N4_24  and  C19_25 
REMARK    5  A    between atoms: C19_25  and  C20_27 
REMARK    6  A    between atoms: C20_27  and  C21_29 
REMARK    7  A    between atoms: C21_29  and  N5_30 
ROOT
HETATM    1  C2  UNL     1      23.096   4.928  48.300  1.00  0.00     0.092 A 
HETATM    2  C3  UNL     1      22.062   4.073  48.180  1.00  0.00     0.027 A 
HETATM    3  C4  UNL     1      21.696   3.049  49.160  1.00  0.00     0.087 A 
HETATM    4  C5  UNL     1      21.587   1.733  48.525  1.00  0.00     0.102 C 
HETATM    5  N1  UNL     1      21.331   0.618  49.136  1.00  0.00    -0.275 NA
HETATM    6  C6  UNL     1      21.108   0.438  50.522  1.00  0.00     0.140 C 
HETATM    7  C7  UNL     1      21.716   1.189  51.457  1.00  0.00     0.089 C 
HETATM    8  C8  UNL     1      21.354   0.847  52.836  1.00  0.00     0.103 C 
HETATM    9  N2  UNL     1      21.075   0.564  53.901  1.00  0.00    -0.191 NA
HETATM   10  C9  UNL     1      22.721   2.277  51.347  1.00  0.00     0.062 C 
HETATM   11  C16 UNL     1      22.665   3.092  50.282  1.00  0.00    -0.015 A 
HETATM   12  C17 UNL     1      23.774   4.016  50.435  1.00  0.00     0.043 A 
HETATM   13  C18 UNL     1      23.982   4.894  49.481  1.00  0.00     0.068 A 
ENDROOT
BRANCH  10  14
HETATM   14  N3  UNL     1      23.687   2.372  52.377  1.00  0.00    -0.354 N 
HETATM   15  H8  UNL     1      23.756   3.102  53.146  1.00  0.00     0.166 HD
BRANCH  14  16
HETATM   16  C10 UNL     1      24.734   1.438  52.506  1.00  0.00     0.032 A 
HETATM   17  C11 UNL     1      24.654   0.381  53.421  1.00  0.00     0.032 A 
HETATM   18  C12 UNL     1      25.740  -0.447  53.449  1.00  0.00     0.044 A 
HETATM   19  C13 UNL     1      26.841  -0.276  52.646  1.00  0.00     0.116 A 
HETATM   20  F1  UNL     1      27.928  -1.094  52.673  1.00  0.00    -0.206 F 
HETATM   21  C14 UNL     1      26.905   0.780  51.739  1.00  0.00     0.044 A 
HETATM   22  C15 UNL     1      25.816   1.645  51.683  1.00  0.00     0.032 A 
ENDBRANCH  14  16
ENDBRANCH  10  14
BRANCH  13  23
HETATM   23  N4  UNL     1      24.957   5.912  49.346  1.00  0.00    -0.323 N 
HETATM   24  C19 UNL     1      26.299   5.663  48.988  1.00  0.00     0.242 C 
HETATM   25  O2  UNL     1      26.837   4.527  48.742  1.00  0.00    -0.271 OA
HETATM   26  H14 UNL     1      24.705   6.908  49.509  1.00  0.00     0.169 HD
BRANCH  24  27
HETATM   27  C20 UNL     1      27.268   6.812  48.869  1.00  0.00     0.202 C 
HETATM   28 CL1  UNL     1      28.662   6.245  47.940  1.00  0.00    -0.113 Cl
BRANCH  27  29
HETATM   29  C21 UNL     1      26.657   7.990  48.188  1.00  0.00     0.301 C 
BRANCH  29  30
HETATM   30  N5  UNL     1      26.815   9.243  48.850  1.00  0.00     0.081 N 
HETATM   31  C22 UNL     1      27.483  10.252  48.056  1.00  0.00     0.309 C 
HETATM   32  C23 UNL     1      27.326   9.180  50.189  1.00  0.00     0.309 C 
ENDBRANCH  29  30
ENDBRANCH  27  29
ENDBRANCH  24  27
ENDBRANCH  13  23
BRANCH   1  33
HETATM   33  O1  UNL     1      23.100   5.728  47.180  1.00  0.00    -0.354 OA
HETATM   34  C1  UNL     1      22.067   5.578  46.224  1.00  0.00     0.210 C 
ENDBRANCH   1  33
TORSDOF 7
ENDMDL
MODEL 4
REMARK VINA RESULT:      -7.6      2.742      6.584
REMARK  7 active torsions:
REMARK  status: ('A' for Active; 'I' for Inactive)
REMARK    1  A    between atoms: O1_2  and  C2_3 
REMARK    2  A    between atoms: C9_12  and  N3_13 
REMARK    3  A    between atoms: N3_13  and  C10_14 
REMARK    4  A    between atoms: C18_23  and  N4_24 
REMARK       I    between atoms: N4_24  and  C19_25 
REMARK    5  A    between atoms: C19_25  and  C20_27 
REMARK    6  A    between atoms: C20_27  and  C21_29 
REMARK    7  A    between atoms: C21_29  and  N5_30 
ROOT
HETATM    1  C2  UNL     1      25.113   1.089  52.299  1.00  0.00     0.092 A 
HETATM    2  C3  UNL     1      26.148   1.704  51.695  1.00  0.00     0.027 A 
HETATM    3  C4  UNL     1      26.114   3.055  51.132  1.00  0.00     0.087 A 
HETATM    4  C5  UNL     1      26.575   3.052  49.741  1.00  0.00     0.102 C 
HETATM    5  N1  UNL     1      26.609   4.084  48.955  1.00  0.00    -0.275 NA
HETATM    6  C6  UNL     1      26.216   5.407  49.268  1.00  0.00     0.140 C 
HETATM    7  C7  UNL     1      25.214   5.682  50.122  1.00  0.00     0.089 C 
HETATM    8  C8  UNL     1      24.959   7.113  50.314  1.00  0.00     0.103 C 
HETATM    9  N2  UNL     1      24.763   8.225  50.444  1.00  0.00    -0.191 NA
HETATM   10  C9  UNL     1      24.291   4.797  50.876  1.00  0.00     0.062 C 
HETATM   11  C16 UNL     1      24.753   3.614  51.311  1.00  0.00    -0.015 A 
HETATM   12  C17 UNL     1      23.631   2.972  51.972  1.00  0.00     0.043 A 
HETATM   13  C18 UNL     1      23.805   1.758  52.442  1.00  0.00     0.068 A 
ENDROOT
BRANCH  10  14
HETATM   14  N3  UNL     1      22.968   5.260  51.074  1.00  0.00    -0.354 N 
HETATM   15  H8  UNL     1      22.548   5.690  51.951  1.00  0.00     0.166 HD
BRANCH  14  16
HETATM   16  C10 UNL     1      21.997   5.203  50.055  1.00  0.00     0.032 A 
HETATM   17  C11 UNL     1      22.257   4.554  48.842  1.00  0.00     0.032 A 
HETATM   18  C12 UNL     1      21.233   4.580  47.937  1.00  0.00     0.044 A 
HETATM   19  C13 UNL     1      20.027   5.190  48.179  1.00  0.00     0.116 A 
HETATM   20  F1  UNL     1      19.006   5.224  47.281  1.00  0.00    -0.206 F 
HETATM   21  C14 UNL     1      19.783   5.832  49.392  1.00  0.00     0.044 A 
HETATM   22  C15 UNL     1      20.805   5.826  50.338  1.00  0.00     0.032 A 
ENDBRANCH  14  16
ENDBRANCH  10  14
BRANCH  13  23
HETATM   23  N4  UNL     1      22.922   0.890  53.130  1.00  0.00    -0.323 N 
HETATM   24  C19 UNL     1      21.912   0.140  52.492  1.00  0.00     0.242 C 
HETATM   25  O2  UNL     1      21.632   0.125  51.241  1.00  0.00    -0.271 OA
HETATM   26  H14 UNL     1      22.997   0.771  54.161  1.00  0.00     0.169 HD
BRANCH  24  27
HETATM   27  C20 UNL     1      21.019  -0.760  53.306  1.00  0.00     0.202 C 
HETATM   28 CL1  UNL     1      21.732  -0.911  54.918  1.00  0.00    -0.113 Cl
BRANCH  27  29
HETATM   29  C21 UNL     1      19.633  -0.220  53.419  1.00  0.00     0.301 C 
BRANCH  29  30
HETATM   30  N5  UNL     1      18.642  -0.880  52.636  1.00  0.00     0.081 N 
HETATM   31  C22 UNL     1      18.058  -0.054  51.600  1.00  0.00     0.309 C 
HETATM   32  C23 UNL     1      17.649  -1.609  53.372  1.00  0.00     0.309 C 
ENDBRANCH  29  30
ENDBRANCH  27  29
ENDBRANCH  24  27
ENDBRANCH  13  23
BRANCH   1  33
HETATM   33  O1  UNL     1      25.546  -0.158  52.690  1.00  0.00    -0.354 OA
HETATM   34  C1  UNL     1      26.887  -0.318  53.115  1.00  0.00     0.210 C 
ENDBRANCH   1  33
TORSDOF 7
ENDMDL
MODEL 5
REMARK VINA RESULT:      -7.6      3.775      8.612
REMARK  7 active torsions:
REMARK  status: ('A' for Active; 'I' for Inactive)
REMARK    1  A    between atoms: O1_2  and  C2_3 
REMARK    2  A    between atoms: C9_12  and  N3_13 
REMARK    3  A    between atoms: N3_13  and  C10_14 
REMARK    4  A    between atoms: C18_23  and  N4_24 
REMARK       I    between atoms: N4_24  and  C19_25 
REMARK    5  A    between atoms: C19_25  and  C20_27 
REMARK    6  A    between atoms: C20_27  and  C21_29 
REMARK    7  A    between atoms: C21_29  and  N5_30 
ROOT
HETATM    1  C2  UNL     1      22.562   4.791  51.684  1.00  0.00     0.092 A 
HETATM    2  C3  UNL     1      21.780   5.653  51.006  1.00  0.00     0.027 A 
HETATM    3  C4  UNL     1      22.216   6.480  49.879  1.00  0.00     0.087 A 
HETATM    4  C5  UNL     1      21.888   7.890  50.109  1.00  0.00     0.102 C 
HETATM    5  N1  UNL     1      22.193   8.874  49.321  1.00  0.00    -0.275 NA
HETATM    6  C6  UNL     1      22.894   8.798  48.094  1.00  0.00     0.140 C 
HETATM    7  C7  UNL     1      23.858   7.888  47.866  1.00  0.00     0.089 C 
HETATM    8  C8  UNL     1      24.465   7.972  46.534  1.00  0.00     0.103 C 
HETATM    9  N2  UNL     1      24.936   8.055  45.502  1.00  0.00    -0.191 NA
HETATM   10  C9  UNL     1      24.449   6.839  48.735  1.00  0.00     0.062 C 
HETATM   11  C16 UNL     1      23.656   6.233  49.633  1.00  0.00    -0.015 A 
HETATM   12  C17 UNL     1      24.510   5.298  50.343  1.00  0.00     0.043 A 
HETATM   13  C18 UNL     1      23.984   4.609  51.329  1.00  0.00     0.068 A 
ENDROOT
BRANCH  10  14
HETATM   14  N3  UNL     1      25.826   6.558  48.565  1.00  0.00    -0.354 N 
HETATM   15  H8  UNL     1      26.272   5.672  48.187  1.00  0.00     0.166 HD
BRANCH  14  16
HETATM   16  C10 UNL     1      26.825   7.494  48.898  1.00  0.00     0.032 A 
HETATM   17  C11 UNL     1      26.631   8.428  49.924  1.00  0.00     0.032 A 
HETATM   18  C12 UNL     1      27.676   9.282  50.138  1.00  0.00     0.044 A 
HETATM   19  C13 UNL     1      28.841   9.246  49.413  1.00  0.00     0.116 A 
HETATM   20  F1  UNL     1      29.883  10.096  49.618  1.00  0.00    -0.206 F 
HETATM   21  C14 UNL     1      29.020   8.310  48.396  1.00  0.00     0.044 A 
HETATM   22  C15 UNL     1      27.975   7.423  48.149  1.00  0.00     0.032 A 
ENDBRANCH  14  16
ENDBRANCH  10  14
BRANCH  13  23
HETATM   23  N4  UNL     1      24.545   3.634  52.189  1.00  0.00    -0.323 N 
HETATM   24  C19 UNL     1      24.447   2.245  51.961  1.00  0.00     0.242 C 
HETATM   25  O2  UNL     1      23.855   1.660  50.986  1.00  0.00    -0.271 OA
HETATM   26  H14 UNL     1      25.067   3.921  53.041  1.00  0.00     0.169 HD
BRANCH  24  27
HETATM   27  C20 UNL     1      25.077   1.279  52.932  1.00  0.00     0.202 C 
HETATM   28 CL1  UNL     1      23.886   0.023  53.293  1.00  0.00    -0.113 Cl
BRANCH  27  29
HETATM   29  C21 UNL     1      26.313   0.654  52.376  1.00  0.00     0.301 C 
BRANCH  29  30
HETATM   30  N5  UNL     1      27.506   0.857  53.129  1.00  0.00     0.081 N 
HETATM   31  C22 UNL     1      27.527   0.169  54.402  1.00  0.00     0.309 C 
HETATM   32  C23 UNL     1      27.950   2.217  53.240  1.00  0.00     0.309 C 
ENDBRANCH  29  30
ENDBRANCH  27  29
ENDBRANCH  24  27
ENDBRANCH  13  23
BRANCH   1  33
HETATM   33  O1  UNL     1      21.784   4.209  52.659  1.00  0.00    -0.354 OA
HETATM   34  C1  UNL     1      20.740   3.334  52.274  1.00  0.00     0.210 C 
ENDBRANCH   1  33
TORSDOF 7
ENDMDL
MODEL 6
REMARK VINA RESULT:      -7.5      3.726      6.748
REMARK  7 active torsions:
REMARK  status: ('A' for Active; 'I' for Inactive)
REMARK    1  A    between atoms: O1_2  and  C2_3 
REMARK    2  A    between atoms: C9_12  and  N3_13 
REMARK    3  A    between atoms: N3_13  and  C10_14 
REMARK    4  A    between atoms: C18_23  and  N4_24 
REMARK       I    between atoms: N4_24  and  C19_25 
REMARK    5  A    between atoms: C19_25  and  C20_27 
REMARK    6  A    between atoms: C20_27  and  C21_29 
REMARK    7  A    between atoms: C21_29  and  N5_30 
ROOT
HETATM    1  C2  UNL     1      22.257  -0.150  53.490  1.00  0.00     0.092 A 
HETATM    2  C3  UNL     1      23.555   0.204  53.565  1.00  0.00     0.027 A 
HETATM    3  C4  UNL     1      24.156   1.353  52.886  1.00  0.00     0.087 A 
HETATM    4  C5  UNL     1      25.326   0.943  52.104  1.00  0.00     0.102 C 
HETATM    5  N1  UNL     1      26.040   1.721  51.349  1.00  0.00    -0.275 NA
HETATM    6  C6  UNL     1      25.844   3.104  51.124  1.00  0.00     0.140 C 
HETATM    7  C7  UNL     1      24.624   3.670  51.113  1.00  0.00     0.089 C 
HETATM    8  C8  UNL     1      24.632   5.115  50.862  1.00  0.00     0.103 C 
HETATM    9  N2  UNL     1      24.650   6.232  50.654  1.00  0.00    -0.191 NA
HETATM   10  C9  UNL     1      23.267   3.090  51.268  1.00  0.00     0.062 C 
HETATM   11  C16 UNL     1      23.112   2.037  52.086  1.00  0.00    -0.015 A 
HETATM   12  C17 UNL     1      21.708   1.680  52.006  1.00  0.00     0.043 A 
HETATM   13  C18 UNL     1      21.299   0.627  52.678  1.00  0.00     0.068 A 
ENDROOT
BRANCH  10  14
HETATM   14  N3  UNL     1      22.220   3.684  50.523  1.00  0.00    -0.354 N 
HETATM   15  H8  UNL     1      21.403   4.259  50.884  1.00  0.00     0.166 HD
BRANCH  14  16
HETATM   16  C10 UNL     1      22.148   3.575  49.120  1.00  0.00     0.032 A 
HETATM   17  C11 UNL     1      22.425   2.366  48.472  1.00  0.00     0.032 A 
HETATM   18  C12 UNL     1      22.326   2.400  47.109  1.00  0.00     0.044 A 
HETATM   19  C13 UNL     1      21.979   3.527  46.406  1.00  0.00     0.116 A 
HETATM   20  F1  UNL     1      21.883   3.568  45.049  1.00  0.00    -0.206 F 
HETATM   21  C14 UNL     1      21.704   4.723  47.066  1.00  0.00     0.044 A 
HETATM   22  C15 UNL     1      21.796   4.726  48.455  1.00  0.00     0.032 A 
ENDBRANCH  14  16
ENDBRANCH  10  14
BRANCH  13  23
HETATM   23  N4  UNL     1      20.016   0.042  52.805  1.00  0.00    -0.323 N 
HETATM   24  C19 UNL     1      19.076  -0.010  51.754  1.00  0.00     0.242 C 
HETATM   25  O2  UNL     1      19.216   0.448  50.566  1.00  0.00    -0.271 OA
HETATM   26  H14 UNL     1      19.719  -0.385  53.705  1.00  0.00     0.169 HD
BRANCH  24  27
HETATM   27  C20 UNL     1      17.732  -0.654  51.981  1.00  0.00     0.202 C 
HETATM   28 CL1  UNL     1      17.809  -1.532  53.515  1.00  0.00    -0.113 Cl
BRANCH  27  29
HETATM   29  C21 UNL     1      16.632   0.351  52.032  1.00  0.00     0.301 C 
BRANCH  29  30
HETATM   30  N5  UNL     1      15.674   0.280  50.978  1.00  0.00     0.081 N 
HETATM   31  C22 UNL     1      15.516  -1.042  50.410  1.00  0.00     0.309 C 
HETATM   32  C23 UNL     1      15.782   1.294  49.969  1.00  0.00     0.309 C 
ENDBRANCH  29  30
ENDBRANCH  27  29
ENDBRANCH  24  27
ENDBRANCH  13  23
BRANCH   1  33
HETATM   33  O1  UNL     1      22.091  -1.273  54.267  1.00  0.00    -0.354 OA
HETATM   34  C1  UNL     1      22.907  -1.445  55.411  1.00  0.00     0.210 C 
ENDBRANCH   1  33
TORSDOF 7
ENDMDL
MODEL 7
REMARK VINA RESULT:      -7.4      4.106      8.357
REMARK  7 active torsions:
REMARK  status: ('A' for Active; 'I' for Inactive)
REMARK    1  A    between atoms: O1_2  and  C2_3 
REMARK    2  A    between atoms: C9_12  and  N3_13 
REMARK    3  A    between atoms: N3_13  and  C10_14 
REMARK    4  A    between atoms: C18_23  and  N4_24 
REMARK       I    between atoms: N4_24  and  C19_25 
REMARK    5  A    between atoms: C19_25  and  C20_27 
REMARK    6  A    between atoms: C20_27  and  C21_29 
REMARK    7  A    between atoms: C21_29  and  N5_30 
ROOT
HETATM    1  C2  UNL     1      20.647   5.639  49.643  1.00  0.00     0.092 A 
HETATM    2  C3  UNL     1      21.492   6.674  49.473  1.00  0.00     0.027 A 
HETATM    3  C4  UNL     1      22.952   6.573  49.428  1.00  0.00     0.087 A 
HETATM    4  C5  UNL     1      23.569   7.496  50.384  1.00  0.00     0.102 C 
HETATM    5  N1  UNL     1      24.841   7.602  50.618  1.00  0.00    -0.275 NA
HETATM    6  C6  UNL     1      25.883   6.863  50.011  1.00  0.00     0.140 C 
HETATM    7  C7  UNL     1      25.731   5.586  49.616  1.00  0.00     0.089 C 
HETATM    8  C8  UNL     1      26.928   4.994  49.010  1.00  0.00     0.103 C 
HETATM    9  N2  UNL     1      27.866   4.543  48.554  1.00  0.00    -0.191 NA
HETATM   10  C9  UNL     1      24.581   4.653  49.720  1.00  0.00     0.062 C 
HETATM   11  C16 UNL     1      23.340   5.156  49.628  1.00  0.00    -0.015 A 
HETATM   12  C17 UNL     1      22.444   4.027  49.797  1.00  0.00     0.043 A 
HETATM   13  C18 UNL     1      21.151   4.261  49.807  1.00  0.00     0.068 A 
ENDROOT
BRANCH  10  14
HETATM   14  N3  UNL     1      24.875   3.283  49.926  1.00  0.00    -0.354 N 
HETATM   15  H8  UNL     1      24.814   2.487  49.225  1.00  0.00     0.166 HD
BRANCH  14  16
HETATM   16  C10 UNL     1      25.319   2.795  51.170  1.00  0.00     0.032 A 
HETATM   17  C11 UNL     1      24.561   2.976  52.333  1.00  0.00     0.032 A 
HETATM   18  C12 UNL     1      25.111   2.460  53.472  1.00  0.00     0.044 A 
HETATM   19  C13 UNL     1      26.318   1.806  53.499  1.00  0.00     0.116 A 
HETATM   20  F1  UNL     1      26.873   1.294  54.631  1.00  0.00    -0.206 F 
HETATM   21  C14 UNL     1      27.061   1.632  52.333  1.00  0.00     0.044 A 
HETATM   22  C15 UNL     1      26.531   2.146  51.151  1.00  0.00     0.032 A 
ENDBRANCH  14  16
ENDBRANCH  10  14
BRANCH  13  23
HETATM   23  N4  UNL     1      20.047   3.385  49.942  1.00  0.00    -0.323 N 
HETATM   24  C19 UNL     1      19.467   3.047  51.183  1.00  0.00     0.242 C 
HETATM   25  O2  UNL     1      19.832   3.450  52.344  1.00  0.00    -0.271 OA
HETATM   26  H14 UNL     1      19.611   2.954  49.102  1.00  0.00     0.169 HD
BRANCH  24  27
HETATM   27  C20 UNL     1      18.291   2.106  51.230  1.00  0.00     0.202 C 
HETATM   28 CL1  UNL     1      16.817   3.084  51.206  1.00  0.00    -0.113 Cl
BRANCH  27  29
HETATM   29  C21 UNL     1      18.285   1.161  50.076  1.00  0.00     0.301 C 
BRANCH  29  30
HETATM   30  N5  UNL     1      17.712  -0.121  50.324  1.00  0.00     0.081 N 
HETATM   31  C22 UNL     1      16.499  -0.382  49.578  1.00  0.00     0.309 C 
HETATM   32  C23 UNL     1      17.591  -0.494  51.704  1.00  0.00     0.309 C 
ENDBRANCH  29  30
ENDBRANCH  27  29
ENDBRANCH  24  27
ENDBRANCH  13  23
BRANCH   1  33
HETATM   33  O1  UNL     1      19.367   6.144  49.624  1.00  0.00    -0.354 OA
HETATM   34  C1  UNL     1      19.017   7.090  48.631  1.00  0.00     0.210 C 
ENDBRANCH   1  33
TORSDOF 7
ENDMDL
MODEL 8
REMARK VINA RESULT:      -7.3      2.371      4.006
REMARK  7 active torsions:
REMARK  status: ('A' for Active; 'I' for Inactive)
REMARK    1  A    between atoms: O1_2  and  C2_3 
REMARK    2  A    between atoms: C9_12  and  N3_13 
REMARK    3  A    between atoms: N3_13  and  C10_14 
REMARK    4  A    between atoms: C18_23  and  N4_24 
REMARK       I    between atoms: N4_24  and  C19_25 
REMARK    5  A    between atoms: C19_25  and  C20_27 
REMARK    6  A    between atoms: C20_27  and  C21_29 
REMARK    7  A    between atoms: C21_29  and  N5_30 
ROOT
HETATM    1  C2  UNL     1      25.912   4.566  49.456  1.00  0.00     0.092 A 
HETATM    2  C3  UNL     1      26.684   3.548  49.884  1.00  0.00     0.027 A 
HETATM    3  C4  UNL     1      26.265   2.511  50.828  1.00  0.00     0.087 A 
HETATM    4  C5  UNL     1      27.212   2.405  51.941  1.00  0.00     0.102 C 
HETATM    5  N1  UNL     1      27.089   1.617  52.965  1.00  0.00    -0.275 NA
HETATM    6  C6  UNL     1      26.034   0.710  53.219  1.00  0.00     0.140 C 
HETATM    7  C7  UNL     1      24.766   0.947  52.838  1.00  0.00     0.089 C 
HETATM    8  C8  UNL     1      23.819  -0.114  53.195  1.00  0.00     0.103 C 
HETATM    9  N2  UNL     1      23.093  -0.937  53.488  1.00  0.00    -0.191 NA
HETATM   10  C9  UNL     1      24.144   2.110  52.156  1.00  0.00     0.062 C 
HETATM   11  C16 UNL     1      24.871   2.785  51.252  1.00  0.00    -0.015 A 
HETATM   12  C17 UNL     1      24.021   3.866  50.790  1.00  0.00     0.043 A 
HETATM   13  C18 UNL     1      24.523   4.723  49.931  1.00  0.00     0.068 A 
ENDROOT
BRANCH  10  14
HETATM   14  N3  UNL     1      22.816   2.439  52.521  1.00  0.00    -0.354 N 
HETATM   15  H8  UNL     1      22.490   3.163  53.226  1.00  0.00     0.166 HD
BRANCH  14  16
HETATM   16  C10 UNL     1      21.703   1.800  51.940  1.00  0.00     0.032 A 
HETATM   17  C11 UNL     1      21.753   1.303  50.632  1.00  0.00     0.032 A 
HETATM   18  C12 UNL     1      20.603   0.712  50.190  1.00  0.00     0.044 A 
HETATM   19  C13 UNL     1      19.468   0.602  50.955  1.00  0.00     0.116 A 
HETATM   20  F1  UNL     1      18.318   0.020  50.519  1.00  0.00    -0.206 F 
HETATM   21  C14 UNL     1      19.434   1.101  52.256  1.00  0.00     0.044 A 
HETATM   22  C15 UNL     1      20.589   1.710  52.741  1.00  0.00     0.032 A 
ENDBRANCH  14  16
ENDBRANCH  10  14
BRANCH  13  23
HETATM   23  N4  UNL     1      23.953   5.855  49.301  1.00  0.00    -0.323 N 
HETATM   24  C19 UNL     1      23.774   7.098  49.946  1.00  0.00     0.242 C 
HETATM   25  O2  UNL     1      24.078   7.394  51.155  1.00  0.00    -0.271 OA
HETATM   26  H14 UNL     1      23.640   5.806  48.310  1.00  0.00     0.169 HD
BRANCH  24  27
HETATM   27  C20 UNL     1      23.157   8.250  49.195  1.00  0.00     0.202 C 
HETATM   28 CL1  UNL     1      23.336   7.924  47.465  1.00  0.00    -0.113 Cl
BRANCH  27  29
HETATM   29  C21 UNL     1      21.713   8.424  49.526  1.00  0.00     0.301 C 
BRANCH  29  30
HETATM   30  N5  UNL     1      20.812   7.542  48.862  1.00  0.00     0.081 N 
HETATM   31  C22 UNL     1      19.833   8.210  48.031  1.00  0.00     0.309 C 
HETATM   32  C23 UNL     1      20.222   6.521  49.680  1.00  0.00     0.309 C 
ENDBRANCH  29  30
ENDBRANCH  27  29
ENDBRANCH  24  27
ENDBRANCH  13  23
BRANCH   1  33
HETATM   33  O1  UNL     1      26.666   5.314  48.580  1.00  0.00    -0.354 OA
HETATM   34  C1  UNL     1      28.065   5.108  48.527  1.00  0.00     0.210 C 
ENDBRANCH   1  33
TORSDOF 7
ENDMDL
MODEL 9
REMARK VINA RESULT:      -7.3      3.603      7.019
REMARK  7 active torsions:
REMARK  status: ('A' for Active; 'I' for Inactive)
REMARK    1  A    between atoms: O1_2  and  C2_3 
REMARK    2  A    between atoms: C9_12  and  N3_13 
REMARK    3  A    between atoms: N3_13  and  C10_14 
REMARK    4  A    between atoms: C18_23  and  N4_24 
REMARK       I    between atoms: N4_24  and  C19_25 
REMARK    5  A    between atoms: C19_25  and  C20_27 
REMARK    6  A    between atoms: C20_27  and  C21_29 
REMARK    7  A    between atoms: C21_29  and  N5_30 
ROOT
HETATM    1  C2  UNL     1      22.108   0.092  52.899  1.00  0.00     0.092 A 
HETATM    2  C3  UNL     1      23.367   0.368  53.288  1.00  0.00     0.027 A 
HETATM    3  C4  UNL     1      24.290   1.261  52.585  1.00  0.00     0.087 A 
HETATM    4  C5  UNL     1      25.564   0.589  52.317  1.00  0.00     0.102 C 
HETATM    5  N1  UNL     1      26.563   1.098  51.663  1.00  0.00    -0.275 NA
HETATM    6  C6  UNL     1      26.634   2.385  51.081  1.00  0.00     0.140 C 
HETATM    7  C7  UNL     1      25.558   3.007  50.566  1.00  0.00     0.089 C 
HETATM    8  C8  UNL     1      25.837   4.335  50.009  1.00  0.00     0.103 C 
HETATM    9  N2  UNL     1      26.068   5.357  49.569  1.00  0.00    -0.191 NA
HETATM   10  C9  UNL     1      24.145   2.575  50.423  1.00  0.00     0.062 C 
HETATM   11  C16 UNL     1      23.620   1.781  51.369  1.00  0.00    -0.015 A 
HETATM   12  C17 UNL     1      22.260   1.507  50.944  1.00  0.00     0.043 A 
HETATM   13  C18 UNL     1      21.536   0.693  51.677  1.00  0.00     0.068 A 
ENDROOT
BRANCH  10  14
HETATM   14  N3  UNL     1      23.444   3.024  49.277  1.00  0.00    -0.354 N 
HETATM   15  H8  UNL     1      23.290   2.510  48.360  1.00  0.00     0.166 HD
BRANCH  14  16
HETATM   16  C10 UNL     1      22.826   4.289  49.229  1.00  0.00     0.032 A 
HETATM   17  C11 UNL     1      22.329   4.898  50.387  1.00  0.00     0.032 A 
HETATM   18  C12 UNL     1      21.747   6.120  50.198  1.00  0.00     0.044 A 
HETATM   19  C13 UNL     1      21.647   6.727  48.971  1.00  0.00     0.116 A 
HETATM   20  F1  UNL     1      21.065   7.941  48.776  1.00  0.00    -0.206 F 
HETATM   21  C14 UNL     1      22.148   6.108  47.827  1.00  0.00     0.044 A 
HETATM   22  C15 UNL     1      22.748   4.861  47.981  1.00  0.00     0.032 A 
ENDBRANCH  14  16
ENDBRANCH  10  14
BRANCH  13  23
HETATM   23  N4  UNL     1      20.201   0.244  51.532  1.00  0.00    -0.323 N 
HETATM   24  C19 UNL     1      19.075   1.071  51.732  1.00  0.00     0.242 C 
HETATM   25  O2  UNL     1      19.072   2.307  52.070  1.00  0.00    -0.271 OA
HETATM   26  H14 UNL     1      20.003  -0.740  51.260  1.00  0.00     0.169 HD
BRANCH  24  27
HETATM   27  C20 UNL     1      17.689   0.506  51.553  1.00  0.00     0.202 C 
HETATM   28 CL1  UNL     1      17.494   0.086  49.846  1.00  0.00    -0.113 Cl
BRANCH  27  29
HETATM   29  C21 UNL     1      17.466  -0.705  52.396  1.00  0.00     0.301 C 
BRANCH  29  30
HETATM   30  N5  UNL     1      16.115  -0.959  52.775  1.00  0.00     0.081 N 
HETATM   31  C22 UNL     1      15.519  -2.099  52.113  1.00  0.00     0.309 C 
HETATM   32  C23 UNL     1      15.244   0.181  52.782  1.00  0.00     0.309 C 
ENDBRANCH  29  30
ENDBRANCH  27  29
ENDBRANCH  24  27
ENDBRANCH  13  23
BRANCH   1  33
HETATM   33  O1  UNL     1      21.574  -0.780  53.821  1.00  0.00    -0.354 OA
HETATM   34  C1  UNL     1      22.338  -1.129  54.960  1.00  0.00     0.210 C 
ENDBRANCH   1  33
TORSDOF 7
ENDMDL
