MODEL 1
REMARK VINA RESULT:      -7.3      0.000      0.000
REMARK  8 active torsions:
REMARK  status: ('A' for Active; 'I' for Inactive)
REMARK    1  A    between atoms: C2_2  and  C4_4 
REMARK    2  A    between atoms: C5_5  and  N1_6 
REMARK    3  A    between atoms: C11_13  and  O1_14 
REMARK    4  A    between atoms: O1_14  and  C12_15 
REMARK    5  A    between atoms: C16_20  and  O3_21 
REMARK    6  A    between atoms: O3_21  and  C17_22 
REMARK    7  A    between atoms: C17_22  and  C18_23 
REMARK    8  A    between atoms: C18_23  and  O4_24 
ROOT
HETATM    1  N1  UNL     1      21.685   4.525  51.325  1.00  0.00    -0.352 N 
HETATM    2  C6  UNL     1      21.848   5.945  51.031  1.00  0.00     0.093 C 
HETATM    3  C7  UNL     1      23.143   6.318  50.874  1.00  0.00     0.047 C 
HETATM    4  C8  UNL     1      23.927   5.072  51.067  1.00  0.00     0.064 A 
HETATM    5  N2  UNL     1      24.957   4.323  50.881  1.00  0.00    -0.250 NA
HETATM    6  C9  UNL     1      24.771   3.079  51.590  1.00  0.00     0.068 A 
HETATM    7  C10 UNL     1      25.585   1.966  51.657  1.00  0.00     0.072 A 
HETATM    8  C11 UNL     1      25.154   0.853  52.390  1.00  0.00     0.104 A 
HETATM    9  C16 UNL     1      23.924   0.933  53.012  1.00  0.00     0.102 A 
HETATM   10  C19 UNL     1      23.110   2.039  52.949  1.00  0.00     0.051 A 
HETATM   11  C20 UNL     1      23.528   3.132  52.233  1.00  0.00     0.003 A 
HETATM   12  C21 UNL     1      22.927   4.439  52.014  1.00  0.00     0.176 A 
ENDROOT
BRANCH   8  13
HETATM   13  O1  UNL     1      25.863  -0.314  52.539  1.00  0.00    -0.341 OA
BRANCH  13  14
HETATM   14  C12 UNL     1      26.651  -0.722  53.603  1.00  0.00     0.154 C 
HETATM   15  C13 UNL     1      26.991   0.368  54.591  1.00  0.00     0.061 C 
HETATM   16  C14 UNL     1      28.463   0.108  54.868  1.00  0.00     0.170 C 
HETATM   17  O2  UNL     1      28.928  -0.169  53.605  1.00  0.00    -0.389 OA
HETATM   18  C15 UNL     1      28.034  -1.036  53.016  1.00  0.00     0.200 C 
ENDBRANCH  13  14
ENDBRANCH   8  13
BRANCH   9  19
HETATM   19  O3  UNL     1      23.449  -0.144  53.752  1.00  0.00    -0.346 OA
BRANCH  19  20
HETATM   20  C17 UNL     1      22.285  -0.851  53.435  1.00  0.00     0.201 C 
BRANCH  20  21
HETATM   21  C18 UNL     1      21.451  -1.020  54.693  1.00  0.00     0.190 C 
BRANCH  21  22
HETATM   22  O4  UNL     1      20.552   0.016  54.854  1.00  0.00    -0.399 OA
HETATM   23  H22 UNL     1      19.957  -0.163  55.629  1.00  0.00     0.209 HD
ENDBRANCH  21  22
ENDBRANCH  20  21
ENDBRANCH  19  20
ENDBRANCH   9  19
BRANCH   1  24
HETATM   24  C5  UNL     1      20.518   3.849  50.881  1.00  0.00     0.092 C 
HETATM   25  C4  UNL     1      20.358   2.772  50.142  1.00  0.00     0.023 C 
BRANCH  25  26
HETATM   26  C2  UNL     1      21.422   1.971  49.572  1.00  0.00    -0.070 C 
HETATM   27  C1  UNL     1      21.479   0.699  49.911  1.00  0.00     0.018 C 
HETATM   28  C3  UNL     1      22.470   2.419  48.636  1.00  0.00     0.047 C 
ENDBRANCH  25  26
ENDBRANCH   1  24
TORSDOF 8
ENDMDL
MODEL 2
REMARK VINA RESULT:      -7.2      3.587      7.615
REMARK  8 active torsions:
REMARK  status: ('A' for Active; 'I' for Inactive)
REMARK    1  A    between atoms: C2_2  and  C4_4 
REMARK    2  A    between atoms: C5_5  and  N1_6 
REMARK    3  A    between atoms: C11_13  and  O1_14 
REMARK    4  A    between atoms: O1_14  and  C12_15 
REMARK    5  A    between atoms: C16_20  and  O3_21 
REMARK    6  A    between atoms: O3_21  and  C17_22 
REMARK    7  A    between atoms: C17_22  and  C18_23 
REMARK    8  A    between atoms: C18_23  and  O4_24 
ROOT
HETATM    1  N1  UNL     1      25.198  -0.100  53.078  1.00  0.00    -0.352 N 
HETATM    2  C6  UNL     1      24.505  -0.834  54.130  1.00  0.00     0.093 C 
HETATM    3  C7  UNL     1      23.156  -0.696  54.087  1.00  0.00     0.047 C 
HETATM    4  C8  UNL     1      22.899   0.189  52.924  1.00  0.00     0.064 A 
HETATM    5  N2  UNL     1      22.172   0.637  51.960  1.00  0.00    -0.250 NA
HETATM    6  C9  UNL     1      22.905   1.661  51.253  1.00  0.00     0.068 A 
HETATM    7  C10 UNL     1      22.551   2.396  50.139  1.00  0.00     0.072 A 
HETATM    8  C11 UNL     1      23.469   3.312  49.611  1.00  0.00     0.104 A 
HETATM    9  C16 UNL     1      24.692   3.430  50.240  1.00  0.00     0.102 A 
HETATM   10  C19 UNL     1      25.049   2.700  51.349  1.00  0.00     0.051 A 
HETATM   11  C20 UNL     1      24.154   1.802  51.872  1.00  0.00     0.003 A 
HETATM   12  C21 UNL     1      24.216   0.930  53.034  1.00  0.00     0.176 A 
ENDROOT
BRANCH   8  13
HETATM   13  O1  UNL     1      23.245   4.106  48.511  1.00  0.00    -0.341 OA
BRANCH  13  14
HETATM   14  C12 UNL     1      22.114   4.186  47.714  1.00  0.00     0.154 C 
HETATM   15  C13 UNL     1      22.025   3.133  46.636  1.00  0.00     0.061 C 
HETATM   16  C14 UNL     1      21.546   3.937  45.437  1.00  0.00     0.170 C 
HETATM   17  O2  UNL     1      22.310   5.073  45.554  1.00  0.00    -0.389 OA
HETATM   18  C15 UNL     1      22.272   5.462  46.875  1.00  0.00     0.200 C 
ENDBRANCH  13  14
ENDBRANCH   8  13
BRANCH   9  19
HETATM   19  O3  UNL     1      25.639   4.324  49.756  1.00  0.00    -0.346 OA
BRANCH  19  20
HETATM   20  C17 UNL     1      26.911   3.946  49.315  1.00  0.00     0.201 C 
BRANCH  20  21
HETATM   21  C18 UNL     1      27.568   5.129  48.625  1.00  0.00     0.190 C 
BRANCH  21  22
HETATM   22  O4  UNL     1      28.873   5.303  49.040  1.00  0.00    -0.399 OA
HETATM   23  H22 UNL     1      29.433   4.537  48.743  1.00  0.00     0.209 HD
ENDBRANCH  21  22
ENDBRANCH  20  21
ENDBRANCH  19  20
ENDBRANCH   9  19
BRANCH   1  24
HETATM   24  C5  UNL     1      26.418  -0.607  52.557  1.00  0.00     0.092 C 
HETATM   25  C4  UNL     1      27.671  -0.271  52.777  1.00  0.00     0.023 C 
BRANCH  25  26
HETATM   26  C2  UNL     1      28.120   0.777  53.671  1.00  0.00    -0.070 C 
HETATM   27  C1  UNL     1      28.586   0.416  54.850  1.00  0.00     0.018 C 
HETATM   28  C3  UNL     1      28.123   2.229  53.413  1.00  0.00     0.047 C 
ENDBRANCH  25  26
ENDBRANCH   1  24
TORSDOF 8
ENDMDL
MODEL 3
REMARK VINA RESULT:      -6.9      1.341      1.947
REMARK  8 active torsions:
REMARK  status: ('A' for Active; 'I' for Inactive)
REMARK    1  A    between atoms: C2_2  and  C4_4 
REMARK    2  A    between atoms: C5_5  and  N1_6 
REMARK    3  A    between atoms: C11_13  and  O1_14 
REMARK    4  A    between atoms: O1_14  and  C12_15 
REMARK    5  A    between atoms: C16_20  and  O3_21 
REMARK    6  A    between atoms: O3_21  and  C17_22 
REMARK    7  A    between atoms: C17_22  and  C18_23 
REMARK    8  A    between atoms: C18_23  and  O4_24 
ROOT
HETATM    1  N1  UNL     1      20.844   3.568  50.614  1.00  0.00    -0.352 N 
HETATM    2  C6  UNL     1      20.470   4.965  50.419  1.00  0.00     0.093 C 
HETATM    3  C7  UNL     1      21.389   5.841  50.894  1.00  0.00     0.047 C 
HETATM    4  C8  UNL     1      22.473   4.995  51.453  1.00  0.00     0.064 A 
HETATM    5  N2  UNL     1      23.695   4.768  51.789  1.00  0.00    -0.250 NA
HETATM    6  C9  UNL     1      23.794   3.436  52.338  1.00  0.00     0.068 A 
HETATM    7  C10 UNL     1      24.897   2.745  52.797  1.00  0.00     0.072 A 
HETATM    8  C11 UNL     1      24.735   1.429  53.248  1.00  0.00     0.104 A 
HETATM    9  C16 UNL     1      23.465   0.889  53.206  1.00  0.00     0.102 A 
HETATM   10  C19 UNL     1      22.363   1.573  52.750  1.00  0.00     0.051 A 
HETATM   11  C20 UNL     1      22.516   2.862  52.308  1.00  0.00     0.003 A 
HETATM   12  C21 UNL     1      21.560   3.841  51.815  1.00  0.00     0.176 A 
ENDROOT
BRANCH   8  13
HETATM   13  O1  UNL     1      25.745   0.632  53.730  1.00  0.00    -0.341 OA
BRANCH  13  14
HETATM   14  C12 UNL     1      27.027   0.461  53.234  1.00  0.00     0.154 C 
HETATM   15  C13 UNL     1      27.346  -0.941  52.775  1.00  0.00     0.061 C 
HETATM   16  C14 UNL     1      28.748  -1.153  53.325  1.00  0.00     0.170 C 
HETATM   17  O2  UNL     1      28.631  -0.598  54.576  1.00  0.00    -0.389 OA
HETATM   18  C15 UNL     1      27.973   0.605  54.435  1.00  0.00     0.200 C 
ENDBRANCH  13  14
ENDBRANCH   8  13
BRANCH   9  19
HETATM   19  O3  UNL     1      23.250  -0.413  53.641  1.00  0.00    -0.346 OA
BRANCH  19  20
HETATM   20  C17 UNL     1      22.221  -1.231  53.165  1.00  0.00     0.201 C 
BRANCH  20  21
HETATM   21  C18 UNL     1      21.346  -1.656  54.332  1.00  0.00     0.190 C 
BRANCH  21  22
HETATM   22  O4  UNL     1      20.792  -0.569  54.978  1.00  0.00    -0.399 OA
HETATM   23  H22 UNL     1      20.356   0.035  54.321  1.00  0.00     0.209 HD
ENDBRANCH  21  22
ENDBRANCH  20  21
ENDBRANCH  19  20
ENDBRANCH   9  19
BRANCH   1  24
HETATM   24  C5  UNL     1      20.419   2.592  49.675  1.00  0.00     0.092 C 
HETATM   25  C4  UNL     1      19.579   1.584  49.778  1.00  0.00     0.023 C 
BRANCH  25  26
HETATM   26  C2  UNL     1      18.841   1.217  50.969  1.00  0.00    -0.070 C 
HETATM   27  C1  UNL     1      17.840   1.994  51.331  1.00  0.00     0.018 C 
HETATM   28  C3  UNL     1      19.078   0.052  51.840  1.00  0.00     0.047 C 
ENDBRANCH  25  26
ENDBRANCH   1  24
TORSDOF 8
ENDMDL
MODEL 4
REMARK VINA RESULT:      -6.7      2.500      5.140
REMARK  8 active torsions:
REMARK  status: ('A' for Active; 'I' for Inactive)
REMARK    1  A    between atoms: C2_2  and  C4_4 
REMARK    2  A    between atoms: C5_5  and  N1_6 
REMARK    3  A    between atoms: C11_13  and  O1_14 
REMARK    4  A    between atoms: O1_14  and  C12_15 
REMARK    5  A    between atoms: C16_20  and  O3_21 
REMARK    6  A    between atoms: O3_21  and  C17_22 
REMARK    7  A    between atoms: C17_22  and  C18_23 
REMARK    8  A    between atoms: C18_23  and  O4_24 
ROOT
HETATM    1  N1  UNL     1      24.153   5.744  48.920  1.00  0.00    -0.352 N 
HETATM    2  C6  UNL     1      23.378   6.180  47.763  1.00  0.00     0.093 C 
HETATM    3  C7  UNL     1      22.208   5.510  47.614  1.00  0.00     0.047 C 
HETATM    4  C8  UNL     1      22.168   4.551  48.746  1.00  0.00     0.064 A 
HETATM    5  N2  UNL     1      21.556   3.811  49.604  1.00  0.00    -0.250 NA
HETATM    6  C9  UNL     1      22.532   3.141  50.431  1.00  0.00     0.068 A 
HETATM    7  C10 UNL     1      22.351   2.282  51.497  1.00  0.00     0.072 A 
HETATM    8  C11 UNL     1      23.476   1.791  52.171  1.00  0.00     0.104 A 
HETATM    9  C16 UNL     1      24.718   2.199  51.727  1.00  0.00     0.102 A 
HETATM   10  C19 UNL     1      24.903   3.054  50.667  1.00  0.00     0.051 A 
HETATM   11  C20 UNL     1      23.805   3.537  50.002  1.00  0.00     0.003 A 
HETATM   12  C21 UNL     1      23.674   4.406  48.843  1.00  0.00     0.176 A 
ENDROOT
BRANCH   8  13
HETATM   13  O1  UNL     1      23.439   0.932  53.243  1.00  0.00    -0.341 OA
BRANCH  13  14
HETATM   14  C12 UNL     1      23.012  -0.385  53.285  1.00  0.00     0.154 C 
HETATM   15  C13 UNL     1      21.518  -0.562  53.415  1.00  0.00     0.061 C 
HETATM   16  C14 UNL     1      21.412  -1.680  54.441  1.00  0.00     0.170 C 
HETATM   17  O2  UNL     1      22.378  -1.308  55.344  1.00  0.00    -0.389 OA
HETATM   18  C15 UNL     1      23.499  -0.951  54.626  1.00  0.00     0.200 C 
ENDBRANCH  13  14
ENDBRANCH   8  13
BRANCH   9  19
HETATM   19  O3  UNL     1      25.867   1.742  52.362  1.00  0.00    -0.346 OA
BRANCH  19  20
HETATM   20  C17 UNL     1      27.148   2.241  52.105  1.00  0.00     0.201 C 
BRANCH  20  21
HETATM   21  C18 UNL     1      28.056   1.900  53.273  1.00  0.00     0.190 C 
BRANCH  21  22
HETATM   22  O4  UNL     1      29.152   2.738  53.330  1.00  0.00    -0.399 OA
HETATM   23  H22 UNL     1      29.088   3.333  54.123  1.00  0.00     0.209 HD
ENDBRANCH  21  22
ENDBRANCH  20  21
ENDBRANCH  19  20
ENDBRANCH   9  19
BRANCH   1  24
HETATM   24  C5  UNL     1      24.979   6.678  49.600  1.00  0.00     0.092 C 
HETATM   25  C4  UNL     1      26.265   6.940  49.506  1.00  0.00     0.023 C 
BRANCH  25  26
HETATM   26  C2  UNL     1      27.199   6.282  48.616  1.00  0.00    -0.070 C 
HETATM   27  C1  UNL     1      27.361   4.982  48.752  1.00  0.00     0.018 C 
HETATM   28  C3  UNL     1      28.006   6.907  47.551  1.00  0.00     0.047 C 
ENDBRANCH  25  26
ENDBRANCH   1  24
TORSDOF 8
ENDMDL
MODEL 5
REMARK VINA RESULT:      -6.6      2.534      4.525
REMARK  8 active torsions:
REMARK  status: ('A' for Active; 'I' for Inactive)
REMARK    1  A    between atoms: C2_2  and  C4_4 
REMARK    2  A    between atoms: C5_5  and  N1_6 
REMARK    3  A    between atoms: C11_13  and  O1_14 
REMARK    4  A    between atoms: O1_14  and  C12_15 
REMARK    5  A    between atoms: C16_20  and  O3_21 
REMARK    6  A    between atoms: O3_21  and  C17_22 
REMARK    7  A    between atoms: C17_22  and  C18_23 
REMARK    8  A    between atoms: C18_23  and  O4_24 
ROOT
HETATM    1  N1  UNL     1      19.186   1.866  51.471  1.00  0.00    -0.352 N 
HETATM    2  C6  UNL     1      18.130   0.860  51.445  1.00  0.00     0.093 C 
HETATM    3  C7  UNL     1      18.479  -0.304  52.049  1.00  0.00     0.047 C 
HETATM    4  C8  UNL     1      19.867  -0.086  52.528  1.00  0.00     0.064 A 
HETATM    5  N2  UNL     1      20.857  -0.310  53.320  1.00  0.00    -0.250 NA
HETATM    6  C9  UNL     1      21.970   0.524  52.932  1.00  0.00     0.068 A 
HETATM    7  C10 UNL     1      23.221   0.655  53.501  1.00  0.00     0.072 A 
HETATM    8  C11 UNL     1      24.122   1.576  52.954  1.00  0.00     0.104 A 
HETATM    9  C16 UNL     1      23.704   2.312  51.864  1.00  0.00     0.102 A 
HETATM   10  C19 UNL     1      22.459   2.185  51.293  1.00  0.00     0.051 A 
HETATM   11  C20 UNL     1      21.573   1.283  51.824  1.00  0.00     0.003 A 
HETATM   12  C21 UNL     1      20.227   0.896  51.431  1.00  0.00     0.176 A 
ENDROOT
BRANCH   8  13
HETATM   13  O1  UNL     1      25.395   1.805  53.420  1.00  0.00    -0.341 OA
BRANCH  13  14
HETATM   14  C12 UNL     1      26.535   1.039  53.240  1.00  0.00     0.154 C 
HETATM   15  C13 UNL     1      26.446   0.025  52.126  1.00  0.00     0.061 C 
HETATM   16  C14 UNL     1      27.090  -1.203  52.752  1.00  0.00     0.170 C 
HETATM   17  O2  UNL     1      26.551  -1.172  54.016  1.00  0.00    -0.389 OA
HETATM   18  C15 UNL     1      26.635   0.126  54.470  1.00  0.00     0.200 C 
ENDBRANCH  13  14
ENDBRANCH   8  13
BRANCH   9  19
HETATM   19  O3  UNL     1      24.560   3.241  51.283  1.00  0.00    -0.346 OA
BRANCH  19  20
HETATM   20  C17 UNL     1      24.927   3.223  49.934  1.00  0.00     0.201 C 
BRANCH  20  21
HETATM   21  C18 UNL     1      26.273   3.908  49.778  1.00  0.00     0.190 C 
BRANCH  21  22
HETATM   22  O4  UNL     1      27.160   3.522  50.763  1.00  0.00    -0.399 OA
HETATM   23  H22 UNL     1      27.466   2.590  50.604  1.00  0.00     0.209 HD
ENDBRANCH  21  22
ENDBRANCH  20  21
ENDBRANCH  19  20
ENDBRANCH   9  19
BRANCH   1  24
HETATM   24  C5  UNL     1      18.839   3.242  51.519  1.00  0.00     0.092 C 
HETATM   25  C4  UNL     1      18.977   4.211  50.640  1.00  0.00     0.023 C 
BRANCH  25  26
HETATM   26  C2  UNL     1      19.560   4.079  49.320  1.00  0.00    -0.070 C 
HETATM   27  C1  UNL     1      20.747   4.614  49.120  1.00  0.00     0.018 C 
HETATM   28  C3  UNL     1      18.972   3.400  48.150  1.00  0.00     0.047 C 
ENDBRANCH  25  26
ENDBRANCH   1  24
TORSDOF 8
ENDMDL
MODEL 6
REMARK VINA RESULT:      -6.6      1.865      2.884
REMARK  8 active torsions:
REMARK  status: ('A' for Active; 'I' for Inactive)
REMARK    1  A    between atoms: C2_2  and  C4_4 
REMARK    2  A    between atoms: C5_5  and  N1_6 
REMARK    3  A    between atoms: C11_13  and  O1_14 
REMARK    4  A    between atoms: O1_14  and  C12_15 
REMARK    5  A    between atoms: C16_20  and  O3_21 
REMARK    6  A    between atoms: O3_21  and  C17_22 
REMARK    7  A    between atoms: C17_22  and  C18_23 
REMARK    8  A    between atoms: C18_23  and  O4_24 
ROOT
HETATM    1  N1  UNL     1      24.450   5.660  48.870  1.00  0.00    -0.352 N 
HETATM    2  C6  UNL     1      25.333   6.672  48.301  1.00  0.00     0.093 C 
HETATM    3  C7  UNL     1      26.650   6.377  48.435  1.00  0.00     0.047 C 
HETATM    4  C8  UNL     1      26.681   5.071  49.140  1.00  0.00     0.064 A 
HETATM    5  N2  UNL     1      27.220   3.943  49.444  1.00  0.00    -0.250 NA
HETATM    6  C9  UNL     1      26.348   3.231  50.350  1.00  0.00     0.068 A 
HETATM    7  C10 UNL     1      26.486   1.979  50.914  1.00  0.00     0.072 A 
HETATM    8  C11 UNL     1      25.467   1.490  51.740  1.00  0.00     0.104 A 
HETATM    9  C16 UNL     1      24.366   2.298  51.945  1.00  0.00     0.102 A 
HETATM   10  C19 UNL     1      24.223   3.545  51.386  1.00  0.00     0.051 A 
HETATM   11  C20 UNL     1      25.220   4.030  50.577  1.00  0.00     0.003 A 
HETATM   12  C21 UNL     1      25.380   5.299  49.886  1.00  0.00     0.176 A 
ENDROOT
BRANCH   8  13
HETATM   13  O1  UNL     1      25.477   0.266  52.364  1.00  0.00    -0.341 OA
BRANCH  13  14
HETATM   14  C12 UNL     1      26.168  -0.123  53.500  1.00  0.00     0.154 C 
HETATM   15  C13 UNL     1      26.857   1.000  54.236  1.00  0.00     0.061 C 
HETATM   16  C14 UNL     1      28.205   0.384  54.580  1.00  0.00     0.170 C 
HETATM   17  O2  UNL     1      28.505  -0.273  53.411  1.00  0.00    -0.389 OA
HETATM   18  C15 UNL     1      27.370  -0.943  53.010  1.00  0.00     0.200 C 
ENDBRANCH  13  14
ENDBRANCH   8  13
BRANCH   9  19
HETATM   19  O3  UNL     1      23.325   1.860  52.756  1.00  0.00    -0.346 OA
BRANCH  19  20
HETATM   20  C17 UNL     1      22.108   1.377  52.265  1.00  0.00     0.201 C 
BRANCH  20  21
HETATM   21  C18 UNL     1      21.983  -0.096  52.615  1.00  0.00     0.190 C 
BRANCH  21  22
HETATM   22  O4  UNL     1      22.453  -0.362  53.886  1.00  0.00    -0.399 OA
HETATM   23  H22 UNL     1      21.813  -0.020  54.565  1.00  0.00     0.209 HD
ENDBRANCH  21  22
ENDBRANCH  20  21
ENDBRANCH  19  20
ENDBRANCH   9  19
BRANCH   1  24
HETATM   24  C5  UNL     1      23.174   5.437  48.288  1.00  0.00     0.092 C 
HETATM   25  C4  UNL     1      21.957   5.575  48.768  1.00  0.00     0.023 C 
BRANCH  25  26
HETATM   26  C2  UNL     1      21.620   6.021  50.104  1.00  0.00    -0.070 C 
HETATM   27  C1  UNL     1      20.983   5.176  50.889  1.00  0.00     0.018 C 
HETATM   28  C3  UNL     1      21.915   7.335  50.706  1.00  0.00     0.047 C 
ENDBRANCH  25  26
ENDBRANCH   1  24
TORSDOF 8
ENDMDL
MODEL 7
REMARK VINA RESULT:      -6.5      3.336      7.397
REMARK  8 active torsions:
REMARK  status: ('A' for Active; 'I' for Inactive)
REMARK    1  A    between atoms: C2_2  and  C4_4 
REMARK    2  A    between atoms: C5_5  and  N1_6 
REMARK    3  A    between atoms: C11_13  and  O1_14 
REMARK    4  A    between atoms: O1_14  and  C12_15 
REMARK    5  A    between atoms: C16_20  and  O3_21 
REMARK    6  A    between atoms: O3_21  and  C17_22 
REMARK    7  A    between atoms: C17_22  and  C18_23 
REMARK    8  A    between atoms: C18_23  and  O4_24 
ROOT
HETATM    1  N1  UNL     1      24.952  -0.276  53.347  1.00  0.00    -0.352 N 
HETATM    2  C6  UNL     1      24.588  -0.992  54.565  1.00  0.00     0.093 C 
HETATM    3  C7  UNL     1      23.254  -1.001  54.807  1.00  0.00     0.047 C 
HETATM    4  C8  UNL     1      22.654  -0.244  53.680  1.00  0.00     0.064 A 
HETATM    5  N2  UNL     1      21.693   0.046  52.874  1.00  0.00    -0.250 NA
HETATM    6  C9  UNL     1      22.133   1.081  51.968  1.00  0.00     0.068 A 
HETATM    7  C10 UNL     1      21.468   1.683  50.918  1.00  0.00     0.072 A 
HETATM    8  C11 UNL     1      22.138   2.645  50.153  1.00  0.00     0.104 A 
HETATM    9  C16 UNL     1      23.443   2.942  50.494  1.00  0.00     0.102 A 
HETATM   10  C19 UNL     1      24.109   2.345  51.539  1.00  0.00     0.051 A 
HETATM   11  C20 UNL     1      23.458   1.403  52.292  1.00  0.00     0.003 A 
HETATM   12  C21 UNL     1      23.867   0.638  53.461  1.00  0.00     0.176 A 
ENDROOT
BRANCH   8  13
HETATM   13  O1  UNL     1      21.596   3.320  49.085  1.00  0.00    -0.341 OA
BRANCH  13  14
HETATM   14  C12 UNL     1      21.395   2.874  47.789  1.00  0.00     0.154 C 
HETATM   15  C13 UNL     1      21.958   3.776  46.717  1.00  0.00     0.061 C 
HETATM   16  C14 UNL     1      20.842   3.785  45.682  1.00  0.00     0.170 C 
HETATM   17  O2  UNL     1      19.733   3.890  46.486  1.00  0.00    -0.389 OA
HETATM   18  C15 UNL     1      19.888   2.996  47.524  1.00  0.00     0.200 C 
ENDBRANCH  13  14
ENDBRANCH   8  13
BRANCH   9  19
HETATM   19  O3  UNL     1      24.153   3.889  49.767  1.00  0.00    -0.346 OA
BRANCH  19  20
HETATM   20  C17 UNL     1      24.955   4.875  50.350  1.00  0.00     0.201 C 
BRANCH  20  21
HETATM   21  C18 UNL     1      24.067   5.986  50.882  1.00  0.00     0.190 C 
BRANCH  21  22
HETATM   22  O4  UNL     1      24.207   6.143  52.247  1.00  0.00    -0.399 OA
HETATM   23  H22 UNL     1      24.750   5.401  52.623  1.00  0.00     0.209 HD
ENDBRANCH  21  22
ENDBRANCH  20  21
ENDBRANCH  19  20
ENDBRANCH   9  19
BRANCH   1  24
HETATM   24  C5  UNL     1      26.088  -0.691  52.604  1.00  0.00     0.092 C 
HETATM   25  C4  UNL     1      27.355  -0.342  52.673  1.00  0.00     0.023 C 
BRANCH  25  26
HETATM   26  C2  UNL     1      27.918   0.622  53.596  1.00  0.00    -0.070 C 
HETATM   27  C1  UNL     1      28.506   0.159  54.680  1.00  0.00     0.018 C 
HETATM   28  C3  UNL     1      27.914   2.091  53.463  1.00  0.00     0.047 C 
ENDBRANCH  25  26
ENDBRANCH   1  24
TORSDOF 8
ENDMDL
MODEL 8
REMARK VINA RESULT:      -6.2      8.356     10.870
REMARK  8 active torsions:
REMARK  status: ('A' for Active; 'I' for Inactive)
REMARK    1  A    between atoms: C2_2  and  C4_4 
REMARK    2  A    between atoms: C5_5  and  N1_6 
REMARK    3  A    between atoms: C11_13  and  O1_14 
REMARK    4  A    between atoms: O1_14  and  C12_15 
REMARK    5  A    between atoms: C16_20  and  O3_21 
REMARK    6  A    between atoms: O3_21  and  C17_22 
REMARK    7  A    between atoms: C17_22  and  C18_23 
REMARK    8  A    between atoms: C18_23  and  O4_24 
ROOT
HETATM    1  N1  UNL     1      33.943   7.123  47.681  1.00  0.00    -0.352 N 
HETATM    2  C6  UNL     1      35.051   6.241  48.031  1.00  0.00     0.093 C 
HETATM    3  C7  UNL     1      34.654   5.003  48.418  1.00  0.00     0.047 C 
HETATM    4  C8  UNL     1      33.173   5.029  48.327  1.00  0.00     0.064 A 
HETATM    5  N2  UNL     1      32.022   4.474  48.172  1.00  0.00    -0.250 NA
HETATM    6  C9  UNL     1      30.995   5.487  48.248  1.00  0.00     0.068 A 
HETATM    7  C10 UNL     1      29.626   5.375  48.107  1.00  0.00     0.072 A 
HETATM    8  C11 UNL     1      28.839   6.530  48.183  1.00  0.00     0.104 A 
HETATM    9  C16 UNL     1      29.483   7.732  48.397  1.00  0.00     0.102 A 
HETATM   10  C19 UNL     1      30.846   7.849  48.538  1.00  0.00     0.051 A 
HETATM   11  C20 UNL     1      31.622   6.721  48.466  1.00  0.00     0.003 A 
HETATM   12  C21 UNL     1      33.054   6.514  48.612  1.00  0.00     0.176 A 
ENDROOT
BRANCH   8  13
HETATM   13  O1  UNL     1      27.470   6.560  48.061  1.00  0.00    -0.341 OA
BRANCH  13  14
HETATM   14  C12 UNL     1      26.508   6.255  49.010  1.00  0.00     0.154 C 
HETATM   15  C13 UNL     1      26.229   4.780  49.174  1.00  0.00     0.061 C 
HETATM   16  C14 UNL     1      24.711   4.746  49.270  1.00  0.00     0.170 C 
HETATM   17  O2  UNL     1      24.361   5.647  48.293  1.00  0.00    -0.389 OA
HETATM   18  C15 UNL     1      25.172   6.751  48.440  1.00  0.00     0.200 C 
ENDBRANCH  13  14
ENDBRANCH   8  13
BRANCH   9  19
HETATM   19  O3  UNL     1      28.749   8.909  48.480  1.00  0.00    -0.346 OA
BRANCH  19  20
HETATM   20  C17 UNL     1      28.339   9.486  49.686  1.00  0.00     0.201 C 
BRANCH  20  21
HETATM   21  C18 UNL     1      26.854   9.797  49.607  1.00  0.00     0.190 C 
BRANCH  21  22
HETATM   22  O4  UNL     1      26.228   9.614  50.824  1.00  0.00    -0.399 OA
HETATM   23  H22 UNL     1      26.626   8.839  51.301  1.00  0.00     0.209 HD
ENDBRANCH  21  22
ENDBRANCH  20  21
ENDBRANCH  19  20
ENDBRANCH   9  19
BRANCH   1  24
HETATM   24  C5  UNL     1      34.129   8.120  46.687  1.00  0.00     0.092 C 
HETATM   25  C4  UNL     1      33.534   8.326  45.532  1.00  0.00     0.023 C 
BRANCH  25  26
HETATM   26  C2  UNL     1      32.471   7.516  44.972  1.00  0.00    -0.070 C 
HETATM   27  C1  UNL     1      32.787   6.319  44.521  1.00  0.00     0.018 C 
HETATM   28  C3  UNL     1      31.047   7.878  44.847  1.00  0.00     0.047 C 
ENDBRANCH  25  26
ENDBRANCH   1  24
TORSDOF 8
ENDMDL
MODEL 9
REMARK VINA RESULT:      -6.2      1.936      2.550
REMARK  8 active torsions:
REMARK  status: ('A' for Active; 'I' for Inactive)
REMARK    1  A    between atoms: C2_2  and  C4_4 
REMARK    2  A    between atoms: C5_5  and  N1_6 
REMARK    3  A    between atoms: C11_13  and  O1_14 
REMARK    4  A    between atoms: O1_14  and  C12_15 
REMARK    5  A    between atoms: C16_20  and  O3_21 
REMARK    6  A    between atoms: O3_21  and  C17_22 
REMARK    7  A    between atoms: C17_22  and  C18_23 
REMARK    8  A    between atoms: C18_23  and  O4_24 
ROOT
HETATM    1  N1  UNL     1      22.402   5.882  48.869  1.00  0.00    -0.352 N 
HETATM    2  C6  UNL     1      22.967   7.052  48.207  1.00  0.00     0.093 C 
HETATM    3  C7  UNL     1      24.323   7.051  48.172  1.00  0.00     0.047 C 
HETATM    4  C8  UNL     1      24.723   5.793  48.851  1.00  0.00     0.064 A 
HETATM    5  N2  UNL     1      25.526   4.812  49.071  1.00  0.00    -0.250 NA
HETATM    6  C9  UNL     1      24.949   3.943  50.069  1.00  0.00     0.068 A 
HETATM    7  C10 UNL     1      25.424   2.758  50.596  1.00  0.00     0.072 A 
HETATM    8  C11 UNL     1      24.645   2.073  51.536  1.00  0.00     0.104 A 
HETATM    9  C16 UNL     1      23.430   2.627  51.888  1.00  0.00     0.102 A 
HETATM   10  C19 UNL     1      22.953   3.806  51.367  1.00  0.00     0.051 A 
HETATM   11  C20 UNL     1      23.712   4.482  50.446  1.00  0.00     0.003 A 
HETATM   12  C21 UNL     1      23.507   5.746  49.756  1.00  0.00     0.176 A 
ENDROOT
BRANCH   8  13
HETATM   13  O1  UNL     1      24.997   0.889  52.138  1.00  0.00    -0.341 OA
BRANCH  13  14
HETATM   14  C12 UNL     1      25.948   0.664  53.121  1.00  0.00     0.154 C 
HETATM   15  C13 UNL     1      27.356   0.481  52.608  1.00  0.00     0.061 C 
HETATM   16  C14 UNL     1      27.857  -0.686  53.445  1.00  0.00     0.170 C 
HETATM   17  O2  UNL     1      26.759  -1.512  53.438  1.00  0.00    -0.389 OA
HETATM   18  C15 UNL     1      25.653  -0.730  53.691  1.00  0.00     0.200 C 
ENDBRANCH  13  14
ENDBRANCH   8  13
BRANCH   9  19
HETATM   19  O3  UNL     1      22.618   1.987  52.817  1.00  0.00    -0.346 OA
BRANCH  19  20
HETATM   20  C17 UNL     1      21.307   1.578  52.552  1.00  0.00     0.201 C 
BRANCH  20  21
HETATM   21  C18 UNL     1      21.327   0.144  52.052  1.00  0.00     0.190 C 
BRANCH  21  22
HETATM   22  O4  UNL     1      22.327  -0.594  52.655  1.00  0.00    -0.399 OA
HETATM   23  H22 UNL     1      23.169  -0.520  52.134  1.00  0.00     0.209 HD
ENDBRANCH  21  22
ENDBRANCH  20  21
ENDBRANCH  19  20
ENDBRANCH   9  19
BRANCH   1  24
HETATM   24  C5  UNL     1      21.142   5.380  48.449  1.00  0.00     0.092 C 
HETATM   25  C4  UNL     1      20.816   4.358  47.688  1.00  0.00     0.023 C 
BRANCH  25  26
HETATM   26  C2  UNL     1      21.746   3.442  47.059  1.00  0.00    -0.070 C 
HETATM   27  C1  UNL     1      22.012   3.623  45.781  1.00  0.00     0.018 C 
HETATM   28  C3  UNL     1      22.448   2.310  47.692  1.00  0.00     0.047 C 
ENDBRANCH  25  26
ENDBRANCH   1  24
TORSDOF 8
ENDMDL
