MODEL 1
REMARK VINA RESULT:      -7.5      0.000      0.000
REMARK  4 active torsions:
REMARK  status: ('A' for Active; 'I' for Inactive)
REMARK    1  A    between atoms: C2_2  and  C3_3 
REMARK    2  A    between atoms: C6_6  and  O1_7 
REMARK    3  A    between atoms: C9_10  and  N1_11 
REMARK    4  A    between atoms: N1_11  and  C10_12 
ROOT
HETATM    1  C3  UNL     1      25.233   4.285  49.562  1.00  0.00    -0.062 C 
HETATM    2  C4  UNL     1      24.920   5.291  50.384  1.00  0.00    -0.015 C 
HETATM    3  C5  UNL     1      23.883   6.102  50.993  1.00  0.00     0.093 C 
HETATM    4  C6  UNL     1      22.599   5.486  51.353  1.00  0.00     0.163 A 
HETATM    5  C8  UNL     1      22.693   4.769  52.658  1.00  0.00     0.082 A 
HETATM    6  C9  UNL     1      22.403   3.585  52.193  1.00  0.00     0.107 A 
HETATM    7  N2  UNL     1      22.282   4.186  50.881  1.00  0.00    -0.328 N 
HETATM    8  C16 UNL     1      21.927   3.537  49.627  1.00  0.00     0.161 C 
HETATM    9  C17 UNL     1      23.068   3.139  48.811  1.00  0.00    -0.065 C 
HETATM   10  C18 UNL     1      22.696   2.174  47.745  1.00  0.00     0.045 C 
HETATM   11  C19 UNL     1      24.366   3.427  48.778  1.00  0.00     0.010 C 
ENDROOT
BRANCH   6  12
HETATM   12  N1  UNL     1      22.260   2.279  52.734  1.00  0.00    -0.342 N 
HETATM   13  H13 UNL     1      21.348   1.931  53.114  1.00  0.00     0.167 HD
BRANCH  12  14
HETATM   14  C10 UNL     1      23.307   1.347  52.807  1.00  0.00     0.051 A 
HETATM   15  C11 UNL     1      24.516   1.630  52.171  1.00  0.00     0.031 A 
HETATM   16  C12 UNL     1      25.620   0.780  52.193  1.00  0.00     0.002 A 
HETATM   17  C13 UNL     1      25.531  -0.407  52.877  1.00  0.00     0.002 A 
HETATM   18  C14 UNL     1      24.349  -0.748  53.534  1.00  0.00     0.021 A 
HETATM   19  C15 UNL     1      23.290   0.134  53.476  1.00  0.00     0.037 A 
HETATM   20 BR1  UNL     1      21.690  -0.344  54.391  1.00  0.00    -0.049 Br
ENDBRANCH  12  14
ENDBRANCH   6  12
BRANCH   4  21
HETATM   21  O1  UNL     1      21.536   6.400  51.303  1.00  0.00    -0.361 OA
HETATM   22  C7  UNL     1      21.845   7.342  50.332  1.00  0.00     0.205 C 
ENDBRANCH   4  21
BRANCH   1  23
HETATM   23  C2  UNL     1      26.657   3.965  49.386  1.00  0.00     0.034 C 
HETATM   24  C1  UNL     1      27.325   5.128  48.669  1.00  0.00     0.010 C 
ENDBRANCH   1  23
TORSDOF 4
ENDMDL
MODEL 2
REMARK VINA RESULT:      -7.3      3.195      6.175
REMARK  4 active torsions:
REMARK  status: ('A' for Active; 'I' for Inactive)
REMARK    1  A    between atoms: C2_2  and  C3_3 
REMARK    2  A    between atoms: C6_6  and  O1_7 
REMARK    3  A    between atoms: C9_10  and  N1_11 
REMARK    4  A    between atoms: N1_11  and  C10_12 
ROOT
HETATM    1  C3  UNL     1      22.331  -0.246  53.298  1.00  0.00    -0.062 C 
HETATM    2  C4  UNL     1      23.577  -0.298  53.778  1.00  0.00    -0.015 C 
HETATM    3  C5  UNL     1      24.988  -0.042  53.561  1.00  0.00     0.093 C 
HETATM    4  C6  UNL     1      25.401   1.132  52.780  1.00  0.00     0.163 A 
HETATM    5  C8  UNL     1      25.388   2.366  53.618  1.00  0.00     0.082 A 
HETATM    6  C9  UNL     1      24.496   3.008  52.915  1.00  0.00     0.107 A 
HETATM    7  N2  UNL     1      24.436   1.859  52.035  1.00  0.00    -0.328 N 
HETATM    8  C16 UNL     1      23.629   1.688  50.835  1.00  0.00     0.161 C 
HETATM    9  C17 UNL     1      22.371   0.985  51.052  1.00  0.00    -0.065 C 
HETATM   10  C18 UNL     1      21.425   1.149  49.919  1.00  0.00     0.045 C 
HETATM   11  C19 UNL     1      21.853   0.224  52.013  1.00  0.00     0.010 C 
ENDROOT
BRANCH   6  12
HETATM   12  N1  UNL     1      23.863   4.279  52.976  1.00  0.00    -0.342 N 
HETATM   13  H13 UNL     1      24.169   5.020  53.649  1.00  0.00     0.167 HD
BRANCH  12  14
HETATM   14  C10 UNL     1      22.789   4.655  52.153  1.00  0.00     0.051 A 
HETATM   15  C11 UNL     1      21.548   4.045  52.333  1.00  0.00     0.031 A 
HETATM   16  C12 UNL     1      20.417   4.355  51.580  1.00  0.00     0.002 A 
HETATM   17  C13 UNL     1      20.512   5.314  50.603  1.00  0.00     0.002 A 
HETATM   18  C14 UNL     1      21.727   5.961  50.374  1.00  0.00     0.021 A 
HETATM   19  C15 UNL     1      22.811   5.612  51.152  1.00  0.00     0.037 A 
HETATM   20 BR1  UNL     1      24.455   6.516  50.832  1.00  0.00    -0.049 Br
ENDBRANCH  12  14
ENDBRANCH   6  12
BRANCH   4  21
HETATM   21  O1  UNL     1      26.619   0.929  52.116  1.00  0.00    -0.361 OA
HETATM   22  C7  UNL     1      27.237  -0.164  52.707  1.00  0.00     0.205 C 
ENDBRANCH   4  21
BRANCH   1  23
HETATM   23  C2  UNL     1      21.246  -0.734  54.162  1.00  0.00     0.034 C 
HETATM   24  C1  UNL     1      19.921  -0.486  53.457  1.00  0.00     0.010 C 
ENDBRANCH   1  23
TORSDOF 4
ENDMDL
MODEL 3
REMARK VINA RESULT:      -7.2      2.761      6.068
REMARK  4 active torsions:
REMARK  status: ('A' for Active; 'I' for Inactive)
REMARK    1  A    between atoms: C2_2  and  C3_3 
REMARK    2  A    between atoms: C6_6  and  O1_7 
REMARK    3  A    between atoms: C9_10  and  N1_11 
REMARK    4  A    between atoms: N1_11  and  C10_12 
ROOT
HETATM    1  C3  UNL     1      21.924  -0.194  52.667  1.00  0.00    -0.062 C 
HETATM    2  C4  UNL     1      23.158  -0.073  53.167  1.00  0.00    -0.015 C 
HETATM    3  C5  UNL     1      24.518   0.395  52.978  1.00  0.00     0.093 C 
HETATM    4  C6  UNL     1      24.762   1.635  52.228  1.00  0.00     0.163 A 
HETATM    5  C8  UNL     1      24.554   2.834  53.091  1.00  0.00     0.082 A 
HETATM    6  C9  UNL     1      23.587   3.352  52.387  1.00  0.00     0.107 A 
HETATM    7  N2  UNL     1      23.711   2.227  51.483  1.00  0.00    -0.328 N 
HETATM    8  C16 UNL     1      22.954   1.967  50.266  1.00  0.00     0.161 C 
HETATM    9  C17 UNL     1      21.811   1.080  50.447  1.00  0.00    -0.065 C 
HETATM   10  C18 UNL     1      20.867   1.128  49.302  1.00  0.00     0.045 C 
HETATM   11  C19 UNL     1      21.400   0.229  51.384  1.00  0.00     0.010 C 
ENDROOT
BRANCH   6  12
HETATM   12  N1  UNL     1      22.771   4.514  52.464  1.00  0.00    -0.342 N 
HETATM   13  H13 UNL     1      22.063   4.646  53.223  1.00  0.00     0.167 HD
BRANCH  12  14
HETATM   14  C10 UNL     1      22.840   5.576  51.548  1.00  0.00     0.051 A 
HETATM   15  C11 UNL     1      23.958   6.411  51.557  1.00  0.00     0.031 A 
HETATM   16  C12 UNL     1      24.129   7.482  50.682  1.00  0.00     0.002 A 
HETATM   17  C13 UNL     1      23.154   7.744  49.753  1.00  0.00     0.002 A 
HETATM   18  C14 UNL     1      22.012   6.945  49.694  1.00  0.00     0.021 A 
HETATM   19  C15 UNL     1      21.898   5.899  50.585  1.00  0.00     0.037 A 
HETATM   20 BR1  UNL     1      20.339   4.812  50.479  1.00  0.00    -0.049 Br
ENDBRANCH  12  14
ENDBRANCH   6  12
BRANCH   4  21
HETATM   21  O1  UNL     1      26.006   1.630  51.581  1.00  0.00    -0.361 OA
HETATM   22  C7  UNL     1      26.650   0.451  51.927  1.00  0.00     0.205 C 
ENDBRANCH   4  21
BRANCH   1  23
HETATM   23  C2  UNL     1      20.913  -0.858  53.502  1.00  0.00     0.034 C 
HETATM   24  C1  UNL     1      21.629  -1.670  54.571  1.00  0.00     0.010 C 
ENDBRANCH   1  23
TORSDOF 4
ENDMDL
MODEL 4
REMARK VINA RESULT:      -7.2      2.403      4.543
REMARK  4 active torsions:
REMARK  status: ('A' for Active; 'I' for Inactive)
REMARK    1  A    between atoms: C2_2  and  C3_3 
REMARK    2  A    between atoms: C6_6  and  O1_7 
REMARK    3  A    between atoms: C9_10  and  N1_11 
REMARK    4  A    between atoms: N1_11  and  C10_12 
ROOT
HETATM    1  C3  UNL     1      25.777   3.642  50.414  1.00  0.00    -0.062 C 
HETATM    2  C4  UNL     1      26.554   2.753  51.040  1.00  0.00    -0.015 C 
HETATM    3  C5  UNL     1      26.883   2.063  52.273  1.00  0.00     0.093 C 
HETATM    4  C6  UNL     1      25.811   1.696  53.207  1.00  0.00     0.163 A 
HETATM    5  C8  UNL     1      25.131   0.439  52.779  1.00  0.00     0.082 A 
HETATM    6  C9  UNL     1      23.946   0.962  52.624  1.00  0.00     0.107 A 
HETATM    7  N2  UNL     1      24.509   2.232  53.033  1.00  0.00    -0.328 N 
HETATM    8  C16 UNL     1      23.826   3.510  53.183  1.00  0.00     0.161 C 
HETATM    9  C17 UNL     1      23.926   4.385  52.021  1.00  0.00    -0.065 C 
HETATM   10  C18 UNL     1      22.936   5.492  52.056  1.00  0.00     0.045 C 
HETATM   11  C19 UNL     1      24.687   4.444  50.932  1.00  0.00     0.010 C 
ENDROOT
BRANCH   6  12
HETATM   12  N1  UNL     1      22.662   0.493  52.234  1.00  0.00    -0.342 N 
HETATM   13  H13 UNL     1      22.154  -0.247  52.771  1.00  0.00     0.167 HD
BRANCH  12  14
HETATM   14  C10 UNL     1      21.967   0.972  51.112  1.00  0.00     0.051 A 
HETATM   15  C11 UNL     1      22.683   1.541  50.059  1.00  0.00     0.031 A 
HETATM   16  C12 UNL     1      22.090   2.033  48.897  1.00  0.00     0.002 A 
HETATM   17  C13 UNL     1      20.727   1.960  48.764  1.00  0.00     0.002 A 
HETATM   18  C14 UNL     1      19.954   1.401  49.783  1.00  0.00     0.021 A 
HETATM   19  C15 UNL     1      20.597   0.931  50.909  1.00  0.00     0.037 A 
HETATM   20 BR1  UNL     1      19.526   0.160  52.281  1.00  0.00    -0.049 Br
ENDBRANCH  12  14
ENDBRANCH   6  12
BRANCH   4  21
HETATM   21  O1  UNL     1      26.253   1.658  54.538  1.00  0.00    -0.361 OA
HETATM   22  C7  UNL     1      26.706   0.371  54.787  1.00  0.00     0.205 C 
ENDBRANCH   4  21
BRANCH   1  23
HETATM   23  C2  UNL     1      26.031   3.883  48.986  1.00  0.00     0.034 C 
HETATM   24  C1  UNL     1      27.362   4.607  48.850  1.00  0.00     0.010 C 
ENDBRANCH   1  23
TORSDOF 4
ENDMDL
MODEL 5
REMARK VINA RESULT:      -7.1      2.731      5.494
REMARK  4 active torsions:
REMARK  status: ('A' for Active; 'I' for Inactive)
REMARK    1  A    between atoms: C2_2  and  C3_3 
REMARK    2  A    between atoms: C6_6  and  O1_7 
REMARK    3  A    between atoms: C9_10  and  N1_11 
REMARK    4  A    between atoms: N1_11  and  C10_12 
ROOT
HETATM    1  C3  UNL     1      24.308   1.081  52.984  1.00  0.00    -0.062 C 
HETATM    2  C4  UNL     1      23.348   0.206  52.671  1.00  0.00    -0.015 C 
HETATM    3  C5  UNL     1      21.955  -0.020  52.333  1.00  0.00     0.093 C 
HETATM    4  C6  UNL     1      21.236   0.971  51.521  1.00  0.00     0.163 A 
HETATM    5  C8  UNL     1      21.534   0.796  50.070  1.00  0.00     0.082 A 
HETATM    6  C9  UNL     1      22.064   1.975  49.889  1.00  0.00     0.107 A 
HETATM    7  N2  UNL     1      21.813   2.246  51.289  1.00  0.00    -0.328 N 
HETATM    8  C16 UNL     1      22.097   3.467  52.031  1.00  0.00     0.161 C 
HETATM    9  C17 UNL     1      23.362   3.450  52.755  1.00  0.00    -0.065 C 
HETATM   10  C18 UNL     1      23.789   4.806  53.185  1.00  0.00     0.045 C 
HETATM   11  C19 UNL     1      24.235   2.520  53.133  1.00  0.00     0.010 C 
ENDROOT
BRANCH   6  12
HETATM   12  N1  UNL     1      22.630   2.687  48.797  1.00  0.00    -0.342 N 
HETATM   13  H13 UNL     1      22.291   2.560  47.815  1.00  0.00     0.167 HD
BRANCH  12  14
HETATM   14  C10 UNL     1      23.678   3.612  48.930  1.00  0.00     0.051 A 
HETATM   15  C11 UNL     1      24.897   3.187  49.460  1.00  0.00     0.031 A 
HETATM   16  C12 UNL     1      26.002   4.021  49.621  1.00  0.00     0.002 A 
HETATM   17  C13 UNL     1      25.904   5.336  49.243  1.00  0.00     0.002 A 
HETATM   18  C14 UNL     1      24.710   5.822  48.706  1.00  0.00     0.021 A 
HETATM   19  C15 UNL     1      23.651   4.949  48.570  1.00  0.00     0.037 A 
HETATM   20 BR1  UNL     1      22.037   5.628  47.824  1.00  0.00    -0.049 Br
ENDBRANCH  12  14
ENDBRANCH   6  12
BRANCH   4  21
HETATM   21  O1  UNL     1      19.862   0.994  51.803  1.00  0.00    -0.361 OA
HETATM   22  C7  UNL     1      19.612  -0.005  52.732  1.00  0.00     0.205 C 
ENDBRANCH   4  21
BRANCH   1  23
HETATM   23  C2  UNL     1      25.658   0.553  53.232  1.00  0.00     0.034 C 
HETATM   24  C1  UNL     1      26.494   0.765  51.979  1.00  0.00     0.010 C 
ENDBRANCH   1  23
TORSDOF 4
ENDMDL
MODEL 6
REMARK VINA RESULT:      -6.8      2.794      5.410
REMARK  4 active torsions:
REMARK  status: ('A' for Active; 'I' for Inactive)
REMARK    1  A    between atoms: C2_2  and  C3_3 
REMARK    2  A    between atoms: C6_6  and  O1_7 
REMARK    3  A    between atoms: C9_10  and  N1_11 
REMARK    4  A    between atoms: N1_11  and  C10_12 
ROOT
HETATM    1  C3  UNL     1      24.334   2.336  51.678  1.00  0.00    -0.062 C 
HETATM    2  C4  UNL     1      24.040   1.205  52.326  1.00  0.00    -0.015 C 
HETATM    3  C5  UNL     1      23.111   0.481  53.173  1.00  0.00     0.093 C 
HETATM    4  C6  UNL     1      21.667   0.700  53.019  1.00  0.00     0.163 A 
HETATM    5  C8  UNL     1      21.121  -0.093  51.879  1.00  0.00     0.082 A 
HETATM    6  C9  UNL     1      20.704   0.926  51.181  1.00  0.00     0.107 A 
HETATM    7  N2  UNL     1      21.197   1.787  52.236  1.00  0.00    -0.328 N 
HETATM    8  C16 UNL     1      21.129   3.239  52.314  1.00  0.00     0.161 C 
HETATM    9  C17 UNL     1      22.331   3.923  51.851  1.00  0.00    -0.065 C 
HETATM   10  C18 UNL     1      22.100   5.368  51.599  1.00  0.00     0.045 C 
HETATM   11  C19 UNL     1      23.590   3.578  51.599  1.00  0.00     0.010 C 
ENDROOT
BRANCH   6  12
HETATM   12  N1  UNL     1      20.045   1.114  49.935  1.00  0.00    -0.342 N 
HETATM   13  H13 UNL     1      19.103   0.703  49.737  1.00  0.00     0.167 HD
BRANCH  12  14
HETATM   14  C10 UNL     1      20.586   1.856  48.873  1.00  0.00     0.051 A 
HETATM   15  C11 UNL     1      21.940   1.720  48.568  1.00  0.00     0.031 A 
HETATM   16  C12 UNL     1      22.570   2.401  47.527  1.00  0.00     0.002 A 
HETATM   17  C13 UNL     1      21.832   3.256  46.749  1.00  0.00     0.002 A 
HETATM   18  C14 UNL     1      20.472   3.435  47.004  1.00  0.00     0.021 A 
HETATM   19  C15 UNL     1      19.903   2.734  48.047  1.00  0.00     0.037 A 
HETATM   20 BR1  UNL     1      18.044   2.984  48.370  1.00  0.00    -0.049 Br
ENDBRANCH  12  14
ENDBRANCH   6  12
BRANCH   4  21
HETATM   21  O1  UNL     1      20.966   0.498  54.217  1.00  0.00    -0.361 OA
HETATM   22  C7  UNL     1      21.405  -0.702  54.757  1.00  0.00     0.205 C 
ENDBRANCH   4  21
BRANCH   1  23
HETATM   23  C2  UNL     1      25.595   2.382  50.924  1.00  0.00     0.034 C 
HETATM   24  C1  UNL     1      25.460   3.423  49.823  1.00  0.00     0.010 C 
ENDBRANCH   1  23
TORSDOF 4
ENDMDL
MODEL 7
REMARK VINA RESULT:      -6.7      6.867     10.337
REMARK  4 active torsions:
REMARK  status: ('A' for Active; 'I' for Inactive)
REMARK    1  A    between atoms: C2_2  and  C3_3 
REMARK    2  A    between atoms: C6_6  and  O1_7 
REMARK    3  A    between atoms: C9_10  and  N1_11 
REMARK    4  A    between atoms: N1_11  and  C10_12 
ROOT
HETATM    1  C3  UNL     1      28.832   5.934  48.076  1.00  0.00    -0.062 C 
HETATM    2  C4  UNL     1      30.058   5.596  48.486  1.00  0.00    -0.015 C 
HETATM    3  C5  UNL     1      31.485   5.850  48.428  1.00  0.00     0.093 C 
HETATM    4  C6  UNL     1      31.972   7.230  48.300  1.00  0.00     0.163 A 
HETATM    5  C8  UNL     1      31.983   7.922  49.622  1.00  0.00     0.082 A 
HETATM    6  C9  UNL     1      31.142   8.865  49.298  1.00  0.00     0.107 A 
HETATM    7  N2  UNL     1      31.064   8.272  47.979  1.00  0.00    -0.328 N 
HETATM    8  C16 UNL     1      30.290   8.731  46.834  1.00  0.00     0.161 C 
HETATM    9  C17 UNL     1      28.997   8.076  46.680  1.00  0.00    -0.065 C 
HETATM   10  C18 UNL     1      28.097   8.805  45.750  1.00  0.00     0.045 C 
HETATM   11  C19 UNL     1      28.417   6.980  47.162  1.00  0.00     0.010 C 
ENDROOT
BRANCH   6  12
HETATM   12  N1  UNL     1      30.562   9.987  49.948  1.00  0.00    -0.342 N 
HETATM   13  H13 UNL     1      30.698  10.170  50.970  1.00  0.00     0.167 HD
BRANCH  12  14
HETATM   14  C10 UNL     1      29.767  10.942  49.293  1.00  0.00     0.051 A 
HETATM   15  C11 UNL     1      30.379  12.050  48.706  1.00  0.00     0.031 A 
HETATM   16  C12 UNL     1      29.683  13.045  48.023  1.00  0.00     0.002 A 
HETATM   17  C13 UNL     1      28.319  12.945  47.909  1.00  0.00     0.002 A 
HETATM   18  C14 UNL     1      27.649  11.860  48.474  1.00  0.00     0.021 A 
HETATM   19  C15 UNL     1      28.391  10.906  49.139  1.00  0.00     0.037 A 
HETATM   20 BR1  UNL     1      27.458   9.427  49.891  1.00  0.00    -0.049 Br
ENDBRANCH  12  14
ENDBRANCH   6  12
BRANCH   4  21
HETATM   21  O1  UNL     1      33.202   7.301  47.631  1.00  0.00    -0.361 OA
HETATM   22  C7  UNL     1      34.061   6.401  48.244  1.00  0.00     0.205 C 
ENDBRANCH   4  21
BRANCH   1  23
HETATM   23  C2  UNL     1      27.700   5.154  48.595  1.00  0.00     0.034 C 
HETATM   24  C1  UNL     1      26.479   6.058  48.655  1.00  0.00     0.010 C 
ENDBRANCH   1  23
TORSDOF 4
ENDMDL
MODEL 8
REMARK VINA RESULT:      -6.5      3.052      6.107
REMARK  4 active torsions:
REMARK  status: ('A' for Active; 'I' for Inactive)
REMARK    1  A    between atoms: C2_2  and  C3_3 
REMARK    2  A    between atoms: C6_6  and  O1_7 
REMARK    3  A    between atoms: C9_10  and  N1_11 
REMARK    4  A    between atoms: N1_11  and  C10_12 
ROOT
HETATM    1  C3  UNL     1      20.879   0.817  50.745  1.00  0.00    -0.062 C 
HETATM    2  C4  UNL     1      21.637   0.446  51.782  1.00  0.00    -0.015 C 
HETATM    3  C5  UNL     1      22.962   0.366  52.368  1.00  0.00     0.093 C 
HETATM    4  C6  UNL     1      23.932   1.440  52.117  1.00  0.00     0.163 A 
HETATM    5  C8  UNL     1      23.691   2.604  53.020  1.00  0.00     0.082 A 
HETATM    6  C9  UNL     1      23.450   3.470  52.075  1.00  0.00     0.107 A 
HETATM    7  N2  UNL     1      23.670   2.409  51.115  1.00  0.00    -0.328 N 
HETATM    8  C16 UNL     1      23.622   2.490  49.662  1.00  0.00     0.161 C 
HETATM    9  C17 UNL     1      22.343   2.100  49.079  1.00  0.00    -0.065 C 
HETATM   10  C18 UNL     1      22.205   2.536  47.667  1.00  0.00     0.045 C 
HETATM   11  C19 UNL     1      21.263   1.444  49.496  1.00  0.00     0.010 C 
ENDROOT
BRANCH   6  12
HETATM   12  N1  UNL     1      23.124   4.852  52.012  1.00  0.00    -0.342 N 
HETATM   13  H13 UNL     1      23.647   5.573  52.563  1.00  0.00     0.167 HD
BRANCH  12  14
HETATM   14  C10 UNL     1      22.090   5.373  51.216  1.00  0.00     0.051 A 
HETATM   15  C11 UNL     1      20.901   4.654  51.090  1.00  0.00     0.031 A 
HETATM   16  C12 UNL     1      19.812   5.088  50.337  1.00  0.00     0.002 A 
HETATM   17  C13 UNL     1      19.896   6.288  49.677  1.00  0.00     0.002 A 
HETATM   18  C14 UNL     1      21.059   7.054  49.764  1.00  0.00     0.021 A 
HETATM   19  C15 UNL     1      22.104   6.573  50.524  1.00  0.00     0.037 A 
HETATM   20 BR1  UNL     1      23.677   7.639  50.641  1.00  0.00    -0.049 Br
ENDBRANCH  12  14
ENDBRANCH   6  12
BRANCH   4  21
HETATM   21  O1  UNL     1      25.257   0.981  52.153  1.00  0.00    -0.361 OA
HETATM   22  C7  UNL     1      25.363   0.104  53.223  1.00  0.00     0.205 C 
ENDBRANCH   4  21
BRANCH   1  23
HETATM   23  C2  UNL     1      19.434   0.565  50.833  1.00  0.00     0.034 C 
HETATM   24  C1  UNL     1      19.144  -0.113  52.163  1.00  0.00     0.010 C 
ENDBRANCH   1  23
TORSDOF 4
ENDMDL
MODEL 9
REMARK VINA RESULT:      -6.4      6.400      9.546
REMARK  4 active torsions:
REMARK  status: ('A' for Active; 'I' for Inactive)
REMARK    1  A    between atoms: C2_2  and  C3_3 
REMARK    2  A    between atoms: C6_6  and  O1_7 
REMARK    3  A    between atoms: C9_10  and  N1_11 
REMARK    4  A    between atoms: N1_11  and  C10_12 
ROOT
HETATM    1  C3  UNL     1      31.346   8.717  46.039  1.00  0.00    -0.062 C 
HETATM    2  C4  UNL     1      31.926   7.524  45.882  1.00  0.00    -0.015 C 
HETATM    3  C5  UNL     1      32.568   6.379  46.501  1.00  0.00     0.093 C 
HETATM    4  C6  UNL     1      32.118   5.922  47.822  1.00  0.00     0.163 A 
HETATM    5  C8  UNL     1      30.895   5.074  47.710  1.00  0.00     0.082 A 
HETATM    6  C9  UNL     1      30.119   5.846  48.419  1.00  0.00     0.107 A 
HETATM    7  N2  UNL     1      31.248   6.736  48.593  1.00  0.00    -0.328 N 
HETATM    8  C16 UNL     1      31.302   7.980  49.348  1.00  0.00     0.161 C 
HETATM    9  C17 UNL     1      31.092   9.180  48.546  1.00  0.00    -0.065 C 
HETATM   10  C18 UNL     1      30.789  10.373  49.376  1.00  0.00     0.045 C 
HETATM   11  C19 UNL     1      31.108   9.478  47.249  1.00  0.00     0.010 C 
ENDROOT
BRANCH   6  12
HETATM   12  N1  UNL     1      28.764   5.822  48.845  1.00  0.00    -0.342 N 
HETATM   13  H13 UNL     1      28.446   5.243  49.657  1.00  0.00     0.167 HD
BRANCH  12  14
HETATM   14  C10 UNL     1      27.741   6.563  48.230  1.00  0.00     0.051 A 
HETATM   15  C11 UNL     1      28.078   7.545  47.298  1.00  0.00     0.031 A 
HETATM   16  C12 UNL     1      27.141   8.324  46.623  1.00  0.00     0.002 A 
HETATM   17  C13 UNL     1      25.807   8.127  46.876  1.00  0.00     0.002 A 
HETATM   18  C14 UNL     1      25.406   7.160  47.798  1.00  0.00     0.021 A 
HETATM   19  C15 UNL     1      26.379   6.419  48.435  1.00  0.00     0.037 A 
HETATM   20 BR1  UNL     1      25.809   5.095  49.679  1.00  0.00    -0.049 Br
ENDBRANCH  12  14
ENDBRANCH   6  12
BRANCH   4  21
HETATM   21  O1  UNL     1      33.147   5.311  48.554  1.00  0.00    -0.361 OA
HETATM   22  C7  UNL     1      33.665   4.292  47.768  1.00  0.00     0.205 C 
ENDBRANCH   4  21
BRANCH   1  23
HETATM   23  C2  UNL     1      30.868   9.408  44.832  1.00  0.00     0.034 C 
HETATM   24  C1  UNL     1      29.868  10.474  45.253  1.00  0.00     0.010 C 
ENDBRANCH   1  23
TORSDOF 4
ENDMDL
