MODEL 1
REMARK VINA RESULT:      -8.1      0.000      0.000
REMARK  2 active torsions:
REMARK  status: ('A' for Active; 'I' for Inactive)
REMARK    1  A    between atoms: C7_9  and  C8_10 
REMARK    2  A    between atoms: C9_11  and  C10_12 
ROOT
HETATM    1  S1  UNL     1      28.999  -0.893  53.458  1.00  0.00    -0.037 SA
HETATM    2  C1  UNL     1      27.757  -0.159  54.215  1.00  0.00     0.215 C 
HETATM    3  N1  UNL     1      28.667   0.627  54.972  1.00  0.00    -0.217 NA
HETATM    4  C2  UNL     1      28.962   1.806  54.640  1.00  0.00     0.088 C 
HETATM    5  C3  UNL     1      28.733   2.165  53.414  1.00  0.00     0.034 C 
HETATM    6  C4  UNL     1      27.534   1.748  52.716  1.00  0.00    -0.001 C 
HETATM    7  C5  UNL     1      26.260   1.514  52.456  1.00  0.00    -0.021 C 
HETATM    8  C6  UNL     1      24.876   1.224  52.089  1.00  0.00     0.088 C 
HETATM    9  C7  UNL     1      24.340   0.227  53.059  1.00  0.00     0.058 C 
HETATM   10  N2  UNL     1      24.965  -0.464  53.982  1.00  0.00    -0.177 NA
HETATM   11  N3  UNL     1      26.320  -0.289  54.121  1.00  0.00    -0.251 N 
HETATM   12  H12 UNL     1      26.371  -1.077  53.400  1.00  0.00     0.191 HD
ENDROOT
BRANCH   9  13
HETATM   13  C8  UNL     1      22.974  -0.223  53.140  1.00  0.00     0.030 C 
HETATM   14  C9  UNL     1      22.043   0.341  52.413  1.00  0.00     0.015 C 
BRANCH  14  15
HETATM   15  C10 UNL     1      20.650  -0.084  52.464  1.00  0.00    -0.014 A 
HETATM   16  C11 UNL     1      20.138  -0.848  53.483  1.00  0.00     0.013 A 
HETATM   17  C12 UNL     1      18.840  -1.258  53.547  1.00  0.00     0.001 A 
HETATM   18  C13 UNL     1      17.940  -0.911  52.550  1.00  0.00     0.002 A 
HETATM   19  C14 UNL     1      18.444  -0.142  51.520  1.00  0.00     0.024 A 
HETATM   20  C15 UNL     1      19.746   0.250  51.488  1.00  0.00     0.044 A 
HETATM   21 CL1  UNL     1      20.267   1.220  50.132  1.00  0.00    -0.083 Cl
ENDBRANCH  14  15
ENDBRANCH   9  13
TORSDOF 2
ENDMDL
MODEL 2
REMARK VINA RESULT:      -8.0      3.958      7.713
REMARK  2 active torsions:
REMARK  status: ('A' for Active; 'I' for Inactive)
REMARK    1  A    between atoms: C7_9  and  C8_10 
REMARK    2  A    between atoms: C9_11  and  C10_12 
ROOT
HETATM    1  S1  UNL     1      20.927   2.082  49.041  1.00  0.00    -0.037 SA
HETATM    2  C1  UNL     1      21.928   2.643  50.198  1.00  0.00     0.215 C 
HETATM    3  N1  UNL     1      21.294   3.915  50.147  1.00  0.00    -0.217 NA
HETATM    4  C2  UNL     1      20.401   4.246  50.972  1.00  0.00     0.088 C 
HETATM    5  C3  UNL     1      19.798   3.298  51.624  1.00  0.00     0.034 C 
HETATM    6  C4  UNL     1      20.521   2.146  52.124  1.00  0.00    -0.001 C 
HETATM    7  C5  UNL     1      21.443   1.419  52.728  1.00  0.00    -0.021 C 
HETATM    8  C6  UNL     1      22.418   0.541  53.372  1.00  0.00     0.088 C 
HETATM    9  C7  UNL     1      23.736   0.750  52.709  1.00  0.00     0.058 C 
HETATM   10  N2  UNL     1      24.030   1.422  51.623  1.00  0.00    -0.177 NA
HETATM   11  N3  UNL     1      23.011   2.048  50.948  1.00  0.00    -0.251 N 
HETATM   12  H12 UNL     1      22.944   1.114  50.433  1.00  0.00     0.191 HD
ENDROOT
BRANCH   9  13
HETATM   13  C8  UNL     1      24.993   0.185  53.131  1.00  0.00     0.030 C 
HETATM   14  C9  UNL     1      26.103   0.494  52.509  1.00  0.00     0.015 C 
BRANCH  14  15
HETATM   15  C10 UNL     1      27.394  -0.054  52.903  1.00  0.00    -0.014 A 
HETATM   16  C11 UNL     1      27.687  -1.394  52.848  1.00  0.00     0.013 A 
HETATM   17  C12 UNL     1      28.885  -1.926  53.215  1.00  0.00     0.001 A 
HETATM   18  C13 UNL     1      29.908  -1.111  53.678  1.00  0.00     0.002 A 
HETATM   19  C14 UNL     1      29.626   0.239  53.738  1.00  0.00     0.024 A 
HETATM   20  C15 UNL     1      28.417   0.737  53.363  1.00  0.00     0.044 A 
HETATM   21 CL1  UNL     1      28.177   2.463  53.483  1.00  0.00    -0.083 Cl
ENDBRANCH  14  15
ENDBRANCH   9  13
TORSDOF 2
ENDMDL
MODEL 3
REMARK VINA RESULT:      -7.8      4.675      6.905
REMARK  2 active torsions:
REMARK  status: ('A' for Active; 'I' for Inactive)
REMARK    1  A    between atoms: C7_9  and  C8_10 
REMARK    2  A    between atoms: C9_11  and  C10_12 
ROOT
HETATM    1  S1  UNL     1      28.587   0.326  55.143  1.00  0.00    -0.037 SA
HETATM    2  C1  UNL     1      28.722   0.618  53.546  1.00  0.00     0.215 C 
HETATM    3  N1  UNL     1      29.653  -0.449  53.418  1.00  0.00    -0.217 NA
HETATM    4  C2  UNL     1      29.303  -1.593  53.024  1.00  0.00     0.088 C 
HETATM    5  C3  UNL     1      28.043  -1.899  53.100  1.00  0.00     0.034 C 
HETATM    6  C4  UNL     1      27.010  -0.936  52.778  1.00  0.00    -0.001 C 
HETATM    7  C5  UNL     1      26.328  -0.009  52.129  1.00  0.00    -0.021 C 
HETATM    8  C6  UNL     1      25.513   1.014  51.478  1.00  0.00     0.088 C 
HETATM    9  C7  UNL     1      26.336   2.250  51.355  1.00  0.00     0.058 C 
HETATM   10  N2  UNL     1      27.507   2.532  51.872  1.00  0.00    -0.177 NA
HETATM   11  N3  UNL     1      28.117   1.586  52.658  1.00  0.00    -0.251 N 
HETATM   12  H12 UNL     1      27.578   2.070  53.444  1.00  0.00     0.191 HD
ENDROOT
BRANCH   9  13
HETATM   13  C8  UNL     1      25.961   3.448  50.648  1.00  0.00     0.030 C 
HETATM   14  C9  UNL     1      26.788   4.008  49.802  1.00  0.00     0.015 C 
BRANCH  14  15
HETATM   15  C10 UNL     1      26.449   5.220  49.066  1.00  0.00    -0.014 A 
HETATM   16  C11 UNL     1      25.169   5.706  48.975  1.00  0.00     0.013 A 
HETATM   17  C12 UNL     1      24.831   6.834  48.290  1.00  0.00     0.001 A 
HETATM   18  C13 UNL     1      25.799   7.574  47.627  1.00  0.00     0.002 A 
HETATM   19  C14 UNL     1      27.091   7.094  47.711  1.00  0.00     0.024 A 
HETATM   20  C15 UNL     1      27.393   5.964  48.404  1.00  0.00     0.044 A 
HETATM   21 CL1  UNL     1      29.064   5.456  48.439  1.00  0.00    -0.083 Cl
ENDBRANCH  14  15
ENDBRANCH   9  13
TORSDOF 2
ENDMDL
MODEL 4
REMARK VINA RESULT:      -7.7      5.981      7.051
REMARK  2 active torsions:
REMARK  status: ('A' for Active; 'I' for Inactive)
REMARK    1  A    between atoms: C7_9  and  C8_10 
REMARK    2  A    between atoms: C9_11  and  C10_12 
ROOT
HETATM    1  S1  UNL     1      27.183   8.934  50.030  1.00  0.00    -0.037 SA
HETATM    2  C1  UNL     1      26.136   7.902  49.327  1.00  0.00     0.215 C 
HETATM    3  N1  UNL     1      26.042   8.752  48.191  1.00  0.00    -0.217 NA
HETATM    4  C2  UNL     1      26.715   8.541  47.147  1.00  0.00     0.088 C 
HETATM    5  C3  UNL     1      27.763   7.780  47.245  1.00  0.00     0.034 C 
HETATM    6  C4  UNL     1      27.757   6.589  48.069  1.00  0.00    -0.001 C 
HETATM    7  C5  UNL     1      27.376   5.439  48.597  1.00  0.00    -0.021 C 
HETATM    8  C6  UNL     1      27.028   4.170  49.231  1.00  0.00     0.088 C 
HETATM    9  C7  UNL     1      25.733   4.350  49.945  1.00  0.00     0.058 C 
HETATM   10  N2  UNL     1      25.052   5.446  50.183  1.00  0.00    -0.177 NA
HETATM   11  N3  UNL     1      25.561   6.639  49.734  1.00  0.00    -0.251 N 
HETATM   12  H12 UNL     1      26.043   6.651  50.688  1.00  0.00     0.191 HD
ENDROOT
BRANCH   9  13
HETATM   13  C8  UNL     1      24.967   3.309  50.583  1.00  0.00     0.030 C 
HETATM   14  C9  UNL     1      25.457   2.654  51.605  1.00  0.00     0.015 C 
BRANCH  14  15
HETATM   15  C10 UNL     1      24.716   1.595  52.278  1.00  0.00    -0.014 A 
HETATM   16  C11 UNL     1      23.384   1.696  52.593  1.00  0.00     0.013 A 
HETATM   17  C12 UNL     1      22.676   0.720  53.225  1.00  0.00     0.001 A 
HETATM   18  C13 UNL     1      23.288  -0.469  53.595  1.00  0.00     0.002 A 
HETATM   19  C14 UNL     1      24.627  -0.583  53.284  1.00  0.00     0.024 A 
HETATM   20  C15 UNL     1      25.304   0.413  52.652  1.00  0.00     0.044 A 
HETATM   21 CL1  UNL     1      26.998   0.153  52.311  1.00  0.00    -0.083 Cl
ENDBRANCH  14  15
ENDBRANCH   9  13
TORSDOF 2
ENDMDL
MODEL 5
REMARK VINA RESULT:      -7.6      4.496      7.712
REMARK  2 active torsions:
REMARK  status: ('A' for Active; 'I' for Inactive)
REMARK    1  A    between atoms: C7_9  and  C8_10 
REMARK    2  A    between atoms: C9_11  and  C10_12 
ROOT
HETATM    1  S1  UNL     1      20.373   0.145  51.721  1.00  0.00    -0.037 SA
HETATM    2  C1  UNL     1      21.312   1.232  52.490  1.00  0.00     0.215 C 
HETATM    3  N1  UNL     1      20.572   1.042  53.689  1.00  0.00    -0.217 NA
HETATM    4  C2  UNL     1      20.974   0.275  54.603  1.00  0.00     0.088 C 
HETATM    5  C3  UNL     1      21.859  -0.623  54.294  1.00  0.00     0.034 C 
HETATM    6  C4  UNL     1      22.954  -0.327  53.392  1.00  0.00    -0.001 C 
HETATM    7  C5  UNL     1      23.982   0.291  52.840  1.00  0.00    -0.021 C 
HETATM    8  C6  UNL     1      25.124   0.909  52.169  1.00  0.00     0.088 C 
HETATM    9  C7  UNL     1      24.697   2.246  51.670  1.00  0.00     0.058 C 
HETATM   10  N2  UNL     1      23.500   2.779  51.619  1.00  0.00    -0.177 NA
HETATM   11  N3  UNL     1      22.438   2.040  52.077  1.00  0.00    -0.251 N 
HETATM   12  H12 UNL     1      22.401   1.695  51.066  1.00  0.00     0.191 HD
ENDROOT
BRANCH   9  13
HETATM   13  C8  UNL     1      25.556   3.240  51.075  1.00  0.00     0.030 C 
HETATM   14  C9  UNL     1      25.282   3.734  49.894  1.00  0.00     0.015 C 
BRANCH  14  15
HETATM   15  C10 UNL     1      26.122   4.739  49.257  1.00  0.00    -0.014 A 
HETATM   16  C11 UNL     1      27.420   4.500  48.879  1.00  0.00     0.013 A 
HETATM   17  C12 UNL     1      28.222   5.427  48.286  1.00  0.00     0.001 A 
HETATM   18  C13 UNL     1      27.751   6.705  48.025  1.00  0.00     0.002 A 
HETATM   19  C14 UNL     1      26.447   6.958  48.400  1.00  0.00     0.024 A 
HETATM   20  C15 UNL     1      25.673   6.008  48.991  1.00  0.00     0.044 A 
HETATM   21 CL1  UNL     1      24.038   6.447  49.421  1.00  0.00    -0.083 Cl
ENDBRANCH  14  15
ENDBRANCH   9  13
TORSDOF 2
ENDMDL
MODEL 6
REMARK VINA RESULT:      -7.4      5.063      7.948
REMARK  2 active torsions:
REMARK  status: ('A' for Active; 'I' for Inactive)
REMARK    1  A    between atoms: C7_9  and  C8_10 
REMARK    2  A    between atoms: C9_11  and  C10_12 
ROOT
HETATM    1  S1  UNL     1      22.172   4.256  47.795  1.00  0.00    -0.037 SA
HETATM    2  C1  UNL     1      23.375   4.654  48.820  1.00  0.00     0.215 C 
HETATM    3  N1  UNL     1      22.965   6.015  48.792  1.00  0.00    -0.217 NA
HETATM    4  C2  UNL     1      22.238   6.508  49.695  1.00  0.00     0.088 C 
HETATM    5  C3  UNL     1      21.557   5.689  50.439  1.00  0.00     0.034 C 
HETATM    6  C4  UNL     1      22.124   4.438  50.900  1.00  0.00    -0.001 C 
HETATM    7  C5  UNL     1      22.970   3.571  51.428  1.00  0.00    -0.021 C 
HETATM    8  C6  UNL     1      23.846   2.549  51.995  1.00  0.00     0.088 C 
HETATM    9  C7  UNL     1      25.099   2.516  51.189  1.00  0.00     0.058 C 
HETATM   10  N2  UNL     1      25.382   3.110  50.055  1.00  0.00    -0.177 NA
HETATM   11  N3  UNL     1      24.417   3.892  49.471  1.00  0.00    -0.251 N 
HETATM   12  H12 UNL     1      24.136   2.976  48.998  1.00  0.00     0.191 HD
ENDROOT
BRANCH   9  13
HETATM   13  C8  UNL     1      26.280   1.749  51.495  1.00  0.00     0.030 C 
HETATM   14  C9  UNL     1      26.354   1.053  52.602  1.00  0.00     0.015 C 
BRANCH  14  15
HETATM   15  C10 UNL     1      27.528   0.264  52.949  1.00  0.00    -0.014 A 
HETATM   16  C11 UNL     1      27.578  -1.101  52.818  1.00  0.00     0.013 A 
HETATM   17  C12 UNL     1      28.665  -1.857  53.140  1.00  0.00     0.001 A 
HETATM   18  C13 UNL     1      29.817  -1.262  53.634  1.00  0.00     0.002 A 
HETATM   19  C14 UNL     1      29.778   0.111  53.771  1.00  0.00     0.024 A 
HETATM   20  C15 UNL     1      28.676   0.834  53.439  1.00  0.00     0.044 A 
HETATM   21 CL1  UNL     1      28.747   2.566  53.655  1.00  0.00    -0.083 Cl
ENDBRANCH  14  15
ENDBRANCH   9  13
TORSDOF 2
ENDMDL
MODEL 7
REMARK VINA RESULT:      -7.3      5.057      7.904
REMARK  2 active torsions:
REMARK  status: ('A' for Active; 'I' for Inactive)
REMARK    1  A    between atoms: C7_9  and  C8_10 
REMARK    2  A    between atoms: C9_11  and  C10_12 
ROOT
HETATM    1  S1  UNL     1      26.703   0.677  54.430  1.00  0.00    -0.037 SA
HETATM    2  C1  UNL     1      26.374   0.622  52.835  1.00  0.00     0.215 C 
HETATM    3  N1  UNL     1      25.807  -0.673  52.984  1.00  0.00    -0.217 NA
HETATM    4  C2  UNL     1      24.564  -0.845  53.092  1.00  0.00     0.088 C 
HETATM    5  C3  UNL     1      23.840   0.173  53.446  1.00  0.00     0.034 C 
HETATM    6  C4  UNL     1      24.104   1.503  52.934  1.00  0.00    -0.001 C 
HETATM    7  C5  UNL     1      24.349   2.487  52.089  1.00  0.00    -0.021 C 
HETATM    8  C6  UNL     1      24.621   3.633  51.223  1.00  0.00     0.088 C 
HETATM    9  C7  UNL     1      25.926   3.397  50.542  1.00  0.00     0.058 C 
HETATM   10  N2  UNL     1      26.827   2.469  50.755  1.00  0.00    -0.177 NA
HETATM   11  N3  UNL     1      26.590   1.546  51.744  1.00  0.00    -0.251 N 
HETATM   12  H12 UNL     1      27.086   2.264  52.361  1.00  0.00     0.191 HD
ENDROOT
BRANCH   9  13
HETATM   13  C8  UNL     1      26.495   4.215  49.501  1.00  0.00     0.030 C 
HETATM   14  C9  UNL     1      26.360   5.517  49.529  1.00  0.00     0.015 C 
BRANCH  14  15
HETATM   15  C10 UNL     1      26.920   6.380  48.497  1.00  0.00    -0.014 A 
HETATM   16  C11 UNL     1      28.246   6.361  48.143  1.00  0.00     0.013 A 
HETATM   17  C12 UNL     1      28.789   7.161  47.184  1.00  0.00     0.001 A 
HETATM   18  C13 UNL     1      28.000   8.069  46.493  1.00  0.00     0.002 A 
HETATM   19  C14 UNL     1      26.664   8.099  46.841  1.00  0.00     0.024 A 
HETATM   20  C15 UNL     1      26.156   7.284  47.804  1.00  0.00     0.044 A 
HETATM   21 CL1  UNL     1      24.450   7.412  48.157  1.00  0.00    -0.083 Cl
ENDBRANCH  14  15
ENDBRANCH   9  13
TORSDOF 2
ENDMDL
MODEL 8
REMARK VINA RESULT:      -7.2      2.492      3.513
REMARK  2 active torsions:
REMARK  status: ('A' for Active; 'I' for Inactive)
REMARK    1  A    between atoms: C7_9  and  C8_10 
REMARK    2  A    between atoms: C9_11  and  C10_12 
ROOT
HETATM    1  S1  UNL     1      26.085   2.247  53.470  1.00  0.00    -0.037 SA
HETATM    2  C1  UNL     1      25.077   1.286  52.623  1.00  0.00     0.215 C 
HETATM    3  N1  UNL     1      26.173   0.772  51.879  1.00  0.00    -0.217 NA
HETATM    4  C2  UNL     1      26.723  -0.322  52.175  1.00  0.00     0.088 C 
HETATM    5  C3  UNL     1      26.538  -0.787  53.373  1.00  0.00     0.034 C 
HETATM    6  C4  UNL     1      25.250  -0.697  54.029  1.00  0.00    -0.001 C 
HETATM    7  C5  UNL     1      23.948  -0.777  54.237  1.00  0.00    -0.021 C 
HETATM    8  C6  UNL     1      22.522  -0.835  54.549  1.00  0.00     0.088 C 
HETATM    9  C7  UNL     1      21.804   0.060  53.596  1.00  0.00     0.058 C 
HETATM   10  N2  UNL     1      22.285   0.924  52.735  1.00  0.00    -0.177 NA
HETATM   11  N3  UNL     1      23.647   1.075  52.654  1.00  0.00    -0.251 N 
HETATM   12  H12 UNL     1      23.486   1.814  53.409  1.00  0.00     0.191 HD
ENDROOT
BRANCH   9  13
HETATM   13  C8  UNL     1      20.375   0.185  53.469  1.00  0.00     0.030 C 
HETATM   14  C9  UNL     1      19.758  -0.280  52.412  1.00  0.00     0.015 C 
BRANCH  14  15
HETATM   15  C10 UNL     1      18.314  -0.174  52.243  1.00  0.00    -0.014 A 
HETATM   16  C11 UNL     1      17.714   0.851  51.556  1.00  0.00     0.013 A 
HETATM   17  C12 UNL     1      16.368   0.970  51.390  1.00  0.00     0.001 A 
HETATM   18  C13 UNL     1      15.504   0.026  51.927  1.00  0.00     0.002 A 
HETATM   19  C14 UNL     1      16.096  -1.010  52.621  1.00  0.00     0.024 A 
HETATM   20  C15 UNL     1      17.445  -1.097  52.767  1.00  0.00     0.044 A 
HETATM   21 CL1  UNL     1      18.078  -2.455  53.666  1.00  0.00    -0.083 Cl
ENDBRANCH  14  15
ENDBRANCH   9  13
TORSDOF 2
ENDMDL
MODEL 9
REMARK VINA RESULT:      -7.1      4.936      8.683
REMARK  2 active torsions:
REMARK  status: ('A' for Active; 'I' for Inactive)
REMARK    1  A    between atoms: C7_9  and  C8_10 
REMARK    2  A    between atoms: C9_11  and  C10_12 
ROOT
HETATM    1  S1  UNL     1      16.667   4.159  50.180  1.00  0.00    -0.037 SA
HETATM    2  C1  UNL     1      17.403   3.577  51.512  1.00  0.00     0.215 C 
HETATM    3  N1  UNL     1      16.373   4.114  52.331  1.00  0.00    -0.217 NA
HETATM    4  C2  UNL     1      15.412   3.409  52.738  1.00  0.00     0.088 C 
HETATM    5  C3  UNL     1      15.162   2.303  52.106  1.00  0.00     0.034 C 
HETATM    6  C4  UNL     1      16.230   1.444  51.634  1.00  0.00    -0.001 C 
HETATM    7  C5  UNL     1      17.339   0.727  51.619  1.00  0.00    -0.021 C 
HETATM    8  C6  UNL     1      18.548  -0.087  51.517  1.00  0.00     0.088 C 
HETATM    9  C7  UNL     1      19.722   0.798  51.758  1.00  0.00     0.058 C 
HETATM   10  N2  UNL     1      19.781   2.105  51.858  1.00  0.00    -0.177 NA
HETATM   11  N3  UNL     1      18.616   2.821  51.726  1.00  0.00    -0.251 N 
HETATM   12  H12 UNL     1      18.879   2.821  50.690  1.00  0.00     0.191 HD
ENDROOT
BRANCH   9  13
HETATM   13  C8  UNL     1      21.092   0.369  51.886  1.00  0.00     0.030 C 
HETATM   14  C9  UNL     1      21.901   0.968  52.724  1.00  0.00     0.015 C 
BRANCH  14  15
HETATM   15  C10 UNL     1      23.292   0.566  52.884  1.00  0.00    -0.014 A 
HETATM   16  C11 UNL     1      24.309   1.061  52.107  1.00  0.00     0.013 A 
HETATM   17  C12 UNL     1      25.614   0.696  52.239  1.00  0.00     0.001 A 
HETATM   18  C13 UNL     1      25.995  -0.229  53.201  1.00  0.00     0.002 A 
HETATM   19  C14 UNL     1      24.981  -0.735  53.989  1.00  0.00     0.024 A 
HETATM   20  C15 UNL     1      23.687  -0.347  53.829  1.00  0.00     0.044 A 
HETATM   21 CL1  UNL     1      22.492  -1.057  54.887  1.00  0.00    -0.083 Cl
ENDBRANCH  14  15
ENDBRANCH   9  13
TORSDOF 2
ENDMDL
