MODEL 1
REMARK VINA RESULT:      -7.7      0.000      0.000
REMARK  5 active torsions:
REMARK  status: ('A' for Active; 'I' for Inactive)
REMARK    1  A    between atoms: C4_5  and  O1_6 
REMARK    2  A    between atoms: C7_9  and  C8_10 
REMARK    3  A    between atoms: N2_11  and  C9_12 
REMARK    4  A    between atoms: C10_13  and  C11_14 
REMARK    5  A    between atoms: C11_14  and  C12_16 
ROOT
HETATM    1  N1  UNL     1      29.498   2.184  54.624  1.00  0.00    -0.191 NA
HETATM    2  C1  UNL     1      28.986   1.279  54.120  1.00  0.00     0.100 C 
HETATM    3  C2  UNL     1      28.338   0.154  53.486  1.00  0.00     0.059 A 
HETATM    4  C3  UNL     1      28.855  -1.088  53.795  1.00  0.00     0.060 A 
HETATM    5  C4  UNL     1      28.272  -2.195  53.217  1.00  0.00     0.067 A 
HETATM    6  C5  UNL     1      27.201  -2.065  52.354  1.00  0.00     0.037 A 
HETATM    7  C6  UNL     1      26.727  -0.781  52.084  1.00  0.00     0.017 A 
HETATM    8  C7  UNL     1      27.278   0.351  52.638  1.00  0.00     0.003 A 
ENDROOT
BRANCH   8   9
HETATM    9  C8  UNL     1      26.756   1.692  52.334  1.00  0.00     0.140 C 
HETATM   10  N2  UNL     1      25.497   1.786  52.467  1.00  0.00    -0.209 NA
BRANCH  10  11
HETATM   11  C9  UNL     1      24.746   2.946  52.242  1.00  0.00     0.041 C 
HETATM   12  C10 UNL     1      24.104   3.940  52.029  1.00  0.00    -0.024 C 
BRANCH  12  13
HETATM   13  C11 UNL     1      23.337   5.140  51.749  1.00  0.00     0.112 C 
HETATM   14  N3  UNL     1      23.790   6.310  52.106  1.00  0.00    -0.293 NA
HETATM   15  H6  UNL     1      24.725   6.338  52.601  1.00  0.00     0.187 HD
BRANCH  13  16
HETATM   16  C12 UNL     1      22.046   5.011  51.057  1.00  0.00     0.259 C 
HETATM   17  C13 UNL     1      21.491   6.355  50.821  1.00  0.00     0.085 C 
HETATM   18  N4  UNL     1      21.056   7.418  50.652  1.00  0.00    -0.195 NA
HETATM   19  C14 UNL     1      21.094   4.208  51.830  1.00  0.00     0.085 C 
HETATM   20  N5  UNL     1      20.340   3.592  52.423  1.00  0.00    -0.195 NA
ENDBRANCH  13  16
ENDBRANCH  12  13
ENDBRANCH  10  11
ENDBRANCH   8   9
BRANCH   5  21
HETATM   21  O1  UNL     1      28.685  -3.514  53.434  1.00  0.00    -0.361 OA
HETATM   22  H2  UNL     1      29.653  -3.694  53.171  1.00  0.00     0.217 HD
ENDBRANCH   5  21
TORSDOF 5
ENDMDL
MODEL 2
REMARK VINA RESULT:      -7.7      3.219      3.902
REMARK  5 active torsions:
REMARK  status: ('A' for Active; 'I' for Inactive)
REMARK    1  A    between atoms: C4_5  and  O1_6 
REMARK    2  A    between atoms: C7_9  and  C8_10 
REMARK    3  A    between atoms: N2_11  and  C9_12 
REMARK    4  A    between atoms: C10_13  and  C11_14 
REMARK    5  A    between atoms: C11_14  and  C12_16 
ROOT
HETATM    1  N1  UNL     1      29.061   2.455  54.201  1.00  0.00    -0.191 NA
HETATM    2  C1  UNL     1      28.624   1.471  53.782  1.00  0.00     0.100 C 
HETATM    3  C2  UNL     1      28.070   0.246  53.253  1.00  0.00     0.059 A 
HETATM    4  C3  UNL     1      28.688  -0.917  53.665  1.00  0.00     0.060 A 
HETATM    5  C4  UNL     1      28.197  -2.115  53.189  1.00  0.00     0.067 A 
HETATM    6  C5  UNL     1      27.118  -2.147  52.327  1.00  0.00     0.037 A 
HETATM    7  C6  UNL     1      26.539  -0.935  51.950  1.00  0.00     0.017 A 
HETATM    8  C7  UNL     1      26.997   0.282  52.400  1.00  0.00     0.003 A 
ENDROOT
BRANCH   8   9
HETATM    9  C8  UNL     1      26.367   1.545  51.985  1.00  0.00     0.140 C 
HETATM   10  N2  UNL     1      26.874   2.040  50.932  1.00  0.00    -0.209 NA
BRANCH  10  11
HETATM   11  C9  UNL     1      26.463   3.232  50.322  1.00  0.00     0.041 C 
HETATM   12  C10 UNL     1      26.115   4.248  49.781  1.00  0.00    -0.024 C 
BRANCH  12  13
HETATM   13  C11 UNL     1      25.706   5.465  49.106  1.00  0.00     0.112 C 
HETATM   14  N3  UNL     1      24.463   5.635  48.748  1.00  0.00    -0.293 NA
HETATM   15  H6  UNL     1      23.783   4.854  48.972  1.00  0.00     0.187 HD
BRANCH  13  16
HETATM   16  C12 UNL     1      26.715   6.499  48.833  1.00  0.00     0.259 C 
HETATM   17  C13 UNL     1      26.213   7.392  47.774  1.00  0.00     0.085 C 
HETATM   18  N4  UNL     1      25.815   8.083  46.930  1.00  0.00    -0.195 NA
HETATM   19  C14 UNL     1      27.996   5.913  48.425  1.00  0.00     0.085 C 
HETATM   20  N5  UNL     1      28.995   5.473  48.099  1.00  0.00    -0.195 NA
ENDBRANCH  13  16
ENDBRANCH  12  13
ENDBRANCH  10  11
ENDBRANCH   8   9
BRANCH   5  21
HETATM   21  O1  UNL     1      28.716  -3.372  53.516  1.00  0.00    -0.361 OA
HETATM   22  H2  UNL     1      29.654  -3.342  53.916  1.00  0.00     0.217 HD
ENDBRANCH   5  21
TORSDOF 5
ENDMDL
MODEL 3
REMARK VINA RESULT:      -7.6      2.309      2.487
REMARK  5 active torsions:
REMARK  status: ('A' for Active; 'I' for Inactive)
REMARK    1  A    between atoms: C4_5  and  O1_6 
REMARK    2  A    between atoms: C7_9  and  C8_10 
REMARK    3  A    between atoms: N2_11  and  C9_12 
REMARK    4  A    between atoms: C10_13  and  C11_14 
REMARK    5  A    between atoms: C11_14  and  C12_16 
ROOT
HETATM    1  N1  UNL     1      29.388   2.240  54.550  1.00  0.00    -0.191 NA
HETATM    2  C1  UNL     1      28.878   1.328  54.057  1.00  0.00     0.100 C 
HETATM    3  C2  UNL     1      28.233   0.194  53.436  1.00  0.00     0.059 A 
HETATM    4  C3  UNL     1      28.751  -1.042  53.762  1.00  0.00     0.060 A 
HETATM    5  C4  UNL     1      28.170  -2.158  53.197  1.00  0.00     0.067 A 
HETATM    6  C5  UNL     1      27.101  -2.039  52.330  1.00  0.00     0.037 A 
HETATM    7  C6  UNL     1      26.625  -0.759  52.043  1.00  0.00     0.017 A 
HETATM    8  C7  UNL     1      27.175   0.380  52.584  1.00  0.00     0.003 A 
ENDROOT
BRANCH   8   9
HETATM    9  C8  UNL     1      26.651   1.716  52.263  1.00  0.00     0.140 C 
HETATM   10  N2  UNL     1      26.883   2.075  51.067  1.00  0.00    -0.209 NA
BRANCH  10  11
HETATM   11  C9  UNL     1      26.496   3.296  50.501  1.00  0.00     0.041 C 
HETATM   12  C10 UNL     1      26.182   4.352  50.018  1.00  0.00    -0.024 C 
BRANCH  12  13
HETATM   13  C11 UNL     1      25.826   5.635  49.441  1.00  0.00     0.112 C 
HETATM   14  N3  UNL     1      26.615   6.664  49.586  1.00  0.00    -0.293 NA
HETATM   15  H6  UNL     1      27.509   6.517  50.135  1.00  0.00     0.187 HD
BRANCH  13  16
HETATM   16  C12 UNL     1      24.565   5.752  48.694  1.00  0.00     0.259 C 
HETATM   17  C13 UNL     1      24.541   7.048  47.994  1.00  0.00     0.085 C 
HETATM   18  N4  UNL     1      24.525   8.077  47.456  1.00  0.00    -0.195 NA
HETATM   19  C14 UNL     1      23.400   5.641  49.576  1.00  0.00     0.085 C 
HETATM   20  N5  UNL     1      22.484   5.563  50.250  1.00  0.00    -0.195 NA
ENDBRANCH  13  16
ENDBRANCH  12  13
ENDBRANCH  10  11
ENDBRANCH   8   9
BRANCH   5  21
HETATM   21  O1  UNL     1      28.585  -3.474  53.431  1.00  0.00    -0.361 OA
HETATM   22  H2  UNL     1      29.490  -3.702  53.022  1.00  0.00     0.217 HD
ENDBRANCH   5  21
TORSDOF 5
ENDMDL
MODEL 4
REMARK VINA RESULT:      -7.2      4.050      4.917
REMARK  5 active torsions:
REMARK  status: ('A' for Active; 'I' for Inactive)
REMARK    1  A    between atoms: C4_5  and  O1_6 
REMARK    2  A    between atoms: C7_9  and  C8_10 
REMARK    3  A    between atoms: N2_11  and  C9_12 
REMARK    4  A    between atoms: C10_13  and  C11_14 
REMARK    5  A    between atoms: C11_14  and  C12_16 
ROOT
HETATM    1  N1  UNL     1      26.918  -0.401  54.641  1.00  0.00    -0.191 NA
HETATM    2  C1  UNL     1      25.811  -0.349  54.312  1.00  0.00     0.100 C 
HETATM    3  C2  UNL     1      24.430  -0.274  53.895  1.00  0.00     0.059 A 
HETATM    4  C3  UNL     1      23.529  -0.962  54.682  1.00  0.00     0.060 A 
HETATM    5  C4  UNL     1      22.197  -0.923  54.327  1.00  0.00     0.067 A 
HETATM    6  C5  UNL     1      21.779  -0.216  53.216  1.00  0.00     0.037 A 
HETATM    7  C6  UNL     1      22.742   0.457  52.463  1.00  0.00     0.017 A 
HETATM    8  C7  UNL     1      24.080   0.445  52.781  1.00  0.00     0.003 A 
ENDROOT
BRANCH   8   9
HETATM    9  C8  UNL     1      25.073   1.165  51.968  1.00  0.00     0.140 C 
HETATM   10  N2  UNL     1      24.647   2.271  51.514  1.00  0.00    -0.209 NA
BRANCH  10  11
HETATM   11  C9  UNL     1      25.385   3.152  50.713  1.00  0.00     0.041 C 
HETATM   12  C10 UNL     1      26.001   3.920  50.024  1.00  0.00    -0.024 C 
BRANCH  12  13
HETATM   13  C11 UNL     1      26.724   4.858  49.184  1.00  0.00     0.112 C 
HETATM   14  N3  UNL     1      27.956   4.613  48.831  1.00  0.00    -0.293 NA
HETATM   15  H6  UNL     1      28.391   3.713  49.182  1.00  0.00     0.187 HD
BRANCH  13  16
HETATM   16  C12 UNL     1      26.043   6.084  48.741  1.00  0.00     0.259 C 
HETATM   17  C13 UNL     1      27.017   6.954  48.059  1.00  0.00     0.085 C 
HETATM   18  N4  UNL     1      27.795   7.638  47.535  1.00  0.00    -0.195 NA
HETATM   19  C14 UNL     1      25.435   6.802  49.865  1.00  0.00     0.085 C 
HETATM   20  N5  UNL     1      24.962   7.376  50.729  1.00  0.00    -0.195 NA
ENDBRANCH  13  16
ENDBRANCH  12  13
ENDBRANCH  10  11
ENDBRANCH   8   9
BRANCH   5  21
HETATM   21  O1  UNL     1      21.170  -1.567  55.025  1.00  0.00    -0.361 OA
HETATM   22  H2  UNL     1      20.235  -1.258  54.764  1.00  0.00     0.217 HD
ENDBRANCH   5  21
TORSDOF 5
ENDMDL
MODEL 5
REMARK VINA RESULT:      -7.1      4.127      7.773
REMARK  5 active torsions:
REMARK  status: ('A' for Active; 'I' for Inactive)
REMARK    1  A    between atoms: C4_5  and  O1_6 
REMARK    2  A    between atoms: C7_9  and  C8_10 
REMARK    3  A    between atoms: N2_11  and  C9_12 
REMARK    4  A    between atoms: C10_13  and  C11_14 
REMARK    5  A    between atoms: C11_14  and  C12_16 
ROOT
HETATM    1  N1  UNL     1      20.822   0.006  54.523  1.00  0.00    -0.191 NA
HETATM    2  C1  UNL     1      20.899   0.317  53.413  1.00  0.00     0.100 C 
HETATM    3  C2  UNL     1      21.006   0.710  52.028  1.00  0.00     0.059 A 
HETATM    4  C3  UNL     1      19.825   0.722  51.315  1.00  0.00     0.060 A 
HETATM    5  C4  UNL     1      19.872   1.091  49.987  1.00  0.00     0.067 A 
HETATM    6  C5  UNL     1      21.068   1.437  49.389  1.00  0.00     0.037 A 
HETATM    7  C6  UNL     1      22.227   1.404  50.166  1.00  0.00     0.017 A 
HETATM    8  C7  UNL     1      22.225   1.042  51.493  1.00  0.00     0.003 A 
ENDROOT
BRANCH   8   9
HETATM    9  C8  UNL     1      23.463   1.016  52.287  1.00  0.00     0.140 C 
HETATM   10  N2  UNL     1      24.435   1.609  51.726  1.00  0.00    -0.209 NA
BRANCH  10  11
HETATM   11  C9  UNL     1      25.723   1.732  52.261  1.00  0.00     0.041 C 
HETATM   12  C10 UNL     1      26.822   1.833  52.739  1.00  0.00    -0.024 C 
BRANCH  12  13
HETATM   13  C11 UNL     1      28.138   1.952  53.339  1.00  0.00     0.112 C 
HETATM   14  N3  UNL     1      28.947   2.907  52.969  1.00  0.00    -0.293 NA
HETATM   15  H6  UNL     1      28.600   3.576  52.224  1.00  0.00     0.187 HD
BRANCH  13  16
HETATM   16  C12 UNL     1      28.540   0.981  54.367  1.00  0.00     0.259 C 
HETATM   17  C13 UNL     1      29.512   0.040  53.783  1.00  0.00     0.085 C 
HETATM   18  N4  UNL     1      30.267  -0.705  53.311  1.00  0.00    -0.195 NA
HETATM   19  C14 UNL     1      27.389   0.243  54.895  1.00  0.00     0.085 C 
HETATM   20  N5  UNL     1      26.505  -0.343  55.311  1.00  0.00    -0.195 NA
ENDBRANCH  13  16
ENDBRANCH  12  13
ENDBRANCH  10  11
ENDBRANCH   8   9
BRANCH   5  21
HETATM   21  O1  UNL     1      18.760   1.151  49.140  1.00  0.00    -0.361 OA
HETATM   22  H2  UNL     1      17.956   0.622  49.474  1.00  0.00     0.217 HD
ENDBRANCH   5  21
TORSDOF 5
ENDMDL
MODEL 6
REMARK VINA RESULT:      -7.1      4.098      5.985
REMARK  5 active torsions:
REMARK  status: ('A' for Active; 'I' for Inactive)
REMARK    1  A    between atoms: C4_5  and  O1_6 
REMARK    2  A    between atoms: C7_9  and  C8_10 
REMARK    3  A    between atoms: N2_11  and  C9_12 
REMARK    4  A    between atoms: C10_13  and  C11_14 
REMARK    5  A    between atoms: C11_14  and  C12_16 
ROOT
HETATM    1  N1  UNL     1      19.701   3.211  52.327  1.00  0.00    -0.191 NA
HETATM    2  C1  UNL     1      20.404   2.366  52.683  1.00  0.00     0.100 C 
HETATM    3  C2  UNL     1      21.292   1.314  53.120  1.00  0.00     0.059 A 
HETATM    4  C3  UNL     1      20.703   0.293  53.838  1.00  0.00     0.060 A 
HETATM    5  C4  UNL     1      21.506  -0.737  54.280  1.00  0.00     0.067 A 
HETATM    6  C5  UNL     1      22.861  -0.746  54.010  1.00  0.00     0.037 A 
HETATM    7  C6  UNL     1      23.394   0.317  53.279  1.00  0.00     0.017 A 
HETATM    8  C7  UNL     1      22.629   1.364  52.820  1.00  0.00     0.003 A 
ENDROOT
BRANCH   8   9
HETATM    9  C8  UNL     1      23.219   2.471  52.051  1.00  0.00     0.140 C 
HETATM   10  N2  UNL     1      24.318   2.169  51.493  1.00  0.00    -0.209 NA
BRANCH  10  11
HETATM   11  C9  UNL     1      25.088   3.033  50.705  1.00  0.00     0.041 C 
HETATM   12  C10 UNL     1      25.752   3.787  50.043  1.00  0.00    -0.024 C 
BRANCH  12  13
HETATM   13  C11 UNL     1      26.554   4.713  49.265  1.00  0.00     0.112 C 
HETATM   14  N3  UNL     1      27.767   4.393  48.907  1.00  0.00    -0.293 NA
HETATM   15  H6  UNL     1      28.128   3.444  49.208  1.00  0.00     0.187 HD
BRANCH  13  16
HETATM   16  C12 UNL     1      25.974   6.011  48.890  1.00  0.00     0.259 C 
HETATM   17  C13 UNL     1      27.045   6.884  48.379  1.00  0.00     0.085 C 
HETATM   18  N4  UNL     1      27.898   7.569  47.990  1.00  0.00    -0.195 NA
HETATM   19  C14 UNL     1      25.306   6.655  50.024  1.00  0.00     0.085 C 
HETATM   20  N5  UNL     1      24.788   7.171  50.899  1.00  0.00    -0.195 NA
ENDBRANCH  13  16
ENDBRANCH  12  13
ENDBRANCH  10  11
ENDBRANCH   8   9
BRANCH   5  21
HETATM   21  O1  UNL     1      21.054  -1.837  55.016  1.00  0.00    -0.361 OA
HETATM   22  H2  UNL     1      20.492  -1.589  55.829  1.00  0.00     0.217 HD
ENDBRANCH   5  21
TORSDOF 5
ENDMDL
MODEL 7
REMARK VINA RESULT:      -7.1      4.854      6.984
REMARK  5 active torsions:
REMARK  status: ('A' for Active; 'I' for Inactive)
REMARK    1  A    between atoms: C4_5  and  O1_6 
REMARK    2  A    between atoms: C7_9  and  C8_10 
REMARK    3  A    between atoms: N2_11  and  C9_12 
REMARK    4  A    between atoms: C10_13  and  C11_14 
REMARK    5  A    between atoms: C11_14  and  C12_16 
ROOT
HETATM    1  N1  UNL     1      21.984  -1.439  55.139  1.00  0.00    -0.191 NA
HETATM    2  C1  UNL     1      21.251  -1.093  54.315  1.00  0.00     0.100 C 
HETATM    3  C2  UNL     1      20.342  -0.652  53.283  1.00  0.00     0.059 A 
HETATM    4  C3  UNL     1      19.049  -1.122  53.382  1.00  0.00     0.060 A 
HETATM    5  C4  UNL     1      18.141  -0.730  52.421  1.00  0.00     0.067 A 
HETATM    6  C5  UNL     1      18.517   0.108  51.389  1.00  0.00     0.037 A 
HETATM    7  C6  UNL     1      19.841   0.548  51.347  1.00  0.00     0.017 A 
HETATM    8  C7  UNL     1      20.778   0.182  52.285  1.00  0.00     0.003 A 
ENDROOT
BRANCH   8   9
HETATM    9  C8  UNL     1      22.167   0.662  52.215  1.00  0.00     0.140 C 
HETATM   10  N2  UNL     1      22.353   1.540  51.317  1.00  0.00    -0.209 NA
BRANCH  10  11
HETATM   11  C9  UNL     1      23.576   2.163  51.038  1.00  0.00     0.041 C 
HETATM   12  C10 UNL     1      24.617   2.715  50.798  1.00  0.00    -0.024 C 
BRANCH  12  13
HETATM   13  C11 UNL     1      25.861   3.402  50.503  1.00  0.00     0.112 C 
HETATM   14  N3  UNL     1      26.959   3.075  51.128  1.00  0.00    -0.293 NA
HETATM   15  H6  UNL     1      26.896   2.299  51.845  1.00  0.00     0.187 HD
BRANCH  13  16
HETATM   16  C12 UNL     1      25.859   4.470  49.492  1.00  0.00     0.259 C 
HETATM   17  C13 UNL     1      27.225   4.633  48.965  1.00  0.00     0.085 C 
HETATM   18  N4  UNL     1      28.307   4.763  48.564  1.00  0.00    -0.195 NA
HETATM   19  C14 UNL     1      25.384   5.741  50.047  1.00  0.00     0.085 C 
HETATM   20  N5  UNL     1      25.024   6.738  50.465  1.00  0.00    -0.195 NA
ENDBRANCH  13  16
ENDBRANCH  12  13
ENDBRANCH  10  11
ENDBRANCH   8   9
BRANCH   5  21
HETATM   21  O1  UNL     1      16.799  -1.124  52.389  1.00  0.00    -0.361 OA
HETATM   22  H2  UNL     1      16.144  -0.383  52.637  1.00  0.00     0.217 HD
ENDBRANCH   5  21
TORSDOF 5
ENDMDL
MODEL 8
REMARK VINA RESULT:      -6.9      4.008      5.385
REMARK  5 active torsions:
REMARK  status: ('A' for Active; 'I' for Inactive)
REMARK    1  A    between atoms: C4_5  and  O1_6 
REMARK    2  A    between atoms: C7_9  and  C8_10 
REMARK    3  A    between atoms: N2_11  and  C9_12 
REMARK    4  A    between atoms: C10_13  and  C11_14 
REMARK    5  A    between atoms: C11_14  and  C12_16 
ROOT
HETATM    1  N1  UNL     1      25.987  -0.756  53.998  1.00  0.00    -0.191 NA
HETATM    2  C1  UNL     1      24.849  -0.572  53.920  1.00  0.00     0.100 C 
HETATM    3  C2  UNL     1      23.428  -0.330  53.819  1.00  0.00     0.059 A 
HETATM    4  C3  UNL     1      22.615  -1.306  54.358  1.00  0.00     0.060 A 
HETATM    5  C4  UNL     1      21.250  -1.124  54.289  1.00  0.00     0.067 A 
HETATM    6  C5  UNL     1      20.714   0.003  53.697  1.00  0.00     0.037 A 
HETATM    7  C6  UNL     1      21.592   0.951  53.171  1.00  0.00     0.017 A 
HETATM    8  C7  UNL     1      22.959   0.810  53.219  1.00  0.00     0.003 A 
ENDROOT
BRANCH   8   9
HETATM    9  C8  UNL     1      23.860   1.827  52.656  1.00  0.00     0.140 C 
HETATM   10  N2  UNL     1      23.250   2.831  52.173  1.00  0.00    -0.209 NA
BRANCH  10  11
HETATM   11  C9  UNL     1      23.864   3.939  51.578  1.00  0.00     0.041 C 
HETATM   12  C10 UNL     1      24.390   4.883  51.049  1.00  0.00    -0.024 C 
BRANCH  12  13
HETATM   13  C11 UNL     1      25.027   6.007  50.390  1.00  0.00     0.112 C 
HETATM   14  N3  UNL     1      25.180   7.140  51.019  1.00  0.00    -0.293 NA
HETATM   15  H6  UNL     1      24.822   7.195  52.014  1.00  0.00     0.187 HD
BRANCH  13  16
HETATM   16  C12 UNL     1      25.495   5.846  49.005  1.00  0.00     0.259 C 
HETATM   17  C13 UNL     1      26.622   4.897  48.987  1.00  0.00     0.085 C 
HETATM   18  N4  UNL     1      27.518   4.158  48.985  1.00  0.00    -0.195 NA
HETATM   19  C14 UNL     1      25.912   7.124  48.421  1.00  0.00     0.085 C 
HETATM   20  N5  UNL     1      26.245   8.109  47.955  1.00  0.00    -0.195 NA
ENDBRANCH  13  16
ENDBRANCH  12  13
ENDBRANCH  10  11
ENDBRANCH   8   9
BRANCH   5  21
HETATM   21  O1  UNL     1      20.303  -2.024  54.789  1.00  0.00    -0.361 OA
HETATM   22  H2  UNL     1      19.582  -1.589  55.364  1.00  0.00     0.217 HD
ENDBRANCH   5  21
TORSDOF 5
ENDMDL
MODEL 9
REMARK VINA RESULT:      -6.6      4.530      7.235
REMARK  5 active torsions:
REMARK  status: ('A' for Active; 'I' for Inactive)
REMARK    1  A    between atoms: C4_5  and  O1_6 
REMARK    2  A    between atoms: C7_9  and  C8_10 
REMARK    3  A    between atoms: N2_11  and  C9_12 
REMARK    4  A    between atoms: C10_13  and  C11_14 
REMARK    5  A    between atoms: C11_14  and  C12_16 
ROOT
HETATM    1  N1  UNL     1      18.365   1.822  50.011  1.00  0.00    -0.191 NA
HETATM    2  C1  UNL     1      18.746   1.133  50.857  1.00  0.00     0.100 C 
HETATM    3  C2  UNL     1      19.232   0.275  51.912  1.00  0.00     0.059 A 
HETATM    4  C3  UNL     1      18.304  -0.585  52.461  1.00  0.00     0.060 A 
HETATM    5  C4  UNL     1      18.718  -1.427  53.472  1.00  0.00     0.067 A 
HETATM    6  C5  UNL     1      20.024  -1.409  53.921  1.00  0.00     0.037 A 
HETATM    7  C6  UNL     1      20.913  -0.515  53.323  1.00  0.00     0.017 A 
HETATM    8  C7  UNL     1      20.543   0.342  52.312  1.00  0.00     0.003 A 
ENDROOT
BRANCH   8   9
HETATM    9  C8  UNL     1      21.502   1.274  51.700  1.00  0.00     0.140 C 
HETATM   10  N2  UNL     1      22.711   1.021  51.996  1.00  0.00    -0.209 NA
BRANCH  10  11
HETATM   11  C9  UNL     1      23.821   1.749  51.550  1.00  0.00     0.041 C 
HETATM   12  C10 UNL     1      24.769   2.388  51.179  1.00  0.00    -0.024 C 
BRANCH  12  13
HETATM   13  C11 UNL     1      25.906   3.179  50.746  1.00  0.00     0.112 C 
HETATM   14  N3  UNL     1      27.063   3.049  51.335  1.00  0.00    -0.293 NA
HETATM   15  H6  UNL     1      27.128   2.350  52.128  1.00  0.00     0.187 HD
BRANCH  13  16
HETATM   16  C12 UNL     1      25.728   4.127  49.636  1.00  0.00     0.259 C 
HETATM   17  C13 UNL     1      27.045   4.430  49.048  1.00  0.00     0.085 C 
HETATM   18  N4  UNL     1      28.089   4.672  48.601  1.00  0.00    -0.195 NA
HETATM   19  C14 UNL     1      25.084   5.367  50.079  1.00  0.00     0.085 C 
HETATM   20  N5  UNL     1      24.591   6.340  50.410  1.00  0.00    -0.195 NA
ENDBRANCH  13  16
ENDBRANCH  12  13
ENDBRANCH  10  11
ENDBRANCH   8   9
BRANCH   5  21
HETATM   21  O1  UNL     1      17.893  -2.351  54.123  1.00  0.00    -0.361 OA
HETATM   22  H2  UNL     1      16.978  -1.982  54.378  1.00  0.00     0.217 HD
ENDBRANCH   5  21
TORSDOF 5
ENDMDL
