MODEL 1
REMARK VINA RESULT:      -8.3      0.000      0.000
REMARK  5 active torsions:
REMARK  status: ('A' for Active; 'I' for Inactive)
REMARK    1  A    between atoms: C1_2  and  N1_3 
REMARK    2  A    between atoms: C8_10  and  C9_11 
REMARK    3  A    between atoms: C16_19  and  C17_20 
REMARK    4  A    between atoms: C17_20  and  C18_21 
REMARK    5  A    between atoms: C18_21  and  O3_23 
ROOT
HETATM    1  C9  UNL     1      24.885   0.144  53.286  1.00  0.00    -0.020 A 
HETATM    2  C10 UNL     1      25.554  -0.914  52.873  1.00  0.00     0.039 A 
HETATM    3  C11 UNL     1      26.881  -0.894  53.513  1.00  0.00     0.031 A 
HETATM    4  C12 UNL     1      26.965   0.197  54.300  1.00  0.00    -0.044 A 
HETATM    5  C13 UNL     1      28.306   0.198  54.947  1.00  0.00     0.039 C 
HETATM    6  C14 UNL     1      29.426   0.099  53.935  1.00  0.00     0.024 C 
HETATM    7  C15 UNL     1      29.394  -1.258  53.251  1.00  0.00     0.120 C 
HETATM    8  N2  UNL     1      28.017  -1.790  53.413  1.00  0.00    -0.390 N 
HETATM    9  C16 UNL     1      25.665   0.988  54.179  1.00  0.00     0.062 A 
HETATM   10  H16 UNL     1      27.796  -2.814  53.464  1.00  0.00     0.159 HD
ENDROOT
BRANCH   1  11
HETATM   11  C8  UNL     1      23.517   0.399  52.816  1.00  0.00     0.043 C 
HETATM   12  N1  UNL     1      22.466   0.096  53.716  1.00  0.00    -0.324 N 
HETATM   13  C2  UNL     1      21.241   0.731  54.135  1.00  0.00     0.090 C 
HETATM   14  C3  UNL     1      20.470   1.491  53.375  1.00  0.00    -0.006 C 
HETATM   15  C4  UNL     1      20.207   2.114  52.085  1.00  0.00     0.055 C 
HETATM   16  C5  UNL     1      21.073   1.762  50.969  1.00  0.00    -0.023 C 
HETATM   17  C6  UNL     1      22.282   1.282  50.615  1.00  0.00    -0.001 C 
HETATM   18  C7  UNL     1      23.330   0.877  51.573  1.00  0.00     0.030 C 
BRANCH  12  19
HETATM   19  C1  UNL     1      22.683  -1.155  54.341  1.00  0.00     0.523 C 
HETATM   20  O1  UNL     1      22.435  -1.882  55.319  1.00  0.00    -0.412 OA
ENDBRANCH  12  19
ENDBRANCH   1  11
BRANCH   9  21
HETATM   21  C17 UNL     1      25.977   2.340  53.562  1.00  0.00     0.123 C 
BRANCH  21  22
HETATM   22  C18 UNL     1      26.736   2.199  52.301  1.00  0.00     0.140 C 
HETATM   23  O2  UNL     1      26.733   1.732  51.112  1.00  0.00    -0.650 OA
BRANCH  22  24
HETATM   24  O3  UNL     1      27.963   2.828  52.443  1.00  0.00    -0.776 OA
HETATM   25  H20 UNL     1      28.306   3.622  51.956  1.00  0.00     0.167 HD
ENDBRANCH  22  24
ENDBRANCH  21  22
ENDBRANCH   9  21
TORSDOF 5
ENDMDL
MODEL 2
REMARK VINA RESULT:      -8.2      2.645      3.311
REMARK  5 active torsions:
REMARK  status: ('A' for Active; 'I' for Inactive)
REMARK    1  A    between atoms: C1_2  and  N1_3 
REMARK    2  A    between atoms: C8_10  and  C9_11 
REMARK    3  A    between atoms: C16_19  and  C17_20 
REMARK    4  A    between atoms: C17_20  and  C18_21 
REMARK    5  A    between atoms: C18_21  and  O3_23 
ROOT
HETATM    1  C9  UNL     1      24.685   1.841  52.481  1.00  0.00    -0.020 A 
HETATM    2  C10 UNL     1      24.910   1.003  53.474  1.00  0.00     0.039 A 
HETATM    3  C11 UNL     1      26.300   1.190  53.925  1.00  0.00     0.031 A 
HETATM    4  C12 UNL     1      26.873   2.148  53.170  1.00  0.00    -0.044 A 
HETATM    5  C13 UNL     1      28.273   2.333  53.643  1.00  0.00     0.039 C 
HETATM    6  C14 UNL     1      29.046   1.032  53.653  1.00  0.00     0.024 C 
HETATM    7  C15 UNL     1      28.470   0.090  54.697  1.00  0.00     0.120 C 
HETATM    8  N2  UNL     1      27.078   0.537  54.959  1.00  0.00    -0.390 N 
HETATM    9  C16 UNL     1      25.860   2.624  52.131  1.00  0.00     0.062 A 
HETATM   10  H16 UNL     1      26.595   0.408  55.880  1.00  0.00     0.159 HD
ENDROOT
BRANCH   1  11
HETATM   11  C8  UNL     1      23.375   1.888  51.820  1.00  0.00     0.043 C 
HETATM   12  N1  UNL     1      22.953   3.147  51.327  1.00  0.00    -0.324 N 
HETATM   13  C2  UNL     1      22.327   3.637  50.125  1.00  0.00     0.090 C 
HETATM   14  C3  UNL     1      21.448   2.975  49.391  1.00  0.00    -0.006 C 
HETATM   15  C4  UNL     1      20.660   1.769  49.165  1.00  0.00     0.055 C 
HETATM   16  C5  UNL     1      20.675   0.742  50.195  1.00  0.00    -0.023 C 
HETATM   17  C6  UNL     1      21.356   0.233  51.241  1.00  0.00    -0.001 C 
HETATM   18  C7  UNL     1      22.643   0.762  51.733  1.00  0.00     0.030 C 
BRANCH  12  19
HETATM   19  C1  UNL     1      23.206   4.169  52.275  1.00  0.00     0.523 C 
HETATM   20  O1  UNL     1      23.689   5.296  52.480  1.00  0.00    -0.412 OA
ENDBRANCH  12  19
ENDBRANCH   1  11
BRANCH   9  21
HETATM   21  C17 UNL     1      26.387   2.281  50.749  1.00  0.00     0.123 C 
BRANCH  21  22
HETATM   22  C18 UNL     1      26.683   3.497  49.963  1.00  0.00     0.140 C 
HETATM   23  O2  UNL     1      27.305   3.981  48.957  1.00  0.00    -0.650 OA
BRANCH  22  24
HETATM   24  O3  UNL     1      26.025   4.574  50.536  1.00  0.00    -0.776 OA
HETATM   25  H20 UNL     1      26.419   5.389  50.944  1.00  0.00     0.167 HD
ENDBRANCH  22  24
ENDBRANCH  21  22
ENDBRANCH   9  21
TORSDOF 5
ENDMDL
MODEL 3
REMARK VINA RESULT:      -8.1      1.607      6.578
REMARK  5 active torsions:
REMARK  status: ('A' for Active; 'I' for Inactive)
REMARK    1  A    between atoms: C1_2  and  N1_3 
REMARK    2  A    between atoms: C8_10  and  C9_11 
REMARK    3  A    between atoms: C16_19  and  C17_20 
REMARK    4  A    between atoms: C17_20  and  C18_21 
REMARK    5  A    between atoms: C18_21  and  O3_23 
ROOT
HETATM    1  C9  UNL     1      24.652   0.750  52.500  1.00  0.00    -0.020 A 
HETATM    2  C10 UNL     1      24.122   1.211  51.384  1.00  0.00     0.039 A 
HETATM    3  C11 UNL     1      22.685   1.433  51.618  1.00  0.00     0.031 A 
HETATM    4  C12 UNL     1      22.395   1.087  52.888  1.00  0.00    -0.044 A 
HETATM    5  C13 UNL     1      20.942   1.326  53.112  1.00  0.00     0.039 C 
HETATM    6  C14 UNL     1      20.085   0.619  52.085  1.00  0.00     0.024 C 
HETATM    7  C15 UNL     1      20.307   1.227  50.710  1.00  0.00     0.120 C 
HETATM    8  N2  UNL     1      21.626   1.911  50.750  1.00  0.00    -0.390 N 
HETATM    9  C16 UNL     1      23.667   0.571  53.556  1.00  0.00     0.062 A 
HETATM   10  H16 UNL     1      21.857   2.752  50.169  1.00  0.00     0.159 HD
ENDROOT
BRANCH   1  11
HETATM   11  C8  UNL     1      26.083   0.431  52.577  1.00  0.00     0.043 C 
HETATM   12  N1  UNL     1      26.982   1.526  52.579  1.00  0.00    -0.324 N 
HETATM   13  C2  UNL     1      28.170   1.894  53.307  1.00  0.00     0.090 C 
HETATM   14  C3  UNL     1      29.080   1.053  53.771  1.00  0.00    -0.006 C 
HETATM   15  C4  UNL     1      29.552  -0.316  53.934  1.00  0.00     0.055 C 
HETATM   16  C5  UNL     1      28.830  -1.373  53.242  1.00  0.00    -0.023 C 
HETATM   17  C6  UNL     1      27.657  -1.728  52.680  1.00  0.00    -0.001 C 
HETATM   18  C7  UNL     1      26.466  -0.858  52.619  1.00  0.00     0.030 C 
BRANCH  12  19
HETATM   19  C1  UNL     1      26.611   2.483  51.603  1.00  0.00     0.523 C 
HETATM   20  O1  UNL     1      26.991   3.208  50.667  1.00  0.00    -0.412 OA
ENDBRANCH  12  19
ENDBRANCH   1  11
BRANCH   9  21
HETATM   21  C17 UNL     1      23.467  -0.891  53.912  1.00  0.00     0.123 C 
BRANCH  21  22
HETATM   22  C18 UNL     1      24.076  -1.220  55.219  1.00  0.00     0.140 C 
HETATM   23  O2  UNL     1      25.127  -1.151  55.943  1.00  0.00    -0.650 OA
BRANCH  22  24
HETATM   24  O3  UNL     1      23.138  -1.877  56.000  1.00  0.00    -0.776 OA
HETATM   25  H20 UNL     1      22.149  -1.800  55.966  1.00  0.00     0.167 HD
ENDBRANCH  22  24
ENDBRANCH  21  22
ENDBRANCH   9  21
TORSDOF 5
ENDMDL
MODEL 4
REMARK VINA RESULT:      -7.8      2.264      3.683
REMARK  5 active torsions:
REMARK  status: ('A' for Active; 'I' for Inactive)
REMARK    1  A    between atoms: C1_2  and  N1_3 
REMARK    2  A    between atoms: C8_10  and  C9_11 
REMARK    3  A    between atoms: C16_19  and  C17_20 
REMARK    4  A    between atoms: C17_20  and  C18_21 
REMARK    5  A    between atoms: C18_21  and  O3_23 
ROOT
HETATM    1  C9  UNL     1      25.200   1.227  52.634  1.00  0.00    -0.020 A 
HETATM    2  C10 UNL     1      25.788   2.222  53.270  1.00  0.00     0.039 A 
HETATM    3  C11 UNL     1      27.229   1.926  53.346  1.00  0.00     0.031 A 
HETATM    4  C12 UNL     1      27.460   0.742  52.747  1.00  0.00    -0.044 A 
HETATM    5  C13 UNL     1      28.921   0.462  52.823  1.00  0.00     0.039 C 
HETATM    6  C14 UNL     1      29.439   0.529  54.243  1.00  0.00     0.024 C 
HETATM    7  C15 UNL     1      29.351   1.953  54.765  1.00  0.00     0.120 C 
HETATM    8  N2  UNL     1      28.336   2.654  53.937  1.00  0.00    -0.390 N 
HETATM    9  C16 UNL     1      26.129   0.170  52.265  1.00  0.00     0.062 A 
HETATM   10  H16 UNL     1      28.362   3.683  53.741  1.00  0.00     0.159 HD
ENDROOT
BRANCH   1  11
HETATM   11  C8  UNL     1      23.750   1.237  52.402  1.00  0.00     0.043 C 
HETATM   12  N1  UNL     1      23.307   1.743  51.155  1.00  0.00    -0.324 N 
HETATM   13  C2  UNL     1      22.332   1.359  50.165  1.00  0.00     0.090 C 
HETATM   14  C3  UNL     1      21.181   0.756  50.412  1.00  0.00    -0.006 C 
HETATM   15  C4  UNL     1      20.247   0.185  51.374  1.00  0.00     0.055 C 
HETATM   16  C5  UNL     1      20.538   0.356  52.790  1.00  0.00    -0.023 C 
HETATM   17  C6  UNL     1      21.503   0.593  53.701  1.00  0.00    -0.001 C 
HETATM   18  C7  UNL     1      22.928   0.795  53.371  1.00  0.00     0.030 C 
BRANCH  12  19
HETATM   19  C1  UNL     1      23.996   2.933  50.822  1.00  0.00     0.523 C 
HETATM   20  O1  UNL     1      24.664   3.539  49.965  1.00  0.00    -0.412 OA
ENDBRANCH  12  19
ENDBRANCH   1  11
BRANCH   9  21
HETATM   21  C17 UNL     1      25.856  -1.121  53.017  1.00  0.00     0.123 C 
BRANCH  21  22
HETATM   22  C18 UNL     1      26.849  -2.164  52.682  1.00  0.00     0.140 C 
HETATM   23  O2  UNL     1      27.916  -2.765  53.048  1.00  0.00    -0.650 OA
BRANCH  22  24
HETATM   24  O3  UNL     1      26.498  -2.748  51.475  1.00  0.00    -0.776 OA
HETATM   25  H20 UNL     1      25.645  -2.659  50.975  1.00  0.00     0.167 HD
ENDBRANCH  22  24
ENDBRANCH  21  22
ENDBRANCH   9  21
TORSDOF 5
ENDMDL
MODEL 5
REMARK VINA RESULT:      -7.6      3.856      5.256
REMARK  5 active torsions:
REMARK  status: ('A' for Active; 'I' for Inactive)
REMARK    1  A    between atoms: C1_2  and  N1_3 
REMARK    2  A    between atoms: C8_10  and  C9_11 
REMARK    3  A    between atoms: C16_19  and  C17_20 
REMARK    4  A    between atoms: C17_20  and  C18_21 
REMARK    5  A    between atoms: C18_21  and  O3_23 
ROOT
HETATM    1  C9  UNL     1      25.468   2.678  50.806  1.00  0.00    -0.020 A 
HETATM    2  C10 UNL     1      26.484   1.837  50.829  1.00  0.00     0.039 A 
HETATM    3  C11 UNL     1      26.240   0.855  51.900  1.00  0.00     0.031 A 
HETATM    4  C12 UNL     1      25.068   1.148  52.496  1.00  0.00    -0.044 A 
HETATM    5  C13 UNL     1      24.830   0.142  53.569  1.00  0.00     0.039 C 
HETATM    6  C14 UNL     1      25.992   0.057  54.534  1.00  0.00     0.024 C 
HETATM    7  C15 UNL     1      27.218  -0.499  53.831  1.00  0.00     0.120 C 
HETATM    8  N2  UNL     1      27.020  -0.270  52.376  1.00  0.00    -0.390 N 
HETATM    9  C16 UNL     1      24.487   2.400  51.843  1.00  0.00     0.062 A 
HETATM   10  H16 UNL     1      27.422  -0.893  51.635  1.00  0.00     0.159 HD
ENDROOT
BRANCH   1  11
HETATM   11  C8  UNL     1      25.427   3.779  49.835  1.00  0.00     0.043 C 
HETATM   12  N1  UNL     1      24.164   4.083  49.268  1.00  0.00    -0.324 N 
HETATM   13  C2  UNL     1      23.419   5.280  48.970  1.00  0.00     0.090 C 
HETATM   14  C3  UNL     1      23.941   6.441  48.610  1.00  0.00    -0.006 C 
HETATM   15  C4  UNL     1      25.119   7.247  48.315  1.00  0.00     0.055 C 
HETATM   16  C5  UNL     1      26.410   6.577  48.271  1.00  0.00    -0.023 C 
HETATM   17  C6  UNL     1      27.112   5.501  48.677  1.00  0.00    -0.001 C 
HETATM   18  C7  UNL     1      26.566   4.420  49.522  1.00  0.00     0.030 C 
BRANCH  12  19
HETATM   19  C1  UNL     1      23.484   2.899  48.892  1.00  0.00     0.523 C 
HETATM   20  O1  UNL     1      22.441   2.229  48.988  1.00  0.00    -0.412 OA
ENDBRANCH  12  19
ENDBRANCH   1  11
BRANCH   9  21
HETATM   21  C17 UNL     1      24.425   3.504  52.884  1.00  0.00     0.123 C 
BRANCH  21  22
HETATM   22  C18 UNL     1      23.341   4.466  52.591  1.00  0.00     0.140 C 
HETATM   23  O2  UNL     1      22.100   4.611  52.324  1.00  0.00    -0.650 OA
BRANCH  22  24
HETATM   24  O3  UNL     1      23.863   5.750  52.608  1.00  0.00    -0.776 OA
HETATM   25  H20 UNL     1      23.376   6.612  52.535  1.00  0.00     0.167 HD
ENDBRANCH  22  24
ENDBRANCH  21  22
ENDBRANCH   9  21
TORSDOF 5
ENDMDL
MODEL 6
REMARK VINA RESULT:      -7.5      2.626      6.143
REMARK  5 active torsions:
REMARK  status: ('A' for Active; 'I' for Inactive)
REMARK    1  A    between atoms: C1_2  and  N1_3 
REMARK    2  A    between atoms: C8_10  and  C9_11 
REMARK    3  A    between atoms: C16_19  and  C17_20 
REMARK    4  A    between atoms: C17_20  and  C18_21 
REMARK    5  A    between atoms: C18_21  and  O3_23 
ROOT
HETATM    1  C9  UNL     1      24.800   2.446  52.339  1.00  0.00    -0.020 A 
HETATM    2  C10 UNL     1      24.226   3.417  53.021  1.00  0.00     0.039 A 
HETATM    3  C11 UNL     1      23.182   4.016  52.172  1.00  0.00     0.031 A 
HETATM    4  C12 UNL     1      23.168   3.374  50.987  1.00  0.00    -0.044 A 
HETATM    5  C13 UNL     1      22.102   3.984  50.144  1.00  0.00     0.039 C 
HETATM    6  C14 UNL     1      22.266   5.482  50.015  1.00  0.00     0.024 C 
HETATM    7  C15 UNL     1      22.041   6.151  51.361  1.00  0.00     0.120 C 
HETATM    8  N2  UNL     1      22.260   5.112  52.400  1.00  0.00    -0.390 N 
HETATM    9  C16 UNL     1      24.264   2.312  50.993  1.00  0.00     0.062 A 
HETATM   10  H16 UNL     1      21.775   5.114  53.329  1.00  0.00     0.159 HD
ENDROOT
BRANCH   1  11
HETATM   11  C8  UNL     1      25.889   1.656  52.929  1.00  0.00     0.043 C 
HETATM   12  N1  UNL     1      25.659   0.267  53.082  1.00  0.00    -0.324 N 
HETATM   13  C2  UNL     1      26.410  -0.943  52.856  1.00  0.00     0.090 C 
HETATM   14  C3  UNL     1      27.720  -1.071  52.989  1.00  0.00    -0.006 C 
HETATM   15  C4  UNL     1      29.010  -0.475  53.311  1.00  0.00     0.055 C 
HETATM   16  C5  UNL     1      29.023   0.882  53.837  1.00  0.00    -0.023 C 
HETATM   17  C6  UNL     1      28.343   2.043  53.919  1.00  0.00    -0.001 C 
HETATM   18  C7  UNL     1      27.021   2.278  53.306  1.00  0.00     0.030 C 
BRANCH  12  19
HETATM   19  C1  UNL     1      24.366   0.025  53.605  1.00  0.00     0.523 C 
HETATM   20  O1  UNL     1      23.282  -0.567  53.457  1.00  0.00    -0.412 OA
ENDBRANCH  12  19
ENDBRANCH   1  11
BRANCH   9  21
HETATM   21  C17 UNL     1      25.289   2.669  49.931  1.00  0.00     0.123 C 
BRANCH  21  22
HETATM   22  C18 UNL     1      25.857   4.016  50.154  1.00  0.00     0.140 C 
HETATM   23  O2  UNL     1      25.616   5.269  50.208  1.00  0.00    -0.650 OA
BRANCH  22  24
HETATM   24  O3  UNL     1      27.213   3.894  50.417  1.00  0.00    -0.776 OA
HETATM   25  H20 UNL     1      27.734   4.302  51.157  1.00  0.00     0.167 HD
ENDBRANCH  22  24
ENDBRANCH  21  22
ENDBRANCH   9  21
TORSDOF 5
ENDMDL
MODEL 7
REMARK VINA RESULT:      -7.5      3.336      6.039
REMARK  5 active torsions:
REMARK  status: ('A' for Active; 'I' for Inactive)
REMARK    1  A    between atoms: C1_2  and  N1_3 
REMARK    2  A    between atoms: C8_10  and  C9_11 
REMARK    3  A    between atoms: C16_19  and  C17_20 
REMARK    4  A    between atoms: C17_20  and  C18_21 
REMARK    5  A    between atoms: C18_21  and  O3_23 
ROOT
HETATM    1  C9  UNL     1      23.233   2.698  52.386  1.00  0.00    -0.020 A 
HETATM    2  C10 UNL     1      23.947   3.687  52.887  1.00  0.00     0.039 A 
HETATM    3  C11 UNL     1      23.673   4.896  52.092  1.00  0.00     0.031 A 
HETATM    4  C12 UNL     1      22.792   4.585  51.122  1.00  0.00    -0.044 A 
HETATM    5  C13 UNL     1      22.517   5.819  50.333  1.00  0.00     0.039 C 
HETATM    6  C14 UNL     1      23.788   6.454  49.811  1.00  0.00     0.024 C 
HETATM    7  C15 UNL     1      24.621   6.983  50.966  1.00  0.00     0.120 C 
HETATM    8  N2  UNL     1      24.185   6.250  52.183  1.00  0.00    -0.390 N 
HETATM    9  C16 UNL     1      22.464   3.097  51.217  1.00  0.00     0.062 A 
HETATM   10  H16 UNL     1      24.221   6.660  53.147  1.00  0.00     0.159 HD
ENDROOT
BRANCH   1  11
HETATM   11  C8  UNL     1      23.297   1.353  52.973  1.00  0.00     0.043 C 
HETATM   12  N1  UNL     1      24.584   0.780  53.118  1.00  0.00    -0.324 N 
HETATM   13  C2  UNL     1      25.284   0.039  54.138  1.00  0.00     0.090 C 
HETATM   14  C3  UNL     1      24.730  -0.810  54.988  1.00  0.00    -0.006 C 
HETATM   15  C4  UNL     1      23.539  -1.485  55.487  1.00  0.00     0.055 C 
HETATM   16  C5  UNL     1      22.296  -1.309  54.750  1.00  0.00    -0.023 C 
HETATM   17  C6  UNL     1      21.623  -0.520  53.889  1.00  0.00    -0.001 C 
HETATM   18  C7  UNL     1      22.154   0.734  53.319  1.00  0.00     0.030 C 
BRANCH  12  19
HETATM   19  C1  UNL     1      25.360   0.984  51.952  1.00  0.00     0.523 C 
HETATM   20  O1  UNL     1      26.461   1.326  51.486  1.00  0.00    -0.412 OA
ENDBRANCH  12  19
ENDBRANCH   1  11
BRANCH   9  21
HETATM   21  C17 UNL     1      22.947   2.412  49.952  1.00  0.00     0.123 C 
BRANCH  21  22
HETATM   22  C18 UNL     1      21.881   1.593  49.337  1.00  0.00     0.140 C 
HETATM   23  O2  UNL     1      21.578   0.788  48.392  1.00  0.00    -0.650 OA
BRANCH  22  24
HETATM   24  O3  UNL     1      20.716   1.743  50.074  1.00  0.00    -0.776 OA
HETATM   25  H20 UNL     1      20.534   1.441  51.001  1.00  0.00     0.167 HD
ENDBRANCH  22  24
ENDBRANCH  21  22
ENDBRANCH   9  21
TORSDOF 5
ENDMDL
MODEL 8
REMARK VINA RESULT:      -7.4      3.654      4.909
REMARK  5 active torsions:
REMARK  status: ('A' for Active; 'I' for Inactive)
REMARK    1  A    between atoms: C1_2  and  N1_3 
REMARK    2  A    between atoms: C8_10  and  C9_11 
REMARK    3  A    between atoms: C16_19  and  C17_20 
REMARK    4  A    between atoms: C17_20  and  C18_21 
REMARK    5  A    between atoms: C18_21  and  O3_23 
ROOT
HETATM    1  C9  UNL     1      24.098   2.757  50.479  1.00  0.00    -0.020 A 
HETATM    2  C10 UNL     1      23.641   1.697  51.117  1.00  0.00     0.039 A 
HETATM    3  C11 UNL     1      24.689   1.234  52.043  1.00  0.00     0.031 A 
HETATM    4  C12 UNL     1      25.759   2.044  51.924  1.00  0.00    -0.044 A 
HETATM    5  C13 UNL     1      26.805   1.569  52.873  1.00  0.00     0.039 C 
HETATM    6  C14 UNL     1      27.133   0.106  52.672  1.00  0.00     0.024 C 
HETATM    7  C15 UNL     1      25.938  -0.754  53.047  1.00  0.00     0.120 C 
HETATM    8  N2  UNL     1      24.738   0.118  52.969  1.00  0.00    -0.390 N 
HETATM    9  C16 UNL     1      25.465   3.090  50.852  1.00  0.00     0.062 A 
HETATM   10  H16 UNL     1      23.885  -0.020  53.562  1.00  0.00     0.159 HD
ENDROOT
BRANCH   1  11
HETATM   11  C8  UNL     1      23.272   3.447  49.480  1.00  0.00     0.043 C 
HETATM   12  N1  UNL     1      23.023   4.824  49.700  1.00  0.00    -0.324 N 
HETATM   13  C2  UNL     1      23.011   6.020  48.895  1.00  0.00     0.090 C 
HETATM   14  C3  UNL     1      22.662   6.085  47.621  1.00  0.00    -0.006 C 
HETATM   15  C4  UNL     1      22.201   5.414  46.412  1.00  0.00     0.055 C 
HETATM   16  C5  UNL     1      21.814   4.015  46.515  1.00  0.00    -0.023 C 
HETATM   17  C6  UNL     1      21.952   2.878  47.226  1.00  0.00    -0.001 C 
HETATM   18  C7  UNL     1      22.784   2.750  48.438  1.00  0.00     0.030 C 
BRANCH  12  19
HETATM   19  C1  UNL     1      22.688   5.065  51.054  1.00  0.00     0.523 C 
HETATM   20  O1  UNL     1      21.795   5.051  51.920  1.00  0.00    -0.412 OA
ENDBRANCH  12  19
ENDBRANCH   1  11
BRANCH   9  21
HETATM   21  C17 UNL     1      26.437   2.891  49.703  1.00  0.00     0.123 C 
BRANCH  21  22
HETATM   22  C18 UNL     1      27.074   4.165  49.304  1.00  0.00     0.140 C 
HETATM   23  O2  UNL     1      27.965   4.719  48.575  1.00  0.00    -0.650 OA
BRANCH  22  24
HETATM   24  O3  UNL     1      26.471   5.205  49.995  1.00  0.00    -0.776 OA
HETATM   25  H20 UNL     1      25.505   5.424  50.054  1.00  0.00     0.167 HD
ENDBRANCH  22  24
ENDBRANCH  21  22
ENDBRANCH   9  21
TORSDOF 5
ENDMDL
MODEL 9
REMARK VINA RESULT:      -7.3      2.480      4.517
REMARK  5 active torsions:
REMARK  status: ('A' for Active; 'I' for Inactive)
REMARK    1  A    between atoms: C1_2  and  N1_3 
REMARK    2  A    between atoms: C8_10  and  C9_11 
REMARK    3  A    between atoms: C16_19  and  C17_20 
REMARK    4  A    between atoms: C17_20  and  C18_21 
REMARK    5  A    between atoms: C18_21  and  O3_23 
ROOT
HETATM    1  C9  UNL     1      23.723   1.377  51.542  1.00  0.00    -0.020 A 
HETATM    2  C10 UNL     1      25.001   1.694  51.614  1.00  0.00     0.039 A 
HETATM    3  C11 UNL     1      25.632   0.821  52.620  1.00  0.00     0.031 A 
HETATM    4  C12 UNL     1      24.693  -0.000  53.128  1.00  0.00    -0.044 A 
HETATM    5  C13 UNL     1      25.347  -0.882  54.135  1.00  0.00     0.039 C 
HETATM    6  C14 UNL     1      26.087  -0.089  55.190  1.00  0.00     0.024 C 
HETATM    7  C15 UNL     1      27.272   0.631  54.567  1.00  0.00     0.120 C 
HETATM    8  N2  UNL     1      26.994   0.740  53.112  1.00  0.00    -0.390 N 
HETATM    9  C16 UNL     1      23.351   0.332  52.482  1.00  0.00     0.062 A 
HETATM   10  H16 UNL     1      27.745   0.762  52.381  1.00  0.00     0.159 HD
ENDROOT
BRANCH   1  11
HETATM   11  C8  UNL     1      22.826   2.082  50.618  1.00  0.00     0.043 C 
HETATM   12  N1  UNL     1      22.850   3.498  50.660  1.00  0.00    -0.324 N 
HETATM   13  C2  UNL     1      22.859   4.568  49.693  1.00  0.00     0.090 C 
HETATM   14  C3  UNL     1      22.266   4.540  48.511  1.00  0.00    -0.006 C 
HETATM   15  C4  UNL     1      21.461   3.825  47.530  1.00  0.00     0.055 C 
HETATM   16  C5  UNL     1      20.887   2.546  47.922  1.00  0.00    -0.023 C 
HETATM   17  C6  UNL     1      20.989   1.499  48.765  1.00  0.00    -0.001 C 
HETATM   18  C7  UNL     1      22.026   1.367  49.807  1.00  0.00     0.030 C 
BRANCH  12  19
HETATM   19  C1  UNL     1      22.850   3.962  51.998  1.00  0.00     0.523 C 
HETATM   20  O1  UNL     1      23.426   4.655  52.855  1.00  0.00    -0.412 OA
ENDBRANCH  12  19
ENDBRANCH   1  11
BRANCH   9  21
HETATM   21  C17 UNL     1      22.408   0.839  53.559  1.00  0.00     0.123 C 
BRANCH  21  22
HETATM   22  C18 UNL     1      21.704  -0.274  54.232  1.00  0.00     0.140 C 
HETATM   23  O2  UNL     1      21.666  -1.536  54.430  1.00  0.00    -0.650 OA
BRANCH  22  24
HETATM   24  O3  UNL     1      20.639   0.241  54.956  1.00  0.00    -0.776 OA
HETATM   25  H20 UNL     1      20.633   1.020  55.569  1.00  0.00     0.167 HD
ENDBRANCH  22  24
ENDBRANCH  21  22
ENDBRANCH   9  21
TORSDOF 5
ENDMDL
