MODEL 1
REMARK VINA RESULT:      -6.8      0.000      0.000
REMARK  2 active torsions:
REMARK  status: ('A' for Active; 'I' for Inactive)
REMARK    1  A    between atoms: C1_2  and  N1_3 
REMARK    2  A    between atoms: N1_3  and  C2_4 
ROOT
HETATM    1  C2  UNL     1      21.430   0.691  52.787  1.00  0.00     0.124 C 
HETATM    2  C3  UNL     1      20.975   1.790  52.140  1.00  0.00     0.062 C 
HETATM    3  C4  UNL     1      22.246   2.429  51.730  1.00  0.00    -0.015 A 
HETATM    4  C5  UNL     1      22.972   3.104  52.685  1.00  0.00     0.015 A 
HETATM    5  C6  UNL     1      24.212   3.596  52.251  1.00  0.00     0.030 A 
HETATM    6  C7  UNL     1      24.580   3.364  50.940  1.00  0.00     0.030 A 
HETATM    7  C8  UNL     1      23.822   2.690  50.018  1.00  0.00     0.049 A 
HETATM    8  C9  UNL     1      22.607   2.202  50.426  1.00  0.00     0.023 A 
HETATM    9 BR1  UNL     1      21.562   1.277  49.171  1.00  0.00    -0.050 Br
HETATM   10  N2  UNL     1      25.884   3.934  50.927  1.00  0.00    -0.372 N 
HETATM   11  C10 UNL     1      26.465   2.590  50.746  1.00  0.00     0.272 C 
HETATM   12  N3  UNL     1      25.796   1.667  51.594  1.00  0.00    -0.264 NA
HETATM   13  C11 UNL     1      26.309   0.767  52.344  1.00  0.00     0.228 C 
HETATM   14  N4  UNL     1      24.960   0.495  52.667  1.00  0.00    -0.253 NA
HETATM   15  C12 UNL     1      24.660  -0.470  53.455  1.00  0.00     0.137 C 
HETATM   16  C13 UNL     1      23.206  -0.655  53.717  1.00  0.00     0.138 C 
HETATM   17  N5  UNL     1      22.770   0.292  52.998  1.00  0.00    -0.242 NA
HETATM   18  H8  UNL     1      26.125   4.944  51.024  1.00  0.00     0.161 HD
ENDROOT
BRANCH   1  19
HETATM   19  N1  UNL     1      20.496  -0.245  53.367  1.00  0.00    -0.362 N 
HETATM   20  H3  UNL     1      20.986  -0.694  54.175  1.00  0.00     0.162 HD
BRANCH  19  21
HETATM   21  C1  UNL     1      19.180  -0.333  52.732  1.00  0.00     0.237 C 
HETATM   22 CL1  UNL     1      18.230  -1.686  53.411  1.00  0.00    -0.109 Cl
ENDBRANCH  19  21
ENDBRANCH   1  19
TORSDOF 2
ENDMDL
MODEL 2
REMARK VINA RESULT:      -6.7      3.010      4.581
REMARK  2 active torsions:
REMARK  status: ('A' for Active; 'I' for Inactive)
REMARK    1  A    between atoms: C1_2  and  N1_3 
REMARK    2  A    between atoms: N1_3  and  C2_4 
ROOT
HETATM    1  C2  UNL     1      25.182   1.383  52.000  1.00  0.00     0.124 C 
HETATM    2  C3  UNL     1      24.091   1.281  52.795  1.00  0.00     0.062 C 
HETATM    3  C4  UNL     1      23.421   2.575  52.530  1.00  0.00    -0.015 A 
HETATM    4  C5  UNL     1      23.936   3.706  53.122  1.00  0.00     0.015 A 
HETATM    5  C6  UNL     1      23.316   4.907  52.747  1.00  0.00     0.030 A 
HETATM    6  C7  UNL     1      22.273   4.845  51.844  1.00  0.00     0.030 A 
HETATM    7  C8  UNL     1      21.787   3.694  51.282  1.00  0.00     0.049 A 
HETATM    8  C9  UNL     1      22.382   2.510  51.637  1.00  0.00     0.023 A 
HETATM    9 BR1  UNL     1      21.724   0.928  50.873  1.00  0.00    -0.050 Br
HETATM   10  N2  UNL     1      21.986   6.229  51.677  1.00  0.00    -0.372 N 
HETATM   11  C10 UNL     1      22.465   6.157  50.284  1.00  0.00     0.272 C 
HETATM   12  N3  UNL     1      23.653   5.379  50.233  1.00  0.00    -0.264 NA
HETATM   13  C11 UNL     1      24.739   5.637  49.608  1.00  0.00     0.228 C 
HETATM   14  N4  UNL     1      25.158   4.403  50.158  1.00  0.00    -0.253 NA
HETATM   15  C12 UNL     1      26.311   3.921  49.877  1.00  0.00     0.137 C 
HETATM   16  C13 UNL     1      26.635   2.617  50.518  1.00  0.00     0.138 C 
HETATM   17  N5  UNL     1      25.553   2.455  51.156  1.00  0.00    -0.242 NA
HETATM   18  H8  UNL     1      21.588   6.875  52.393  1.00  0.00     0.161 HD
ENDROOT
BRANCH   1  19
HETATM   19  N1  UNL     1      26.142   0.304  51.948  1.00  0.00    -0.362 N 
HETATM   20  H3  UNL     1      26.756   0.491  51.122  1.00  0.00     0.162 HD
BRANCH  19  21
HETATM   21  C1  UNL     1      26.033  -0.717  52.990  1.00  0.00     0.237 C 
HETATM   22 CL1  UNL     1      27.006  -2.159  52.578  1.00  0.00    -0.109 Cl
ENDBRANCH  19  21
ENDBRANCH   1  19
TORSDOF 2
ENDMDL
MODEL 3
REMARK VINA RESULT:      -6.7      3.104      5.312
REMARK  2 active torsions:
REMARK  status: ('A' for Active; 'I' for Inactive)
REMARK    1  A    between atoms: C1_2  and  N1_3 
REMARK    2  A    between atoms: N1_3  and  C2_4 
ROOT
HETATM    1  C2  UNL     1      24.517   2.563  50.663  1.00  0.00     0.124 C 
HETATM    2  C3  UNL     1      23.430   3.110  50.071  1.00  0.00     0.062 C 
HETATM    3  C4  UNL     1      22.335   2.374  50.747  1.00  0.00    -0.015 A 
HETATM    4  C5  UNL     1      22.086   1.078  50.357  1.00  0.00     0.015 A 
HETATM    5  C6  UNL     1      21.107   0.410  51.107  1.00  0.00     0.030 A 
HETATM    6  C7  UNL     1      20.499   1.098  52.140  1.00  0.00     0.030 A 
HETATM    7  C8  UNL     1      20.774   2.394  52.491  1.00  0.00     0.049 A 
HETATM    8  C9  UNL     1      21.729   3.061  51.768  1.00  0.00     0.023 A 
HETATM    9 BR1  UNL     1      22.114   4.836  52.242  1.00  0.00    -0.050 Br
HETATM   10  N2  UNL     1      19.659   0.081  52.675  1.00  0.00    -0.372 N 
HETATM   11  C10 UNL     1      20.473   0.063  53.906  1.00  0.00     0.272 C 
HETATM   12  N3  UNL     1      21.850   0.131  53.563  1.00  0.00    -0.264 NA
HETATM   13  C11 UNL     1      22.815  -0.566  54.029  1.00  0.00     0.228 C 
HETATM   14  N4  UNL     1      23.593   0.211  53.139  1.00  0.00    -0.253 NA
HETATM   15  C12 UNL     1      24.866   0.071  53.091  1.00  0.00     0.137 C 
HETATM   16  C13 UNL     1      25.570   0.946  52.115  1.00  0.00     0.138 C 
HETATM   17  N5  UNL     1      24.561   1.558  51.657  1.00  0.00    -0.242 NA
HETATM   18  H8  UNL     1      18.831  -0.353  52.213  1.00  0.00     0.161 HD
ENDROOT
BRANCH   1  19
HETATM   19  N1  UNL     1      25.841   3.003  50.290  1.00  0.00    -0.362 N 
HETATM   20  H3  UNL     1      26.487   2.202  50.480  1.00  0.00     0.162 HD
BRANCH  19  21
HETATM   21  C1  UNL     1      25.953   4.367  49.771  1.00  0.00     0.237 C 
HETATM   22 CL1  UNL     1      27.428   4.555  48.778  1.00  0.00    -0.109 Cl
ENDBRANCH  19  21
ENDBRANCH   1  19
TORSDOF 2
ENDMDL
MODEL 4
REMARK VINA RESULT:      -6.6      1.949      2.516
REMARK  2 active torsions:
REMARK  status: ('A' for Active; 'I' for Inactive)
REMARK    1  A    between atoms: C1_2  and  N1_3 
REMARK    2  A    between atoms: N1_3  and  C2_4 
ROOT
HETATM    1  C2  UNL     1      21.901   2.477  52.427  1.00  0.00     0.124 C 
HETATM    2  C3  UNL     1      22.565   3.603  52.076  1.00  0.00     0.062 C 
HETATM    3  C4  UNL     1      23.972   3.163  52.221  1.00  0.00    -0.015 A 
HETATM    4  C5  UNL     1      24.495   3.065  53.490  1.00  0.00     0.015 A 
HETATM    5  C6  UNL     1      25.797   2.546  53.558  1.00  0.00     0.030 A 
HETATM    6  C7  UNL     1      26.416   2.190  52.375  1.00  0.00     0.030 A 
HETATM    7  C8  UNL     1      25.859   2.309  51.129  1.00  0.00     0.049 A 
HETATM    8  C9  UNL     1      24.587   2.815  51.045  1.00  0.00     0.023 A 
HETATM    9 BR1  UNL     1      23.815   2.981  49.343  1.00  0.00    -0.050 Br
HETATM   10  N2  UNL     1      27.640   1.657  52.869  1.00  0.00    -0.372 N 
HETATM   11  C10 UNL     1      27.233   0.313  52.414  1.00  0.00     0.272 C 
HETATM   12  N3  UNL     1      25.863   0.103  52.728  1.00  0.00    -0.264 NA
HETATM   13  C11 UNL     1      25.323  -0.932  53.251  1.00  0.00     0.228 C 
HETATM   14  N4  UNL     1      24.135  -0.175  53.126  1.00  0.00    -0.253 NA
HETATM   15  C12 UNL     1      23.004  -0.675  53.462  1.00  0.00     0.137 C 
HETATM   16  C13 UNL     1      21.829   0.221  53.283  1.00  0.00     0.138 C 
HETATM   17  N5  UNL     1      22.438   1.231  52.823  1.00  0.00    -0.242 NA
HETATM   18  H8  UNL     1      28.406   2.184  53.341  1.00  0.00     0.161 HD
ENDROOT
BRANCH   1  19
HETATM   19  N1  UNL     1      20.456   2.461  52.426  1.00  0.00    -0.362 N 
HETATM   20  H3  UNL     1      20.158   2.383  53.426  1.00  0.00     0.162 HD
BRANCH  19  21
HETATM   21  C1  UNL     1      19.804   2.553  51.120  1.00  0.00     0.237 C 
HETATM   22 CL1  UNL     1      20.282   1.188  50.068  1.00  0.00    -0.109 Cl
ENDBRANCH  19  21
ENDBRANCH   1  19
TORSDOF 2
ENDMDL
MODEL 5
REMARK VINA RESULT:      -6.5      1.705      2.564
REMARK  2 active torsions:
REMARK  status: ('A' for Active; 'I' for Inactive)
REMARK    1  A    between atoms: C1_2  and  N1_3 
REMARK    2  A    between atoms: N1_3  and  C2_4 
ROOT
HETATM    1  C2  UNL     1      23.465   1.002  52.741  1.00  0.00     0.124 C 
HETATM    2  C3  UNL     1      22.281   1.654  52.670  1.00  0.00     0.062 C 
HETATM    3  C4  UNL     1      22.653   2.838  51.861  1.00  0.00    -0.015 A 
HETATM    4  C5  UNL     1      23.350   3.852  52.476  1.00  0.00     0.015 A 
HETATM    5  C6  UNL     1      23.757   4.893  51.628  1.00  0.00     0.030 A 
HETATM    6  C7  UNL     1      23.429   4.805  50.289  1.00  0.00     0.030 A 
HETATM    7  C8  UNL     1      22.727   3.776  49.717  1.00  0.00     0.049 A 
HETATM    8  C9  UNL     1      22.322   2.751  50.532  1.00  0.00     0.023 A 
HETATM    9 BR1  UNL     1      21.360   1.337  49.759  1.00  0.00    -0.050 Br
HETATM   10  N2  UNL     1      24.069   5.972  49.784  1.00  0.00    -0.372 N 
HETATM   11  C10 UNL     1      25.017   5.124  49.037  1.00  0.00     0.272 C 
HETATM   12  N3  UNL     1      25.435   4.044  49.860  1.00  0.00    -0.264 NA
HETATM   13  C11 UNL     1      26.621   3.598  50.036  1.00  0.00     0.228 C 
HETATM   14  N4  UNL     1      25.974   2.679  50.895  1.00  0.00    -0.253 NA
HETATM   15  C12 UNL     1      26.638   1.753  51.480  1.00  0.00     0.137 C 
HETATM   16  C13 UNL     1      25.844   0.851  52.357  1.00  0.00     0.138 C 
HETATM   17  N5  UNL     1      24.707   1.380  52.182  1.00  0.00    -0.242 NA
HETATM   18  H8  UNL     1      23.811   6.962  49.985  1.00  0.00     0.161 HD
ENDROOT
BRANCH   1  19
HETATM   19  N1  UNL     1      23.560  -0.246  53.462  1.00  0.00    -0.362 N 
HETATM   20  H3  UNL     1      24.435  -0.193  54.034  1.00  0.00     0.162 HD
BRANCH  19  21
HETATM   21  C1  UNL     1      22.487  -1.214  53.236  1.00  0.00     0.237 C 
HETATM   22 CL1  UNL     1      21.525  -1.463  54.723  1.00  0.00    -0.109 Cl
ENDBRANCH  19  21
ENDBRANCH   1  19
TORSDOF 2
ENDMDL
MODEL 6
REMARK VINA RESULT:      -6.3      2.701      4.927
REMARK  2 active torsions:
REMARK  status: ('A' for Active; 'I' for Inactive)
REMARK    1  A    between atoms: C1_2  and  N1_3 
REMARK    2  A    between atoms: N1_3  and  C2_4 
ROOT
HETATM    1  C2  UNL     1      24.385   1.226  52.224  1.00  0.00     0.124 C 
HETATM    2  C3  UNL     1      24.382   2.192  51.275  1.00  0.00     0.062 C 
HETATM    3  C4  UNL     1      22.939   2.270  50.949  1.00  0.00    -0.015 A 
HETATM    4  C5  UNL     1      22.397   1.280  50.161  1.00  0.00     0.015 A 
HETATM    5  C6  UNL     1      21.009   1.361  49.977  1.00  0.00     0.030 A 
HETATM    6  C7  UNL     1      20.332   2.400  50.588  1.00  0.00     0.030 A 
HETATM    7  C8  UNL     1      20.914   3.370  51.362  1.00  0.00     0.049 A 
HETATM    8  C9  UNL     1      22.271   3.305  51.552  1.00  0.00     0.023 A 
HETATM    9 BR1  UNL     1      23.077   4.628  52.611  1.00  0.00    -0.050 Br
HETATM   10  N2  UNL     1      18.991   2.087  50.230  1.00  0.00    -0.372 N 
HETATM   11  C10 UNL     1      18.687   1.793  51.644  1.00  0.00     0.272 C 
HETATM   12  N3  UNL     1      19.758   1.054  52.214  1.00  0.00    -0.264 NA
HETATM   13  C11 UNL     1      19.693   0.013  52.954  1.00  0.00     0.228 C 
HETATM   14  N4  UNL     1      21.104   0.114  52.941  1.00  0.00    -0.253 NA
HETATM   15  C12 UNL     1      21.823  -0.702  53.619  1.00  0.00     0.137 C 
HETATM   16  C13 UNL     1      23.293  -0.492  53.523  1.00  0.00     0.138 C 
HETATM   17  N5  UNL     1      23.285   0.503  52.740  1.00  0.00    -0.242 NA
HETATM   18  H8  UNL     1      18.576   2.117  49.274  1.00  0.00     0.161 HD
ENDROOT
BRANCH   1  19
HETATM   19  N1  UNL     1      25.627   0.819  52.838  1.00  0.00    -0.362 N 
HETATM   20  H3  UNL     1      25.586   1.138  53.833  1.00  0.00     0.162 HD
BRANCH  19  21
HETATM   21  C1  UNL     1      26.577   0.108  51.981  1.00  0.00     0.237 C 
HETATM   22 CL1  UNL     1      26.671  -1.621  52.427  1.00  0.00    -0.109 Cl
ENDBRANCH  19  21
ENDBRANCH   1  19
TORSDOF 2
ENDMDL
MODEL 7
REMARK VINA RESULT:      -6.2      2.857      4.049
REMARK  2 active torsions:
REMARK  status: ('A' for Active; 'I' for Inactive)
REMARK    1  A    between atoms: C1_2  and  N1_3 
REMARK    2  A    between atoms: N1_3  and  C2_4 
ROOT
HETATM    1  C2  UNL     1      20.380   0.735  51.501  1.00  0.00     0.124 C 
HETATM    2  C3  UNL     1      21.480   0.110  51.019  1.00  0.00     0.062 C 
HETATM    3  C4  UNL     1      22.198   1.240  50.386  1.00  0.00    -0.015 A 
HETATM    4  C5  UNL     1      21.741   1.702  49.173  1.00  0.00     0.015 A 
HETATM    5  C6  UNL     1      22.403   2.837  48.681  1.00  0.00     0.030 A 
HETATM    6  C7  UNL     1      23.426   3.371  49.441  1.00  0.00     0.030 A 
HETATM    7  C8  UNL     1      23.854   2.875  50.644  1.00  0.00     0.049 A 
HETATM    8  C9  UNL     1      23.217   1.766  51.139  1.00  0.00     0.023 A 
HETATM    9 BR1  UNL     1      23.794   1.079  52.787  1.00  0.00    -0.050 Br
HETATM   10  N2  UNL     1      23.767   4.511  48.659  1.00  0.00    -0.372 N 
HETATM   11  C10 UNL     1      23.260   5.391  49.729  1.00  0.00     0.272 C 
HETATM   12  N3  UNL     1      22.040   4.867  50.234  1.00  0.00    -0.264 NA
HETATM   13  C11 UNL     1      20.954   5.494  50.485  1.00  0.00     0.228 C 
HETATM   14  N4  UNL     1      20.495   4.215  50.875  1.00  0.00    -0.253 NA
HETATM   15  C12 UNL     1      19.317   4.063  51.356  1.00  0.00     0.137 C 
HETATM   16  C13 UNL     1      18.952   2.669  51.729  1.00  0.00     0.138 C 
HETATM   17  N5  UNL     1      20.038   2.103  51.405  1.00  0.00    -0.242 NA
HETATM   18  H8  UNL     1      24.205   4.510  47.712  1.00  0.00     0.161 HD
ENDROOT
BRANCH   1  19
HETATM   19  N1  UNL     1      19.375  -0.018  52.215  1.00  0.00    -0.362 N 
HETATM   20  H3  UNL     1      18.488   0.077  51.670  1.00  0.00     0.162 HD
BRANCH  19  21
HETATM   21  C1  UNL     1      19.811  -0.687  53.442  1.00  0.00     0.237 C 
HETATM   22 CL1  UNL     1      20.651   0.455  54.530  1.00  0.00    -0.109 Cl
ENDBRANCH  19  21
ENDBRANCH   1  19
TORSDOF 2
ENDMDL
MODEL 8
REMARK VINA RESULT:      -6.1     10.865     12.689
REMARK  2 active torsions:
REMARK  status: ('A' for Active; 'I' for Inactive)
REMARK    1  A    between atoms: C1_2  and  N1_3 
REMARK    2  A    between atoms: N1_3  and  C2_4 
ROOT
HETATM    1  C2  UNL     1      32.436   4.185  46.676  1.00  0.00     0.124 C 
HETATM    2  C3  UNL     1      32.314   4.563  47.970  1.00  0.00     0.062 C 
HETATM    3  C4  UNL     1      32.849   5.943  47.918  1.00  0.00    -0.015 A 
HETATM    4  C5  UNL     1      34.212   6.109  47.838  1.00  0.00     0.015 A 
HETATM    5  C6  UNL     1      34.642   7.436  47.689  1.00  0.00     0.030 A 
HETATM    6  C7  UNL     1      33.681   8.427  47.638  1.00  0.00     0.030 A 
HETATM    7  C8  UNL     1      32.330   8.218  47.727  1.00  0.00     0.049 A 
HETATM    8  C9  UNL     1      31.893   6.926  47.872  1.00  0.00     0.023 A 
HETATM    9 BR1  UNL     1      30.044   6.629  47.995  1.00  0.00    -0.050 Br
HETATM   10  N2  UNL     1      34.496   9.572  47.411  1.00  0.00    -0.372 N 
HETATM   11  C10 UNL     1      33.916   9.712  46.061  1.00  0.00     0.272 C 
HETATM   12  N3  UNL     1      33.818   8.431  45.454  1.00  0.00    -0.264 NA
HETATM   13  C11 UNL     1      34.142   8.094  44.264  1.00  0.00     0.228 C 
HETATM   14  N4  UNL     1      33.695   6.818  44.676  1.00  0.00    -0.253 NA
HETATM   15  C12 UNL     1      33.681   5.834  43.855  1.00  0.00     0.137 C 
HETATM   16  C13 UNL     1      33.189   4.543  44.410  1.00  0.00     0.138 C 
HETATM   17  N5  UNL     1      32.945   4.933  45.589  1.00  0.00    -0.242 NA
HETATM   18  H8  UNL     1      35.179   9.994  48.076  1.00  0.00     0.161 HD
ENDROOT
BRANCH   1  19
HETATM   19  N1  UNL     1      32.018   2.864  46.266  1.00  0.00    -0.362 N 
HETATM   20  H3  UNL     1      31.318   2.997  45.501  1.00  0.00     0.162 HD
BRANCH  19  21
HETATM   21  C1  UNL     1      32.633   1.738  46.970  1.00  0.00     0.237 C 
HETATM   22 CL1  UNL     1      31.840   0.197  46.529  1.00  0.00    -0.109 Cl
ENDBRANCH  19  21
ENDBRANCH   1  19
TORSDOF 2
ENDMDL
MODEL 9
REMARK VINA RESULT:      -5.9      8.330     10.997
REMARK  2 active torsions:
REMARK  status: ('A' for Active; 'I' for Inactive)
REMARK    1  A    between atoms: C1_2  and  N1_3 
REMARK    2  A    between atoms: N1_3  and  C2_4 
ROOT
HETATM    1  C2  UNL     1      28.518   7.122  48.567  1.00  0.00     0.124 C 
HETATM    2  C3  UNL     1      29.259   6.238  47.859  1.00  0.00     0.062 C 
HETATM    3  C4  UNL     1      30.297   7.126  47.287  1.00  0.00    -0.015 A 
HETATM    4  C5  UNL     1      29.953   7.924  46.220  1.00  0.00     0.015 A 
HETATM    5  C6  UNL     1      30.952   8.812  45.795  1.00  0.00     0.030 A 
HETATM    6  C7  UNL     1      32.158   8.802  46.469  1.00  0.00     0.030 A 
HETATM    7  C8  UNL     1      32.462   7.984  47.525  1.00  0.00     0.049 A 
HETATM    8  C9  UNL     1      31.496   7.111  47.954  1.00  0.00     0.023 A 
HETATM    9 BR1  UNL     1      31.902   5.987  49.401  1.00  0.00    -0.050 Br
HETATM   10  N2  UNL     1      32.840   9.860  45.804  1.00  0.00    -0.372 N 
HETATM   11  C10 UNL     1      32.789  10.664  47.040  1.00  0.00     0.272 C 
HETATM   12  N3  UNL     1      31.506  10.534  47.636  1.00  0.00    -0.264 NA
HETATM   13  C11 UNL     1      30.761  11.455  48.116  1.00  0.00     0.228 C 
HETATM   14  N4  UNL     1      29.886  10.380  48.394  1.00  0.00    -0.253 NA
HETATM   15  C12 UNL     1      28.781  10.580  49.010  1.00  0.00     0.137 C 
HETATM   16  C13 UNL     1      27.948   9.369  49.244  1.00  0.00     0.138 C 
HETATM   17  N5  UNL     1      28.711   8.517  48.700  1.00  0.00    -0.242 NA
HETATM   18  H8  UNL     1      33.168   9.867  44.814  1.00  0.00     0.161 HD
ENDROOT
BRANCH   1  19
HETATM   19  N1  UNL     1      27.365   6.669  49.308  1.00  0.00    -0.362 N 
HETATM   20  H3  UNL     1      27.365   7.196  50.212  1.00  0.00     0.162 HD
BRANCH  19  21
HETATM   21  C1  UNL     1      26.531   5.654  48.662  1.00  0.00     0.237 C 
HETATM   22 CL1  UNL     1      26.893   4.025  49.305  1.00  0.00    -0.109 Cl
ENDBRANCH  19  21
ENDBRANCH   1  19
TORSDOF 2
ENDMDL
