MODEL 1
REMARK VINA RESULT:      -8.2      0.000      0.000
REMARK  6 active torsions:
REMARK  status: ('A' for Active; 'I' for Inactive)
REMARK    1  A    between atoms: C2_2  and  C3_3 
REMARK    2  A    between atoms: C2_2  and  N4_21 
REMARK    3  A    between atoms: C9_11  and  N3_12 
REMARK    4  A    between atoms: N3_12  and  C10_13 
REMARK    5  A    between atoms: N4_21  and  C16_22 
REMARK    6  A    between atoms: C16_22  and  C17_23 
ROOT
HETATM    1  C3  UNL     1      23.489   2.947  50.893  1.00  0.00     0.039 C 
HETATM    2  C4  UNL     1      24.589   2.467  51.434  1.00  0.00    -0.005 A 
HETATM    3  C5  UNL     1      24.631   1.735  52.714  1.00  0.00     0.094 A 
HETATM    4  C6  UNL     1      26.028   1.326  53.036  1.00  0.00     0.044 A 
HETATM    5  C7  UNL     1      26.170   0.598  54.270  1.00  0.00     0.097 C 
HETATM    6  N1  UNL     1      26.304   0.004  55.270  1.00  0.00    -0.192 NA
HETATM    7  C8  UNL     1      27.121   1.552  52.331  1.00  0.00     0.137 A 
HETATM    8  N2  UNL     1      26.983   2.268  51.115  1.00  0.00    -0.241 NA
HETATM    9  C9  UNL     1      25.840   2.691  50.695  1.00  0.00     0.135 A 
ENDROOT
BRANCH   1  10
HETATM   10  C2  UNL     1      22.178   2.810  51.508  1.00  0.00     0.019 C 
HETATM   11  C1  UNL     1      21.632   3.740  52.273  1.00  0.00     0.042 C 
BRANCH  10  12
HETATM   12  N4  UNL     1      21.226   1.761  51.468  1.00  0.00    -0.384 N 
HETATM   13  H12 UNL     1      20.327   2.272  51.554  1.00  0.00     0.160 HD
BRANCH  12  14
HETATM   14  C16 UNL     1      21.346   0.313  51.350  1.00  0.00     0.184 C 
BRANCH  14  15
HETATM   15  C17 UNL     1      21.638  -0.183  52.739  1.00  0.00     0.070 A 
HETATM   16  C18 UNL     1      20.956   0.219  53.882  1.00  0.00     0.036 A 
HETATM   17  C19 UNL     1      21.535  -0.471  54.927  1.00  0.00     0.027 A 
HETATM   18  C20 UNL     1      22.530  -1.244  54.323  1.00  0.00     0.142 A 
HETATM   19  O2  UNL     1      22.563  -1.051  53.034  1.00  0.00    -0.325 OA
ENDBRANCH  14  15
ENDBRANCH  12  14
ENDBRANCH  10  12
ENDBRANCH   1  10
BRANCH   9  20
HETATM   20  N3  UNL     1      25.884   3.413  49.446  1.00  0.00    -0.321 N 
HETATM   21  H7  UNL     1      25.494   2.879  48.610  1.00  0.00     0.169 HD
BRANCH  20  22
HETATM   22  C10 UNL     1      26.415   4.751  49.346  1.00  0.00     0.148 C 
HETATM   23  C11 UNL     1      27.520   4.810  48.621  1.00  0.00     0.056 C 
HETATM   24  C12 UNL     1      28.273   6.023  48.348  1.00  0.00     0.006 C 
HETATM   25  C13 UNL     1      27.959   7.285  48.643  1.00  0.00     0.021 C 
HETATM   26  C14 UNL     1      26.747   7.750  49.330  1.00  0.00     0.033 C 
HETATM   27 BR1  UNL     1      26.439   9.632  49.449  1.00  0.00    -0.049 Br
HETATM   28  C15 UNL     1      25.763   7.062  49.922  1.00  0.00     0.163 C 
HETATM   29  O1  UNL     1      25.633   5.670  50.041  1.00  0.00    -0.304 OA
ENDBRANCH  20  22
ENDBRANCH   9  20
TORSDOF 6
ENDMDL
MODEL 2
REMARK VINA RESULT:      -7.6      2.797      3.700
REMARK  6 active torsions:
REMARK  status: ('A' for Active; 'I' for Inactive)
REMARK    1  A    between atoms: C2_2  and  C3_3 
REMARK    2  A    between atoms: C2_2  and  N4_21 
REMARK    3  A    between atoms: C9_11  and  N3_12 
REMARK    4  A    between atoms: N3_12  and  C10_13 
REMARK    5  A    between atoms: N4_21  and  C16_22 
REMARK    6  A    between atoms: C16_22  and  C17_23 
ROOT
HETATM    1  C3  UNL     1      22.973   1.105  53.292  1.00  0.00     0.039 C 
HETATM    2  C4  UNL     1      24.245   0.871  53.046  1.00  0.00    -0.005 A 
HETATM    3  C5  UNL     1      24.857  -0.471  53.061  1.00  0.00     0.094 A 
HETATM    4  C6  UNL     1      26.310  -0.386  52.737  1.00  0.00     0.044 A 
HETATM    5  C7  UNL     1      26.996  -1.651  52.722  1.00  0.00     0.097 C 
HETATM    6  N1  UNL     1      27.570  -2.672  52.704  1.00  0.00    -0.192 NA
HETATM    7  C8  UNL     1      27.018   0.696  52.470  1.00  0.00     0.137 A 
HETATM    8  N2  UNL     1      26.344   1.944  52.484  1.00  0.00    -0.241 NA
HETATM    9  C9  UNL     1      25.085   2.039  52.746  1.00  0.00     0.135 A 
ENDROOT
BRANCH   1  10
HETATM   10  C2  UNL     1      22.020   0.054  53.610  1.00  0.00     0.019 C 
HETATM   11  C1  UNL     1      22.006  -0.590  54.765  1.00  0.00     0.042 C 
BRANCH  10  12
HETATM   12  N4  UNL     1      20.962  -0.515  52.859  1.00  0.00    -0.384 N 
HETATM   13  H12 UNL     1      21.293  -1.487  52.706  1.00  0.00     0.160 HD
BRANCH  12  14
HETATM   14  C16 UNL     1      19.698   0.015  52.363  1.00  0.00     0.184 C 
BRANCH  14  15
HETATM   15  C17 UNL     1      20.019   0.656  51.041  1.00  0.00     0.070 A 
HETATM   16  C18 UNL     1      21.143   0.368  50.276  1.00  0.00     0.036 A 
HETATM   17  C19 UNL     1      21.050   1.169  49.156  1.00  0.00     0.027 A 
HETATM   18  C20 UNL     1      19.862   1.883  49.338  1.00  0.00     0.142 A 
HETATM   19  O2  UNL     1      19.280   1.557  50.458  1.00  0.00    -0.325 OA
ENDBRANCH  14  15
ENDBRANCH  12  14
ENDBRANCH  10  12
ENDBRANCH   1  10
BRANCH   9  20
HETATM   20  N3  UNL     1      24.565   3.385  52.730  1.00  0.00    -0.321 N 
HETATM   21  H7  UNL     1      24.482   3.841  53.690  1.00  0.00     0.169 HD
BRANCH  20  22
HETATM   22  C10 UNL     1      24.191   4.055  51.508  1.00  0.00     0.148 C 
HETATM   23  C11 UNL     1      24.107   3.229  50.477  1.00  0.00     0.056 C 
HETATM   24  C12 UNL     1      23.751   3.620  49.123  1.00  0.00     0.006 C 
HETATM   25  C13 UNL     1      23.327   4.806  48.681  1.00  0.00     0.021 C 
HETATM   26  C14 UNL     1      23.120   6.018  49.483  1.00  0.00     0.033 C 
HETATM   27 BR1  UNL     1      22.309   7.531  48.642  1.00  0.00    -0.049 Br
HETATM   28  C15 UNL     1      23.409   6.276  50.763  1.00  0.00     0.163 C 
HETATM   29  O1  UNL     1      24.005   5.421  51.703  1.00  0.00    -0.304 OA
ENDBRANCH  20  22
ENDBRANCH   9  20
TORSDOF 6
ENDMDL
MODEL 3
REMARK VINA RESULT:      -7.6      3.559      6.897
REMARK  6 active torsions:
REMARK  status: ('A' for Active; 'I' for Inactive)
REMARK    1  A    between atoms: C2_2  and  C3_3 
REMARK    2  A    between atoms: C2_2  and  N4_21 
REMARK    3  A    between atoms: C9_11  and  N3_12 
REMARK    4  A    between atoms: N3_12  and  C10_13 
REMARK    5  A    between atoms: N4_21  and  C16_22 
REMARK    6  A    between atoms: C16_22  and  C17_23 
ROOT
HETATM    1  C3  UNL     1      24.112   2.383  52.882  1.00  0.00     0.039 C 
HETATM    2  C4  UNL     1      24.395   3.250  51.934  1.00  0.00    -0.005 A 
HETATM    3  C5  UNL     1      25.635   3.232  51.137  1.00  0.00     0.094 A 
HETATM    4  C6  UNL     1      25.639   4.347  50.148  1.00  0.00     0.044 A 
HETATM    5  C7  UNL     1      26.813   4.408  49.317  1.00  0.00     0.097 C 
HETATM    6  N1  UNL     1      27.760   4.472  48.630  1.00  0.00    -0.192 NA
HETATM    7  C8  UNL     1      24.707   5.261  49.956  1.00  0.00     0.137 A 
HETATM    8  N2  UNL     1      23.549   5.203  50.773  1.00  0.00    -0.241 NA
HETATM    9  C9  UNL     1      23.394   4.296  51.677  1.00  0.00     0.135 A 
ENDROOT
BRANCH   1  10
HETATM   10  C2  UNL     1      25.005   1.296  53.254  1.00  0.00     0.019 C 
HETATM   11  C1  UNL     1      24.823   0.043  52.874  1.00  0.00     0.042 C 
BRANCH  10  12
HETATM   12  N4  UNL     1      26.183   1.275  54.040  1.00  0.00    -0.384 N 
HETATM   13  H12 UNL     1      26.625   2.184  53.806  1.00  0.00     0.160 HD
BRANCH  12  14
HETATM   14  C16 UNL     1      26.745   0.297  54.964  1.00  0.00     0.184 C 
BRANCH  14  15
HETATM   15  C17 UNL     1      28.026  -0.169  54.330  1.00  0.00     0.070 A 
HETATM   16  C18 UNL     1      29.150   0.626  54.143  1.00  0.00     0.036 A 
HETATM   17  C19 UNL     1      30.087  -0.184  53.536  1.00  0.00     0.027 A 
HETATM   18  C20 UNL     1      29.445  -1.419  53.405  1.00  0.00     0.142 A 
HETATM   19  O2  UNL     1      28.233  -1.375  53.884  1.00  0.00    -0.325 OA
ENDBRANCH  14  15
ENDBRANCH  12  14
ENDBRANCH  10  12
ENDBRANCH   1  10
BRANCH   9  20
HETATM   20  N3  UNL     1      22.164   4.393  52.425  1.00  0.00    -0.321 N 
HETATM   21  H7  UNL     1      22.223   4.996  53.302  1.00  0.00     0.169 HD
BRANCH  20  22
HETATM   22  C10 UNL     1      20.953   3.726  52.011  1.00  0.00     0.148 C 
HETATM   23  C11 UNL     1      20.268   4.418  51.116  1.00  0.00     0.056 C 
HETATM   24  C12 UNL     1      19.011   3.995  50.519  1.00  0.00     0.006 C 
HETATM   25  C13 UNL     1      18.381   2.825  50.641  1.00  0.00     0.021 C 
HETATM   26  C14 UNL     1      18.826   1.667  51.428  1.00  0.00     0.033 C 
HETATM   27 BR1  UNL     1      17.843   0.036  51.270  1.00  0.00    -0.049 Br
HETATM   28  C15 UNL     1      19.847   1.534  52.281  1.00  0.00     0.163 C 
HETATM   29  O1  UNL     1      20.791   2.503  52.657  1.00  0.00    -0.304 OA
ENDBRANCH  20  22
ENDBRANCH   9  20
TORSDOF 6
ENDMDL
MODEL 4
REMARK VINA RESULT:      -7.4      2.976      4.041
REMARK  6 active torsions:
REMARK  status: ('A' for Active; 'I' for Inactive)
REMARK    1  A    between atoms: C2_2  and  C3_3 
REMARK    2  A    between atoms: C2_2  and  N4_21 
REMARK    3  A    between atoms: C9_11  and  N3_12 
REMARK    4  A    between atoms: N3_12  and  C10_13 
REMARK    5  A    between atoms: N4_21  and  C16_22 
REMARK    6  A    between atoms: C16_22  and  C17_23 
ROOT
HETATM    1  C3  UNL     1      23.021   1.161  53.328  1.00  0.00     0.039 C 
HETATM    2  C4  UNL     1      24.292   0.904  53.102  1.00  0.00    -0.005 A 
HETATM    3  C5  UNL     1      24.866  -0.453  53.046  1.00  0.00     0.094 A 
HETATM    4  C6  UNL     1      26.329  -0.393  52.768  1.00  0.00     0.044 A 
HETATM    5  C7  UNL     1      26.979  -1.674  52.690  1.00  0.00     0.097 C 
HETATM    6  N1  UNL     1      27.524  -2.708  52.620  1.00  0.00    -0.192 NA
HETATM    7  C8  UNL     1      27.075   0.682  52.590  1.00  0.00     0.137 A 
HETATM    8  N2  UNL     1      26.436   1.947  52.667  1.00  0.00    -0.241 NA
HETATM    9  C9  UNL     1      25.173   2.063  52.900  1.00  0.00     0.135 A 
ENDROOT
BRANCH   1  10
HETATM   10  C2  UNL     1      22.030   0.120  53.553  1.00  0.00     0.019 C 
HETATM   11  C1  UNL     1      22.016  -0.652  54.626  1.00  0.00     0.042 C 
BRANCH  10  12
HETATM   12  N4  UNL     1      20.928  -0.312  52.774  1.00  0.00    -0.384 N 
HETATM   13  H12 UNL     1      21.180  -1.296  52.557  1.00  0.00     0.160 HD
BRANCH  12  14
HETATM   14  C16 UNL     1      19.710   0.348  52.321  1.00  0.00     0.184 C 
BRANCH  14  15
HETATM   15  C17 UNL     1      18.593  -0.613  52.621  1.00  0.00     0.070 A 
HETATM   16  C18 UNL     1      18.699  -1.707  53.472  1.00  0.00     0.036 A 
HETATM   17  C19 UNL     1      17.459  -2.312  53.462  1.00  0.00     0.027 A 
HETATM   18  C20 UNL     1      16.696  -1.524  52.595  1.00  0.00     0.142 A 
HETATM   19  O2  UNL     1      17.394  -0.532  52.118  1.00  0.00    -0.325 OA
ENDBRANCH  14  15
ENDBRANCH  12  14
ENDBRANCH  10  12
ENDBRANCH   1  10
BRANCH   9  20
HETATM   20  N3  UNL     1      24.693   3.423  52.957  1.00  0.00    -0.321 N 
HETATM   21  H7  UNL     1      24.992   3.964  53.825  1.00  0.00     0.169 HD
BRANCH  20  22
HETATM   22  C10 UNL     1      23.873   3.997  51.918  1.00  0.00     0.148 C 
HETATM   23  C11 UNL     1      22.913   4.773  52.394  1.00  0.00     0.056 C 
HETATM   24  C12 UNL     1      21.937   5.483  51.583  1.00  0.00     0.006 C 
HETATM   25  C13 UNL     1      21.883   5.602  50.255  1.00  0.00     0.021 C 
HETATM   26  C14 UNL     1      22.823   5.028  49.284  1.00  0.00     0.033 C 
HETATM   27 BR1  UNL     1      22.638   5.519  47.446  1.00  0.00    -0.049 Br
HETATM   28  C15 UNL     1      23.841   4.176  49.455  1.00  0.00     0.163 C 
HETATM   29  O1  UNL     1      24.288   3.594  50.651  1.00  0.00    -0.304 OA
ENDBRANCH  20  22
ENDBRANCH   9  20
TORSDOF 6
ENDMDL
MODEL 5
REMARK VINA RESULT:      -7.3      3.308      5.473
REMARK  6 active torsions:
REMARK  status: ('A' for Active; 'I' for Inactive)
REMARK    1  A    between atoms: C2_2  and  C3_3 
REMARK    2  A    between atoms: C2_2  and  N4_21 
REMARK    3  A    between atoms: C9_11  and  N3_12 
REMARK    4  A    between atoms: N3_12  and  C10_13 
REMARK    5  A    between atoms: N4_21  and  C16_22 
REMARK    6  A    between atoms: C16_22  and  C17_23 
ROOT
HETATM    1  C3  UNL     1      22.081   2.493  52.339  1.00  0.00     0.039 C 
HETATM    2  C4  UNL     1      22.766   3.076  51.378  1.00  0.00    -0.005 A 
HETATM    3  C5  UNL     1      22.211   3.422  50.057  1.00  0.00     0.094 A 
HETATM    4  C6  UNL     1      23.248   4.073  49.207  1.00  0.00     0.044 A 
HETATM    5  C7  UNL     1      22.796   4.453  47.894  1.00  0.00     0.097 C 
HETATM    6  N1  UNL     1      22.446   4.771  46.823  1.00  0.00    -0.192 NA
HETATM    7  C8  UNL     1      24.504   4.332  49.519  1.00  0.00     0.137 A 
HETATM    8  N2  UNL     1      24.951   3.958  50.813  1.00  0.00    -0.241 NA
HETATM    9  C9  UNL     1      24.174   3.386  51.667  1.00  0.00     0.135 A 
ENDROOT
BRANCH   1  10
HETATM   10  C2  UNL     1      20.681   2.120  52.200  1.00  0.00     0.019 C 
HETATM   11  C1  UNL     1      19.692   2.997  52.204  1.00  0.00     0.042 C 
BRANCH  10  12
HETATM   12  N4  UNL     1      20.055   0.859  52.044  1.00  0.00    -0.384 N 
HETATM   13  H12 UNL     1      20.086   0.720  51.016  1.00  0.00     0.160 HD
BRANCH  12  14
HETATM   14  C16 UNL     1      19.474  -0.087  52.989  1.00  0.00     0.184 C 
BRANCH  14  15
HETATM   15  C17 UNL     1      20.634  -0.651  53.762  1.00  0.00     0.070 A 
HETATM   16  C18 UNL     1      21.278   0.000  54.808  1.00  0.00     0.036 A 
HETATM   17  C19 UNL     1      22.271  -0.859  55.230  1.00  0.00     0.027 A 
HETATM   18  C20 UNL     1      22.143  -1.974  54.396  1.00  0.00     0.142 A 
HETATM   19  O2  UNL     1      21.169  -1.818  53.544  1.00  0.00    -0.325 OA
ENDBRANCH  14  15
ENDBRANCH  12  14
ENDBRANCH  10  12
ENDBRANCH   1  10
BRANCH   9  20
HETATM   20  N3  UNL     1      24.796   3.063  52.928  1.00  0.00    -0.321 N 
HETATM   21  H7  UNL     1      24.580   3.744  53.719  1.00  0.00     0.169 HD
BRANCH  20  22
HETATM   22  C10 UNL     1      25.642   1.906  53.098  1.00  0.00     0.148 C 
HETATM   23  C11 UNL     1      25.027   0.774  52.797  1.00  0.00     0.056 C 
HETATM   24  C12 UNL     1      25.630  -0.547  52.873  1.00  0.00     0.006 C 
HETATM   25  C13 UNL     1      26.899  -0.873  53.122  1.00  0.00     0.021 C 
HETATM   26  C14 UNL     1      28.007   0.054  53.384  1.00  0.00     0.033 C 
HETATM   27 BR1  UNL     1      29.775  -0.661  53.509  1.00  0.00    -0.049 Br
HETATM   28  C15 UNL     1      28.010   1.380  53.562  1.00  0.00     0.163 C 
HETATM   29  O1  UNL     1      26.914   2.257  53.543  1.00  0.00    -0.304 OA
ENDBRANCH  20  22
ENDBRANCH   9  20
TORSDOF 6
ENDMDL
MODEL 6
REMARK VINA RESULT:      -7.3      3.595      6.830
REMARK  6 active torsions:
REMARK  status: ('A' for Active; 'I' for Inactive)
REMARK    1  A    between atoms: C2_2  and  C3_3 
REMARK    2  A    between atoms: C2_2  and  N4_21 
REMARK    3  A    between atoms: C9_11  and  N3_12 
REMARK    4  A    between atoms: N3_12  and  C10_13 
REMARK    5  A    between atoms: N4_21  and  C16_22 
REMARK    6  A    between atoms: C16_22  and  C17_23 
ROOT
HETATM    1  C3  UNL     1      22.978   2.472  51.487  1.00  0.00     0.039 C 
HETATM    2  C4  UNL     1      22.930   1.329  52.139  1.00  0.00    -0.005 A 
HETATM    3  C5  UNL     1      23.841   0.964  53.239  1.00  0.00     0.094 A 
HETATM    4  C6  UNL     1      23.514  -0.394  53.761  1.00  0.00     0.044 A 
HETATM    5  C7  UNL     1      24.350  -0.838  54.845  1.00  0.00     0.097 C 
HETATM    6  N1  UNL     1      25.020  -1.214  55.729  1.00  0.00    -0.192 NA
HETATM    7  C8  UNL     1      22.565  -1.213  53.347  1.00  0.00     0.137 A 
HETATM    8  N2  UNL     1      21.740  -0.777  52.279  1.00  0.00    -0.241 NA
HETATM    9  C9  UNL     1      21.894   0.374  51.719  1.00  0.00     0.135 A 
ENDROOT
BRANCH   1  10
HETATM   10  C2  UNL     1      23.950   3.513  51.784  1.00  0.00     0.019 C 
HETATM   11  C1  UNL     1      23.634   4.660  52.360  1.00  0.00     0.042 C 
BRANCH  10  12
HETATM   12  N4  UNL     1      25.348   3.586  51.562  1.00  0.00    -0.384 N 
HETATM   13  H12 UNL     1      25.613   4.440  52.087  1.00  0.00     0.160 HD
BRANCH  12  14
HETATM   14  C16 UNL     1      26.280   2.754  50.811  1.00  0.00     0.184 C 
BRANCH  14  15
HETATM   15  C17 UNL     1      26.803   1.743  51.794  1.00  0.00     0.070 A 
HETATM   16  C18 UNL     1      27.361   2.057  53.028  1.00  0.00     0.036 A 
HETATM   17  C19 UNL     1      27.704   0.850  53.603  1.00  0.00     0.027 A 
HETATM   18  C20 UNL     1      27.319  -0.106  52.658  1.00  0.00     0.142 A 
HETATM   19  O2  UNL     1      26.792   0.454  51.606  1.00  0.00    -0.325 OA
ENDBRANCH  14  15
ENDBRANCH  12  14
ENDBRANCH  10  12
ENDBRANCH   1  10
BRANCH   9  20
HETATM   20  N3  UNL     1      20.977   0.649  50.640  1.00  0.00    -0.321 N 
HETATM   21  H7  UNL     1      21.378   0.494  49.664  1.00  0.00     0.169 HD
BRANCH  20  22
HETATM   22  C10 UNL     1      19.625   1.097  50.870  1.00  0.00     0.148 C 
HETATM   23  C11 UNL     1      18.787   0.099  51.099  1.00  0.00     0.056 C 
HETATM   24  C12 UNL     1      17.365   0.249  51.364  1.00  0.00     0.006 C 
HETATM   25  C13 UNL     1      16.664   1.368  51.552  1.00  0.00     0.021 C 
HETATM   26  C14 UNL     1      17.184   2.742  51.534  1.00  0.00     0.033 C 
HETATM   27 BR1  UNL     1      16.006   4.161  52.038  1.00  0.00    -0.049 Br
HETATM   28  C15 UNL     1      18.394   3.211  51.213  1.00  0.00     0.163 C 
HETATM   29  O1  UNL     1      19.520   2.484  50.796  1.00  0.00    -0.304 OA
ENDBRANCH  20  22
ENDBRANCH   9  20
TORSDOF 6
ENDMDL
MODEL 7
REMARK VINA RESULT:      -7.3      3.170      7.799
REMARK  6 active torsions:
REMARK  status: ('A' for Active; 'I' for Inactive)
REMARK    1  A    between atoms: C2_2  and  C3_3 
REMARK    2  A    between atoms: C2_2  and  N4_21 
REMARK    3  A    between atoms: C9_11  and  N3_12 
REMARK    4  A    between atoms: N3_12  and  C10_13 
REMARK    5  A    between atoms: N4_21  and  C16_22 
REMARK    6  A    between atoms: C16_22  and  C17_23 
ROOT
HETATM    1  C3  UNL     1      25.264   3.067  51.252  1.00  0.00     0.039 C 
HETATM    2  C4  UNL     1      24.082   2.542  51.011  1.00  0.00    -0.005 A 
HETATM    3  C5  UNL     1      23.295   2.800  49.790  1.00  0.00     0.094 A 
HETATM    4  C6  UNL     1      22.008   2.049  49.829  1.00  0.00     0.044 A 
HETATM    5  C7  UNL     1      21.169   2.234  48.674  1.00  0.00     0.097 C 
HETATM    6  N1  UNL     1      20.476   2.371  47.740  1.00  0.00    -0.192 NA
HETATM    7  C8  UNL     1      21.564   1.253  50.784  1.00  0.00     0.137 A 
HETATM    8  N2  UNL     1      22.388   1.068  51.924  1.00  0.00    -0.241 NA
HETATM    9  C9  UNL     1      23.534   1.648  52.041  1.00  0.00     0.135 A 
ENDROOT
BRANCH   1  10
HETATM   10  C2  UNL     1      25.933   3.973  50.331  1.00  0.00     0.019 C 
HETATM   11  C1  UNL     1      26.776   3.568  49.397  1.00  0.00     0.042 C 
BRANCH  10  12
HETATM   12  N4  UNL     1      25.879   5.382  50.192  1.00  0.00    -0.384 N 
HETATM   13  H12 UNL     1      25.976   5.707  51.173  1.00  0.00     0.160 HD
BRANCH  12  14
HETATM   14  C16 UNL     1      25.722   6.263  49.042  1.00  0.00     0.184 C 
BRANCH  14  15
HETATM   15  C17 UNL     1      26.648   7.421  49.290  1.00  0.00     0.070 A 
HETATM   16  C18 UNL     1      26.373   8.484  50.143  1.00  0.00     0.036 A 
HETATM   17  C19 UNL     1      27.474   9.313  50.077  1.00  0.00     0.027 A 
HETATM   18  C20 UNL     1      28.335   8.675  49.179  1.00  0.00     0.142 A 
HETATM   19  O2  UNL     1      27.818   7.565  48.736  1.00  0.00    -0.325 OA
ENDBRANCH  14  15
ENDBRANCH  12  14
ENDBRANCH  10  12
ENDBRANCH   1  10
BRANCH   9  20
HETATM   20  N3  UNL     1      24.233   1.361  53.270  1.00  0.00    -0.321 N 
HETATM   21  H7  UNL     1      23.782   1.770  54.145  1.00  0.00     0.169 HD
BRANCH  20  22
HETATM   22  C10 UNL     1      25.446   0.579  53.304  1.00  0.00     0.148 C 
HETATM   23  C11 UNL     1      25.309  -0.603  52.724  1.00  0.00     0.056 C 
HETATM   24  C12 UNL     1      26.361  -1.600  52.607  1.00  0.00     0.006 C 
HETATM   25  C13 UNL     1      27.652  -1.493  52.926  1.00  0.00     0.021 C 
HETATM   26  C14 UNL     1      28.323  -0.311  53.481  1.00  0.00     0.033 C 
HETATM   27 BR1  UNL     1      30.226  -0.351  53.656  1.00  0.00    -0.049 Br
HETATM   28  C15 UNL     1      27.824   0.853  53.912  1.00  0.00     0.163 C 
HETATM   29  O1  UNL     1      26.480   1.257  53.944  1.00  0.00    -0.304 OA
ENDBRANCH  20  22
ENDBRANCH   9  20
TORSDOF 6
ENDMDL
MODEL 8
REMARK VINA RESULT:      -7.2      3.286      5.961
REMARK  6 active torsions:
REMARK  status: ('A' for Active; 'I' for Inactive)
REMARK    1  A    between atoms: C2_2  and  C3_3 
REMARK    2  A    between atoms: C2_2  and  N4_21 
REMARK    3  A    between atoms: C9_11  and  N3_12 
REMARK    4  A    between atoms: N3_12  and  C10_13 
REMARK    5  A    between atoms: N4_21  and  C16_22 
REMARK    6  A    between atoms: C16_22  and  C17_23 
ROOT
HETATM    1  C3  UNL     1      24.088   2.930  52.083  1.00  0.00     0.039 C 
HETATM    2  C4  UNL     1      24.496   3.706  51.102  1.00  0.00    -0.005 A 
HETATM    3  C5  UNL     1      25.875   3.726  50.581  1.00  0.00     0.094 A 
HETATM    4  C6  UNL     1      26.001   4.712  49.470  1.00  0.00     0.044 A 
HETATM    5  C7  UNL     1      27.316   4.800  48.891  1.00  0.00     0.097 C 
HETATM    6  N1  UNL     1      28.379   4.883  48.407  1.00  0.00    -0.192 NA
HETATM    7  C8  UNL     1      25.061   5.494  48.972  1.00  0.00     0.137 A 
HETATM    8  N2  UNL     1      23.764   5.409  49.540  1.00  0.00    -0.241 NA
HETATM    9  C9  UNL     1      23.493   4.602  50.509  1.00  0.00     0.135 A 
ENDROOT
BRANCH   1  10
HETATM   10  C2  UNL     1      24.964   1.995  52.772  1.00  0.00     0.019 C 
HETATM   11  C1  UNL     1      25.799   2.353  53.732  1.00  0.00     0.042 C 
BRANCH  10  12
HETATM   12  N4  UNL     1      25.152   0.598  52.623  1.00  0.00    -0.384 N 
HETATM   13  H12 UNL     1      25.358   0.507  51.610  1.00  0.00     0.160 HD
BRANCH  12  14
HETATM   14  C16 UNL     1      25.092  -0.518  53.558  1.00  0.00     0.184 C 
BRANCH  14  15
HETATM   15  C17 UNL     1      23.631  -0.721  53.853  1.00  0.00     0.070 A 
HETATM   16  C18 UNL     1      22.605  -0.523  52.936  1.00  0.00     0.036 A 
HETATM   17  C19 UNL     1      21.438  -0.818  53.610  1.00  0.00     0.027 A 
HETATM   18  C20 UNL     1      21.859  -1.176  54.894  1.00  0.00     0.142 A 
HETATM   19  O2  UNL     1      23.156  -1.108  55.002  1.00  0.00    -0.325 OA
ENDBRANCH  14  15
ENDBRANCH  12  14
ENDBRANCH  10  12
ENDBRANCH   1  10
BRANCH   9  20
HETATM   20  N3  UNL     1      22.128   4.655  50.975  1.00  0.00    -0.321 N 
HETATM   21  H7  UNL     1      21.863   5.559  51.473  1.00  0.00     0.169 HD
BRANCH  20  22
HETATM   22  C10 UNL     1      21.201   3.567  50.777  1.00  0.00     0.148 C 
HETATM   23  C11 UNL     1      21.292   3.031  49.570  1.00  0.00     0.056 C 
HETATM   24  C12 UNL     1      20.486   1.921  49.089  1.00  0.00     0.006 C 
HETATM   25  C13 UNL     1      19.621   1.162  49.765  1.00  0.00     0.021 C 
HETATM   26  C14 UNL     1      19.278   1.279  51.188  1.00  0.00     0.033 C 
HETATM   27 BR1  UNL     1      18.161  -0.065  51.962  1.00  0.00    -0.049 Br
HETATM   28  C15 UNL     1      19.620   2.202  52.094  1.00  0.00     0.163 C 
HETATM   29  O1  UNL     1      20.424   3.337  51.909  1.00  0.00    -0.304 OA
ENDBRANCH  20  22
ENDBRANCH   9  20
TORSDOF 6
ENDMDL
MODEL 9
REMARK VINA RESULT:      -7.1      3.928      8.341
REMARK  6 active torsions:
REMARK  status: ('A' for Active; 'I' for Inactive)
REMARK    1  A    between atoms: C2_2  and  C3_3 
REMARK    2  A    between atoms: C2_2  and  N4_21 
REMARK    3  A    between atoms: C9_11  and  N3_12 
REMARK    4  A    between atoms: N3_12  and  C10_13 
REMARK    5  A    between atoms: N4_21  and  C16_22 
REMARK    6  A    between atoms: C16_22  and  C17_23 
ROOT
HETATM    1  C3  UNL     1      22.831   3.014  52.266  1.00  0.00     0.039 C 
HETATM    2  C4  UNL     1      23.129   1.798  52.673  1.00  0.00    -0.005 A 
HETATM    3  C5  UNL     1      24.504   1.277  52.788  1.00  0.00     0.094 A 
HETATM    4  C6  UNL     1      24.492  -0.129  53.280  1.00  0.00     0.044 A 
HETATM    5  C7  UNL     1      25.794  -0.725  53.430  1.00  0.00     0.097 C 
HETATM    6  N1  UNL     1      26.845  -1.224  53.560  1.00  0.00    -0.192 NA
HETATM    7  C8  UNL     1      23.443  -0.870  53.587  1.00  0.00     0.137 A 
HETATM    8  N2  UNL     1      22.159  -0.286  53.440  1.00  0.00    -0.241 NA
HETATM    9  C9  UNL     1      22.001   0.925  53.025  1.00  0.00     0.135 A 
ENDROOT
BRANCH   1  10
HETATM   10  C2  UNL     1      23.838   3.990  51.878  1.00  0.00     0.019 C 
HETATM   11  C1  UNL     1      23.747   5.278  52.157  1.00  0.00     0.042 C 
BRANCH  10  12
HETATM   12  N4  UNL     1      25.058   3.852  51.170  1.00  0.00    -0.384 N 
HETATM   13  H12 UNL     1      25.756   4.191  51.859  1.00  0.00     0.160 HD
BRANCH  12  14
HETATM   14  C16 UNL     1      25.382   3.381  49.829  1.00  0.00     0.184 C 
BRANCH  14  15
HETATM   15  C17 UNL     1      26.338   4.394  49.265  1.00  0.00     0.070 A 
HETATM   16  C18 UNL     1      26.013   5.716  48.982  1.00  0.00     0.036 A 
HETATM   17  C19 UNL     1      27.166   6.289  48.487  1.00  0.00     0.027 A 
HETATM   18  C20 UNL     1      28.106   5.254  48.511  1.00  0.00     0.142 A 
HETATM   19  O2  UNL     1      27.585   4.153  48.975  1.00  0.00    -0.325 OA
ENDBRANCH  14  15
ENDBRANCH  12  14
ENDBRANCH  10  12
ENDBRANCH   1  10
BRANCH   9  20
HETATM   20  N3  UNL     1      20.627   1.354  52.922  1.00  0.00    -0.321 N 
HETATM   21  H7  UNL     1      20.489   2.411  52.931  1.00  0.00     0.169 HD
BRANCH  20  22
HETATM   22  C10 UNL     1      19.532   0.419  52.815  1.00  0.00     0.148 C 
HETATM   23  C11 UNL     1      18.752   0.663  51.774  1.00  0.00     0.056 C 
HETATM   24  C12 UNL     1      17.576  -0.113  51.415  1.00  0.00     0.006 C 
HETATM   25  C13 UNL     1      17.130  -1.250  51.952  1.00  0.00     0.021 C 
HETATM   26  C14 UNL     1      17.743  -1.998  53.058  1.00  0.00     0.033 C 
HETATM   27 BR1  UNL     1      17.019  -3.709  53.503  1.00  0.00    -0.049 Br
HETATM   28  C15 UNL     1      18.770  -1.687  53.856  1.00  0.00     0.163 C 
HETATM   29  O1  UNL     1      19.555  -0.523  53.840  1.00  0.00    -0.304 OA
ENDBRANCH  20  22
ENDBRANCH   9  20
TORSDOF 6
ENDMDL
