MODEL 1
REMARK VINA RESULT:      -9.8      0.000      0.000
REMARK  2 active torsions:
REMARK  status: ('A' for Active; 'I' for Inactive)
REMARK    1  A    between atoms: C9_10  and  N2_11 
REMARK    2  A    between atoms: N2_11  and  C10_12 
ROOT
HETATM    1  C1  UNL     1      22.895   5.272  51.758  1.00  0.00    -0.005 C 
HETATM    2  C2  UNL     1      22.694   4.267  52.589  1.00  0.00     0.030 C 
HETATM    3  C3  UNL     1      22.081   2.987  52.255  1.00  0.00     0.062 A 
HETATM    4  N1  UNL     1      20.780   3.091  51.966  1.00  0.00    -0.261 NA
HETATM    5  C4  UNL     1      20.089   1.959  51.615  1.00  0.00     0.117 A 
HETATM    6  C5  UNL     1      20.779   0.762  51.577  1.00  0.00     0.020 A 
HETATM    7  C6  UNL     1      22.123   0.655  51.876  1.00  0.00     0.011 A 
HETATM    8  C7  UNL     1      22.826   1.791  52.232  1.00  0.00    -0.024 A 
HETATM    9  C8  UNL     1      24.269   1.958  52.632  1.00  0.00     0.097 C 
HETATM   10  C9  UNL     1      25.147   2.487  51.612  1.00  0.00     0.006 C 
HETATM   11  C15 UNL     1      25.528   2.939  50.401  1.00  0.00     0.002 C 
HETATM   12  C16 UNL     1      26.755   3.471  49.701  1.00  0.00     0.057 C 
HETATM   13  C17 UNL     1      26.483   4.795  49.151  1.00  0.00    -0.010 C 
HETATM   14  C18 UNL     1      25.954   5.949  48.727  1.00  0.00     0.004 A 
HETATM   15  C19 UNL     1      26.621   7.100  48.080  1.00  0.00     0.192 A 
HETATM   16  N4  UNL     1      25.713   8.128  47.793  1.00  0.00    -0.278 NA
HETATM   17  C20 UNL     1      24.481   8.186  47.982  1.00  0.00     0.229 A 
HETATM   18  N5  UNL     1      23.780   7.074  48.587  1.00  0.00    -0.225 NA
HETATM   19  C21 UNL     1      24.517   6.066  48.907  1.00  0.00     0.132 A 
HETATM   20  N6  UNL     1      23.541   5.192  49.413  1.00  0.00    -0.371 N 
HETATM   21  C22 UNL     1      22.479   5.151  50.369  1.00  0.00     0.148 C 
HETATM   22  H26 UNL     1      23.788   4.408  48.773  1.00  0.00     0.161 HD
ENDROOT
BRANCH  10  23
HETATM   23  N2  UNL     1      26.419   2.650  52.232  1.00  0.00    -0.388 N 
HETATM   24  H8  UNL     1      26.598   3.651  52.497  1.00  0.00     0.159 HD
BRANCH  23  25
HETATM   25  C10 UNL     1      27.475   1.741  52.544  1.00  0.00     0.084 C 
HETATM   26  C11 UNL     1      28.343   2.179  53.709  1.00  0.00     0.055 C 
HETATM   27  C12 UNL     1      29.193   0.963  54.117  1.00  0.00     0.271 C 
HETATM   28  N3  UNL     1      28.371  -0.022  54.788  1.00  0.00     0.083 N 
HETATM   29  C13 UNL     1      27.006   0.082  54.368  1.00  0.00     0.271 C 
HETATM   30  H14 UNL     1      28.491   0.005  55.825  1.00  0.00     0.315 HD
HETATM   31  C14 UNL     1      26.968   0.360  52.881  1.00  0.00     0.055 C 
ENDBRANCH  23  25
ENDBRANCH  10  23
TORSDOF 2
ENDMDL
MODEL 2
REMARK VINA RESULT:      -9.7      2.788      6.762
REMARK  2 active torsions:
REMARK  status: ('A' for Active; 'I' for Inactive)
REMARK    1  A    between atoms: C9_10  and  N2_11 
REMARK    2  A    between atoms: N2_11  and  C10_12 
ROOT
HETATM    1  C1  UNL     1      21.035   1.019  50.342  1.00  0.00    -0.005 C 
HETATM    2  C2  UNL     1      22.219   1.578  50.175  1.00  0.00     0.030 C 
HETATM    3  C3  UNL     1      22.670   2.826  50.777  1.00  0.00     0.062 A 
HETATM    4  N1  UNL     1      22.027   3.898  50.301  1.00  0.00    -0.261 NA
HETATM    5  C4  UNL     1      22.346   5.134  50.802  1.00  0.00     0.117 A 
HETATM    6  C5  UNL     1      23.320   5.209  51.779  1.00  0.00     0.020 A 
HETATM    7  C6  UNL     1      23.984   4.103  52.270  1.00  0.00     0.011 A 
HETATM    8  C7  UNL     1      23.671   2.853  51.770  1.00  0.00    -0.024 A 
HETATM    9  C8  UNL     1      24.250   1.501  52.095  1.00  0.00     0.097 C 
HETATM   10  C9  UNL     1      23.451   0.668  52.967  1.00  0.00     0.006 C 
HETATM   11  C15 UNL     1      22.429   0.321  53.774  1.00  0.00     0.002 C 
HETATM   12  C16 UNL     1      21.948  -0.857  54.586  1.00  0.00     0.057 C 
HETATM   13  C17 UNL     1      20.607  -1.244  54.162  1.00  0.00    -0.010 C 
HETATM   14  C18 UNL     1      19.391  -1.348  53.611  1.00  0.00     0.004 A 
HETATM   15  C19 UNL     1      18.370  -2.403  53.797  1.00  0.00     0.192 A 
HETATM   16  N4  UNL     1      17.223  -2.151  53.032  1.00  0.00    -0.278 NA
HETATM   17  C20 UNL     1      16.958  -1.195  52.276  1.00  0.00     0.229 A 
HETATM   18  N5  UNL     1      17.914  -0.126  52.083  1.00  0.00    -0.225 NA
HETATM   19  C21 UNL     1      19.021  -0.253  52.731  1.00  0.00     0.132 A 
HETATM   20  N6  UNL     1      19.670   0.934  52.355  1.00  0.00    -0.371 N 
HETATM   21  C22 UNL     1      20.046   1.669  51.188  1.00  0.00     0.148 C 
HETATM   22  H26 UNL     1      19.829   1.259  53.331  1.00  0.00     0.161 HD
ENDROOT
BRANCH  10  23
HETATM   23  N2  UNL     1      24.132  -0.579  53.056  1.00  0.00    -0.388 N 
HETATM   24  H8  UNL     1      23.531  -1.376  52.729  1.00  0.00     0.159 HD
BRANCH  23  25
HETATM   25  C10 UNL     1      25.438  -0.947  53.503  1.00  0.00     0.084 C 
HETATM   26  C11 UNL     1      26.516  -0.809  52.444  1.00  0.00     0.055 C 
HETATM   27  C12 UNL     1      27.870  -0.916  53.165  1.00  0.00     0.271 C 
HETATM   28  N3  UNL     1      28.129   0.287  53.929  1.00  0.00     0.083 N 
HETATM   29  C13 UNL     1      26.904   0.927  54.303  1.00  0.00     0.271 C 
HETATM   30  H14 UNL     1      28.801   0.923  53.444  1.00  0.00     0.315 HD
HETATM   31  C14 UNL     1      25.894  -0.131  54.689  1.00  0.00     0.055 C 
ENDBRANCH  23  25
ENDBRANCH  10  23
TORSDOF 2
ENDMDL
MODEL 3
REMARK VINA RESULT:      -9.4      1.776      5.761
REMARK  2 active torsions:
REMARK  status: ('A' for Active; 'I' for Inactive)
REMARK    1  A    between atoms: C9_10  and  N2_11 
REMARK    2  A    between atoms: N2_11  and  C10_12 
ROOT
HETATM    1  C1  UNL     1      22.082   1.957  49.060  1.00  0.00    -0.005 C 
HETATM    2  C2  UNL     1      23.184   2.523  48.605  1.00  0.00     0.030 C 
HETATM    3  C3  UNL     1      23.591   3.905  48.820  1.00  0.00     0.062 A 
HETATM    4  N1  UNL     1      22.805   4.785  48.191  1.00  0.00    -0.261 NA
HETATM    5  C4  UNL     1      23.070   6.123  48.330  1.00  0.00     0.117 A 
HETATM    6  C5  UNL     1      24.141   6.496  49.119  1.00  0.00     0.020 A 
HETATM    7  C6  UNL     1      24.953   5.588  49.769  1.00  0.00     0.011 A 
HETATM    8  C7  UNL     1      24.694   4.237  49.633  1.00  0.00    -0.024 A 
HETATM    9  C8  UNL     1      25.424   3.044  50.194  1.00  0.00     0.097 C 
HETATM   10  C9  UNL     1      24.809   2.413  51.342  1.00  0.00     0.006 C 
HETATM   11  C15 UNL     1      23.922   2.224  52.339  1.00  0.00     0.002 C 
HETATM   12  C16 UNL     1      23.645   1.262  53.470  1.00  0.00     0.057 C 
HETATM   13  C17 UNL     1      22.303   0.706  53.336  1.00  0.00    -0.010 C 
HETATM   14  C18 UNL     1      21.045   0.398  52.996  1.00  0.00     0.004 A 
HETATM   15  C19 UNL     1      20.150  -0.632  53.567  1.00  0.00     0.192 A 
HETATM   16  N4  UNL     1      18.904  -0.645  52.926  1.00  0.00    -0.278 NA
HETATM   17  C20 UNL     1      18.469   0.074  52.003  1.00  0.00     0.229 A 
HETATM   18  N5  UNL     1      19.298   1.112  51.431  1.00  0.00    -0.225 NA
HETATM   19  C21 UNL     1      20.480   1.215  51.935  1.00  0.00     0.132 A 
HETATM   20  N6  UNL     1      20.974   2.304  51.199  1.00  0.00    -0.371 N 
HETATM   21  C22 UNL     1      21.145   2.742  49.849  1.00  0.00     0.148 C 
HETATM   22  H26 UNL     1      21.216   2.872  52.037  1.00  0.00     0.161 HD
ENDROOT
BRANCH  10  23
HETATM   23  N2  UNL     1      25.603   1.269  51.637  1.00  0.00    -0.388 N 
HETATM   24  H8  UNL     1      25.084   0.375  51.451  1.00  0.00     0.159 HD
BRANCH  23  25
HETATM   25  C10 UNL     1      26.932   1.107  52.135  1.00  0.00     0.084 C 
HETATM   26  C11 UNL     1      27.417   2.262  52.990  1.00  0.00     0.055 C 
HETATM   27  C12 UNL     1      28.696   1.788  53.701  1.00  0.00     0.271 C 
HETATM   28  N3  UNL     1      28.368   0.840  54.745  1.00  0.00     0.083 N 
HETATM   29  C13 UNL     1      27.140   0.164  54.452  1.00  0.00     0.271 C 
HETATM   30  H14 UNL     1      28.387   1.276  55.694  1.00  0.00     0.315 HD
HETATM   31  C14 UNL     1      27.087  -0.141  52.970  1.00  0.00     0.055 C 
ENDBRANCH  23  25
ENDBRANCH  10  23
TORSDOF 2
ENDMDL
MODEL 4
REMARK VINA RESULT:      -9.2      1.500      2.119
REMARK  2 active torsions:
REMARK  status: ('A' for Active; 'I' for Inactive)
REMARK    1  A    between atoms: C9_10  and  N2_11 
REMARK    2  A    between atoms: N2_11  and  C10_12 
ROOT
HETATM    1  C1  UNL     1      23.955   6.406  51.227  1.00  0.00    -0.005 C 
HETATM    2  C2  UNL     1      23.145   5.607  51.894  1.00  0.00     0.030 C 
HETATM    3  C3  UNL     1      22.040   4.842  51.332  1.00  0.00     0.062 A 
HETATM    4  N1  UNL     1      21.033   5.613  50.908  1.00  0.00    -0.261 NA
HETATM    5  C4  UNL     1      19.938   5.015  50.338  1.00  0.00     0.117 A 
HETATM    6  C5  UNL     1      19.933   3.637  50.229  1.00  0.00     0.020 A 
HETATM    7  C6  UNL     1      20.973   2.841  50.668  1.00  0.00     0.011 A 
HETATM    8  C7  UNL     1      22.079   3.436  51.245  1.00  0.00    -0.024 A 
HETATM    9  C8  UNL     1      23.323   2.819  51.830  1.00  0.00     0.097 C 
HETATM   10  C9  UNL     1      24.503   2.871  50.995  1.00  0.00     0.006 C 
HETATM   11  C15 UNL     1      25.253   3.123  49.904  1.00  0.00     0.002 C 
HETATM   12  C16 UNL     1      26.679   2.983  49.426  1.00  0.00     0.057 C 
HETATM   13  C17 UNL     1      27.200   4.284  49.020  1.00  0.00    -0.010 C 
HETATM   14  C18 UNL     1      27.396   5.566  48.686  1.00  0.00     0.004 A 
HETATM   15  C19 UNL     1      28.646   6.241  48.273  1.00  0.00     0.192 A 
HETATM   16  N4  UNL     1      28.435   7.602  48.013  1.00  0.00    -0.278 NA
HETATM   17  C20 UNL     1      27.385   8.274  48.062  1.00  0.00     0.229 A 
HETATM   18  N5  UNL     1      26.134   7.652  48.436  1.00  0.00    -0.225 NA
HETATM   19  C21 UNL     1      26.203   6.394  48.710  1.00  0.00     0.132 A 
HETATM   20  N6  UNL     1      24.853   6.121  48.982  1.00  0.00    -0.371 N 
HETATM   21  C22 UNL     1      23.771   6.584  49.794  1.00  0.00     0.148 C 
HETATM   22  H26 UNL     1      24.777   5.354  48.283  1.00  0.00     0.161 HD
ENDROOT
BRANCH  10  23
HETATM   23  N2  UNL     1      25.563   2.328  51.775  1.00  0.00    -0.388 N 
HETATM   24  H8  UNL     1      26.427   2.925  51.728  1.00  0.00     0.159 HD
BRANCH  23  25
HETATM   25  C10 UNL     1      25.680   1.154  52.580  1.00  0.00     0.084 C 
HETATM   26  C11 UNL     1      26.520   0.057  51.955  1.00  0.00     0.055 C 
HETATM   27  C12 UNL     1      26.815  -0.969  53.062  1.00  0.00     0.271 C 
HETATM   28  N3  UNL     1      27.780  -0.434  53.999  1.00  0.00     0.083 N 
HETATM   29  C13 UNL     1      27.728   0.997  54.022  1.00  0.00     0.271 C 
HETATM   30  H14 UNL     1      28.739  -0.813  53.837  1.00  0.00     0.315 HD
HETATM   31  C14 UNL     1      26.283   1.439  53.934  1.00  0.00     0.055 C 
ENDBRANCH  23  25
ENDBRANCH  10  23
TORSDOF 2
ENDMDL
MODEL 5
REMARK VINA RESULT:      -9.1      2.288      6.387
REMARK  2 active torsions:
REMARK  status: ('A' for Active; 'I' for Inactive)
REMARK    1  A    between atoms: C9_10  and  N2_11 
REMARK    2  A    between atoms: N2_11  and  C10_12 
ROOT
HETATM    1  C1  UNL     1      22.432   1.685  52.850  1.00  0.00    -0.005 C 
HETATM    2  C2  UNL     1      23.699   1.913  53.142  1.00  0.00     0.030 C 
HETATM    3  C3  UNL     1      24.825   1.053  52.805  1.00  0.00     0.062 A 
HETATM    4  N1  UNL     1      24.815  -0.106  53.471  1.00  0.00    -0.261 NA
HETATM    5  C4  UNL     1      25.813  -1.015  53.228  1.00  0.00     0.117 A 
HETATM    6  C5  UNL     1      26.782  -0.685  52.300  1.00  0.00     0.020 A 
HETATM    7  C6  UNL     1      26.793   0.512  51.612  1.00  0.00     0.011 A 
HETATM    8  C7  UNL     1      25.792   1.434  51.852  1.00  0.00    -0.024 A 
HETATM    9  C8  UNL     1      25.578   2.811  51.277  1.00  0.00     0.097 C 
HETATM   10  C9  UNL     1      24.568   2.911  50.246  1.00  0.00     0.006 C 
HETATM   11  C15 UNL     1      23.630   2.500  49.370  1.00  0.00     0.002 C 
HETATM   12  C16 UNL     1      22.690   3.069  48.334  1.00  0.00     0.057 C 
HETATM   13  C17 UNL     1      21.314   2.703  48.653  1.00  0.00    -0.010 C 
HETATM   14  C18 UNL     1      20.180   2.196  49.153  1.00  0.00     0.004 A 
HETATM   15  C19 UNL     1      18.782   2.460  48.748  1.00  0.00     0.192 A 
HETATM   16  N4  UNL     1      17.873   1.734  49.529  1.00  0.00    -0.278 NA
HETATM   17  C20 UNL     1      18.079   0.923  50.455  1.00  0.00     0.229 A 
HETATM   18  N5  UNL     1      19.431   0.613  50.868  1.00  0.00    -0.225 NA
HETATM   19  C21 UNL     1      20.360   1.232  50.225  1.00  0.00     0.132 A 
HETATM   20  N6  UNL     1      21.499   0.683  50.838  1.00  0.00    -0.371 N 
HETATM   21  C22 UNL     1      22.067   0.473  52.133  1.00  0.00     0.148 C 
HETATM   22  H26 UNL     1      21.926   0.356  49.947  1.00  0.00     0.161 HD
ENDROOT
BRANCH  10  23
HETATM   23  N2  UNL     1      24.468   4.294  49.924  1.00  0.00    -0.388 N 
HETATM   24  H8  UNL     1      24.656   4.472  48.906  1.00  0.00     0.159 HD
BRANCH  23  25
HETATM   25  C10 UNL     1      24.178   5.457  50.700  1.00  0.00     0.084 C 
HETATM   26  C11 UNL     1      23.866   6.691  49.874  1.00  0.00     0.055 C 
HETATM   27  C12 UNL     1      23.263   7.732  50.832  1.00  0.00     0.271 C 
HETATM   28  N3  UNL     1      21.917   7.350  51.207  1.00  0.00     0.083 N 
HETATM   29  C13 UNL     1      21.749   5.931  51.122  1.00  0.00     0.271 C 
HETATM   30  H14 UNL     1      21.194   7.888  50.680  1.00  0.00     0.315 HD
HETATM   31  C14 UNL     1      23.005   5.254  51.628  1.00  0.00     0.055 C 
ENDBRANCH  23  25
ENDBRANCH  10  23
TORSDOF 2
ENDMDL
MODEL 6
REMARK VINA RESULT:      -8.7      3.220      5.806
REMARK  2 active torsions:
REMARK  status: ('A' for Active; 'I' for Inactive)
REMARK    1  A    between atoms: C9_10  and  N2_11 
REMARK    2  A    between atoms: N2_11  and  C10_12 
ROOT
HETATM    1  C1  UNL     1      19.646   2.387  52.171  1.00  0.00    -0.005 C 
HETATM    2  C2  UNL     1      20.567   2.122  53.078  1.00  0.00     0.030 C 
HETATM    3  C3  UNL     1      21.155   0.817  53.347  1.00  0.00     0.062 A 
HETATM    4  N1  UNL     1      20.287  -0.047  53.885  1.00  0.00    -0.261 NA
HETATM    5  C4  UNL     1      20.712  -1.319  54.168  1.00  0.00     0.117 A 
HETATM    6  C5  UNL     1      22.023  -1.647  53.879  1.00  0.00     0.020 A 
HETATM    7  C6  UNL     1      22.920  -0.755  53.324  1.00  0.00     0.011 A 
HETATM    8  C7  UNL     1      22.500   0.530  53.038  1.00  0.00    -0.024 A 
HETATM    9  C8  UNL     1      23.262   1.699  52.468  1.00  0.00     0.097 C 
HETATM   10  C9  UNL     1      23.032   1.976  51.067  1.00  0.00     0.006 C 
HETATM   11  C15 UNL     1      22.540   1.810  49.824  1.00  0.00     0.002 C 
HETATM   12  C16 UNL     1      22.586   2.470  48.466  1.00  0.00     0.057 C 
HETATM   13  C17 UNL     1      21.236   2.799  48.023  1.00  0.00    -0.010 C 
HETATM   14  C18 UNL     1      19.915   2.943  47.855  1.00  0.00     0.004 A 
HETATM   15  C19 UNL     1      19.183   3.670  46.795  1.00  0.00     0.192 A 
HETATM   16  N4  UNL     1      17.796   3.591  46.979  1.00  0.00    -0.278 NA
HETATM   17  C20 UNL     1      17.136   3.001  47.859  1.00  0.00     0.229 A 
HETATM   18  N5  UNL     1      17.807   2.255  48.901  1.00  0.00    -0.225 NA
HETATM   19  C21 UNL     1      19.095   2.264  48.844  1.00  0.00     0.132 A 
HETATM   20  N6  UNL     1      19.401   1.442  49.941  1.00  0.00    -0.371 N 
HETATM   21  C22 UNL     1      19.127   1.313  51.338  1.00  0.00     0.148 C 
HETATM   22  H26 UNL     1      19.976   0.773  49.389  1.00  0.00     0.161 HD
ENDROOT
BRANCH  10  23
HETATM   23  N2  UNL     1      23.765   3.161  50.773  1.00  0.00    -0.388 N 
HETATM   24  H8  UNL     1      24.363   3.048  49.917  1.00  0.00     0.159 HD
BRANCH  23  25
HETATM   25  C10 UNL     1      23.850   4.438  51.408  1.00  0.00     0.084 C 
HETATM   26  C11 UNL     1      24.507   5.509  50.558  1.00  0.00     0.055 C 
HETATM   27  C12 UNL     1      24.219   6.860  51.236  1.00  0.00     0.271 C 
HETATM   28  N3  UNL     1      22.831   7.228  51.054  1.00  0.00     0.083 N 
HETATM   29  C13 UNL     1      22.015   6.065  50.873  1.00  0.00     0.271 C 
HETATM   30  H14 UNL     1      22.709   7.943  50.303  1.00  0.00     0.315 HD
HETATM   31  C14 UNL     1      22.496   4.976  51.806  1.00  0.00     0.055 C 
ENDBRANCH  23  25
ENDBRANCH  10  23
TORSDOF 2
ENDMDL
MODEL 7
REMARK VINA RESULT:      -8.6      2.081      5.911
REMARK  2 active torsions:
REMARK  status: ('A' for Active; 'I' for Inactive)
REMARK    1  A    between atoms: C9_10  and  N2_11 
REMARK    2  A    between atoms: N2_11  and  C10_12 
ROOT
HETATM    1  C1  UNL     1      22.266   1.349  50.011  1.00  0.00    -0.005 C 
HETATM    2  C2  UNL     1      21.483   2.146  49.309  1.00  0.00     0.030 C 
HETATM    3  C3  UNL     1      20.155   2.602  49.696  1.00  0.00     0.062 A 
HETATM    4  N1  UNL     1      19.248   1.619  49.710  1.00  0.00    -0.261 NA
HETATM    5  C4  UNL     1      17.961   1.914  50.078  1.00  0.00     0.117 A 
HETATM    6  C5  UNL     1      17.665   3.220  50.420  1.00  0.00     0.020 A 
HETATM    7  C6  UNL     1      18.601   4.235  50.405  1.00  0.00     0.011 A 
HETATM    8  C7  UNL     1      19.900   3.947  50.034  1.00  0.00    -0.024 A 
HETATM    9  C8  UNL     1      21.098   4.851  49.901  1.00  0.00     0.097 C 
HETATM   10  C9  UNL     1      22.054   4.792  50.986  1.00  0.00     0.006 C 
HETATM   11  C15 UNL     1      22.579   4.424  52.170  1.00  0.00     0.002 C 
HETATM   12  C16 UNL     1      23.810   4.664  53.012  1.00  0.00     0.057 C 
HETATM   13  C17 UNL     1      24.471   3.397  53.304  1.00  0.00    -0.010 C 
HETATM   14  C18 UNL     1      24.835   2.116  53.449  1.00  0.00     0.004 A 
HETATM   15  C19 UNL     1      26.069   1.558  54.042  1.00  0.00     0.192 A 
HETATM   16  N4  UNL     1      26.075   0.157  53.999  1.00  0.00    -0.278 NA
HETATM   17  C20 UNL     1      25.212  -0.635  53.569  1.00  0.00     0.229 A 
HETATM   18  N5  UNL     1      23.976  -0.136  53.004  1.00  0.00    -0.225 NA
HETATM   19  C21 UNL     1      23.860   1.147  52.979  1.00  0.00     0.132 A 
HETATM   20  N6  UNL     1      22.575   1.272  52.424  1.00  0.00    -0.371 N 
HETATM   21  C22 UNL     1      21.810   0.842  51.296  1.00  0.00     0.148 C 
HETATM   22  H26 UNL     1      22.201   1.850  53.204  1.00  0.00     0.161 HD
ENDROOT
BRANCH  10  23
HETATM   23  N2  UNL     1      23.134   5.640  50.608  1.00  0.00    -0.388 N 
HETATM   24  H8  UNL     1      23.180   6.502  51.205  1.00  0.00     0.159 HD
BRANCH  23  25
HETATM   25  C10 UNL     1      24.134   5.550  49.592  1.00  0.00     0.084 C 
HETATM   26  C11 UNL     1      25.361   6.401  49.856  1.00  0.00     0.055 C 
HETATM   27  C12 UNL     1      26.448   5.941  48.869  1.00  0.00     0.271 C 
HETATM   28  N3  UNL     1      26.966   4.647  49.259  1.00  0.00     0.083 N 
HETATM   29  C13 UNL     1      25.989   3.911  50.004  1.00  0.00     0.271 C 
HETATM   30  H14 UNL     1      27.889   4.721  49.741  1.00  0.00     0.315 HD
HETATM   31  C14 UNL     1      24.625   4.138  49.388  1.00  0.00     0.055 C 
ENDBRANCH  23  25
ENDBRANCH  10  23
TORSDOF 2
ENDMDL
MODEL 8
REMARK VINA RESULT:      -8.3      2.098      5.565
REMARK  2 active torsions:
REMARK  status: ('A' for Active; 'I' for Inactive)
REMARK    1  A    between atoms: C9_10  and  N2_11 
REMARK    2  A    between atoms: N2_11  and  C10_12 
ROOT
HETATM    1  C1  UNL     1      23.532   2.959  53.249  1.00  0.00    -0.005 C 
HETATM    2  C2  UNL     1      24.811   2.693  53.435  1.00  0.00     0.030 C 
HETATM    3  C3  UNL     1      25.505   1.481  53.021  1.00  0.00     0.062 A 
HETATM    4  N1  UNL     1      25.116   0.398  53.703  1.00  0.00    -0.261 NA
HETATM    5  C4  UNL     1      25.679  -0.814  53.395  1.00  0.00     0.117 A 
HETATM    6  C5  UNL     1      26.625  -0.854  52.387  1.00  0.00     0.020 A 
HETATM    7  C6  UNL     1      27.027   0.264  51.684  1.00  0.00     0.011 A 
HETATM    8  C7  UNL     1      26.465   1.489  51.990  1.00  0.00    -0.024 A 
HETATM    9  C8  UNL     1      26.735   2.855  51.414  1.00  0.00     0.097 C 
HETATM   10  C9  UNL     1      25.758   3.342  50.465  1.00  0.00     0.006 C 
HETATM   11  C15 UNL     1      24.668   3.325  49.673  1.00  0.00     0.002 C 
HETATM   12  C16 UNL     1      23.929   4.221  48.707  1.00  0.00     0.057 C 
HETATM   13  C17 UNL     1      22.546   4.390  49.140  1.00  0.00    -0.010 C 
HETATM   14  C18 UNL     1      21.348   4.335  49.736  1.00  0.00     0.004 A 
HETATM   15  C19 UNL     1      20.122   5.109  49.440  1.00  0.00     0.192 A 
HETATM   16  N4  UNL     1      19.073   4.761  50.301  1.00  0.00    -0.278 NA
HETATM   17  C20 UNL     1      19.034   3.917  51.219  1.00  0.00     0.229 A 
HETATM   18  N5  UNL     1      20.201   3.117  51.528  1.00  0.00    -0.225 NA
HETATM   19  C21 UNL     1      21.240   3.356  50.804  1.00  0.00     0.132 A 
HETATM   20  N6  UNL     1      22.136   2.411  51.332  1.00  0.00    -0.371 N 
HETATM   21  C22 UNL     1      22.685   1.983  52.580  1.00  0.00     0.148 C 
HETATM   22  H26 UNL     1      22.338   1.963  50.415  1.00  0.00     0.161 HD
ENDROOT
BRANCH  10  23
HETATM   23  N2  UNL     1      26.156   4.668  50.132  1.00  0.00    -0.388 N 
HETATM   24  H8  UNL     1      26.145   5.300  50.971  1.00  0.00     0.159 HD
BRANCH  23  25
HETATM   25  C10 UNL     1      26.547   5.291  48.908  1.00  0.00     0.084 C 
HETATM   26  C11 UNL     1      26.639   6.803  48.985  1.00  0.00     0.055 C 
HETATM   27  C12 UNL     1      27.377   7.273  47.720  1.00  0.00     0.271 C 
HETATM   28  N3  UNL     1      28.785   6.943  47.808  1.00  0.00     0.083 N 
HETATM   29  C13 UNL     1      28.990   5.811  48.660  1.00  0.00     0.271 C 
HETATM   30  H14 UNL     1      29.367   7.770  48.066  1.00  0.00     0.315 HD
HETATM   31  C14 UNL     1      27.888   4.803  48.414  1.00  0.00     0.055 C 
ENDBRANCH  23  25
ENDBRANCH  10  23
TORSDOF 2
ENDMDL
MODEL 9
REMARK VINA RESULT:      -8.0      5.374      9.429
REMARK  2 active torsions:
REMARK  status: ('A' for Active; 'I' for Inactive)
REMARK    1  A    between atoms: C9_10  and  N2_11 
REMARK    2  A    between atoms: N2_11  and  C10_12 
ROOT
HETATM    1  C1  UNL     1      28.137   7.010  47.102  1.00  0.00    -0.005 C 
HETATM    2  C2  UNL     1      27.101   7.826  47.129  1.00  0.00     0.030 C 
HETATM    3  C3  UNL     1      26.139   7.957  48.216  1.00  0.00     0.062 A 
HETATM    4  N1  UNL     1      25.369   6.874  48.365  1.00  0.00    -0.261 NA
HETATM    5  C4  UNL     1      24.435   6.862  49.369  1.00  0.00     0.117 A 
HETATM    6  C5  UNL     1      24.338   7.977  50.181  1.00  0.00     0.020 A 
HETATM    7  C6  UNL     1      25.133   9.095  50.027  1.00  0.00     0.011 A 
HETATM    8  C7  UNL     1      26.076   9.116  49.017  1.00  0.00    -0.024 A 
HETATM    9  C8  UNL     1      27.040  10.199  48.607  1.00  0.00     0.097 C 
HETATM   10  C9  UNL     1      28.410  10.016  49.035  1.00  0.00     0.006 C 
HETATM   11  C15 UNL     1      29.460   9.445  49.657  1.00  0.00     0.002 C 
HETATM   12  C16 UNL     1      30.944   9.653  49.842  1.00  0.00     0.057 C 
HETATM   13  C17 UNL     1      31.674   8.472  49.393  1.00  0.00    -0.010 C 
HETATM   14  C18 UNL     1      32.072   7.269  48.960  1.00  0.00     0.004 A 
HETATM   15  C19 UNL     1      33.442   6.777  48.699  1.00  0.00     0.192 A 
HETATM   16  N4  UNL     1      33.437   5.452  48.244  1.00  0.00    -0.278 NA
HETATM   17  C20 UNL     1      32.481   4.670  48.061  1.00  0.00     0.229 A 
HETATM   18  N5  UNL     1      31.125   5.098  48.328  1.00  0.00    -0.225 NA
HETATM   19  C21 UNL     1      31.000   6.311  48.745  1.00  0.00     0.132 A 
HETATM   20  N6  UNL     1      29.610   6.371  48.932  1.00  0.00    -0.371 N 
HETATM   21  C22 UNL     1      28.387   6.128  48.233  1.00  0.00     0.148 C 
HETATM   22  H26 UNL     1      29.669   6.667  49.928  1.00  0.00     0.161 HD
ENDROOT
BRANCH  10  23
HETATM   23  N2  UNL     1      29.150  11.089  48.461  1.00  0.00    -0.388 N 
HETATM   24  H8  UNL     1      29.707  11.609  49.184  1.00  0.00     0.159 HD
BRANCH  23  25
HETATM   25  C10 UNL     1      29.269  11.588  47.128  1.00  0.00     0.084 C 
HETATM   26  C11 UNL     1      29.549  13.077  47.048  1.00  0.00     0.055 C 
HETATM   27  C12 UNL     1      29.973  13.377  45.600  1.00  0.00     0.271 C 
HETATM   28  N3  UNL     1      31.306  12.869  45.352  1.00  0.00     0.083 N 
HETATM   29  C13 UNL     1      31.601  11.767  46.217  1.00  0.00     0.271 C 
HETATM   30  H14 UNL     1      32.026  13.625  45.379  1.00  0.00     0.315 HD
HETATM   31  C14 UNL     1      30.367  10.902  46.351  1.00  0.00     0.055 C 
ENDBRANCH  23  25
ENDBRANCH  10  23
TORSDOF 2
ENDMDL
