MODEL 1
REMARK VINA RESULT:      -7.4      0.000      0.000
REMARK  6 active torsions:
REMARK  status: ('A' for Active; 'I' for Inactive)
REMARK    1  A    between atoms: C2_3  and  C3_4 
REMARK    2  A    between atoms: C3_4  and  C4_5 
REMARK    3  A    between atoms: C4_5  and  N1_6 
REMARK       I    between atoms: N1_6  and  C5_7 
REMARK       I    between atoms: C5_7  and  N2_9 
REMARK    4  A    between atoms: N2_9  and  C6_10 
REMARK    5  A    between atoms: C11_17  and  N5_18 
REMARK    6  A    between atoms: N5_18  and  C12_19 
ROOT
HETATM    1  C1  UNL     1      23.834   6.189  51.633  1.00  0.00     0.018 C 
HETATM    2  S1  UNL     1      23.331   4.481  51.276  1.00  0.00    -0.024 SA
HETATM    3  C2  UNL     1      22.857   2.792  50.943  1.00  0.00    -0.094 C 
ENDROOT
BRANCH   3   4
HETATM    4  C3  UNL     1      22.472   1.432  50.651  1.00  0.00     0.151 C 
BRANCH   4   5
HETATM    5  C4  UNL     1      21.679   0.782  51.722  1.00  0.00     0.036 C 
HETATM    6  C8  UNL     1      21.902   0.102  52.853  1.00  0.00     0.031 A 
HETATM    7  C9  UNL     1      20.844  -0.427  53.753  1.00  0.00     0.194 A 
HETATM    8  C11 UNL     1      23.293  -0.159  53.176  1.00  0.00     0.138 A 
HETATM    9  N3  UNL     1      21.343  -1.053  54.909  1.00  0.00    -0.278 NA
HETATM   10  C10 UNL     1      22.546  -1.237  55.188  1.00  0.00     0.229 A 
HETATM   11  N4  UNL     1      23.528  -0.790  54.303  1.00  0.00    -0.224 NA
BRANCH   5  12
HETATM   12  N1  UNL     1      20.271   0.847  51.514  1.00  0.00    -0.311 N 
HETATM   13  C5  UNL     1      19.373   1.915  51.727  1.00  0.00     0.324 C 
HETATM   14  O1  UNL     1      19.750   3.020  52.164  1.00  0.00    -0.247 OA
HETATM   15  N2  UNL     1      17.985   1.951  51.510  1.00  0.00    -0.320 N 
HETATM   16  H5  UNL     1      17.544   1.060  51.135  1.00  0.00     0.169 HD
HETATM   17  H4  UNL     1      19.662   0.061  51.140  1.00  0.00     0.170 HD
BRANCH  15  18
HETATM   18  C6  UNL     1      17.176   3.083  51.759  1.00  0.00     0.082 C 
HETATM   19  C7  UNL     1      16.777   3.845  50.764  1.00  0.00     0.030 C 
ENDBRANCH  15  18
ENDBRANCH   5  12
BRANCH   8  20
HETATM   20  N5  UNL     1      24.430   0.131  52.371  1.00  0.00    -0.349 N 
HETATM   21  H12 UNL     1      24.417  -0.561  51.542  1.00  0.00     0.166 HD
BRANCH  20  22
HETATM   22  C12 UNL     1      25.324   1.188  52.777  1.00  0.00     0.101 C 
HETATM   23  C13 UNL     1      26.595   1.033  53.085  1.00  0.00    -0.020 A 
HETATM   24  C14 UNL     1      27.400   2.181  53.483  1.00  0.00     0.009 A 
HETATM   25  C18 UNL     1      27.285  -0.249  53.057  1.00  0.00     0.027 A 
HETATM   26  C15 UNL     1      28.678   2.047  53.796  1.00  0.00    -0.021 A 
HETATM   27  C16 UNL     1      29.373   0.760  53.768  1.00  0.00     0.073 A 
HETATM   28  C17 UNL     1      28.564  -0.390  53.368  1.00  0.00    -0.007 A 
HETATM   29 BR1  UNL     1      29.437  -2.084  53.320  1.00  0.00    -0.055 Br
ENDBRANCH  20  22
ENDBRANCH   8  20
ENDBRANCH   4   5
ENDBRANCH   3   4
TORSDOF 6
ENDMDL
MODEL 2
REMARK VINA RESULT:      -7.4      3.878      7.270
REMARK  6 active torsions:
REMARK  status: ('A' for Active; 'I' for Inactive)
REMARK    1  A    between atoms: C2_3  and  C3_4 
REMARK    2  A    between atoms: C3_4  and  C4_5 
REMARK    3  A    between atoms: C4_5  and  N1_6 
REMARK       I    between atoms: N1_6  and  C5_7 
REMARK       I    between atoms: C5_7  and  N2_9 
REMARK    4  A    between atoms: N2_9  and  C6_10 
REMARK    5  A    between atoms: C11_17  and  N5_18 
REMARK    6  A    between atoms: N5_18  and  C12_19 
ROOT
HETATM    1  C1  UNL     1      20.511   3.345  47.247  1.00  0.00     0.018 C 
HETATM    2  S1  UNL     1      21.213   3.444  48.919  1.00  0.00    -0.024 SA
HETATM    3  C2  UNL     1      21.876   3.536  50.574  1.00  0.00    -0.094 C 
ENDROOT
BRANCH   3   4
HETATM    4  C3  UNL     1      22.425   3.630  51.906  1.00  0.00     0.151 C 
BRANCH   4   5
HETATM    5  C4  UNL     1      23.706   2.906  52.085  1.00  0.00     0.036 C 
HETATM    6  C8  UNL     1      24.123   1.711  52.523  1.00  0.00     0.031 A 
HETATM    7  C9  UNL     1      25.539   1.264  52.564  1.00  0.00     0.194 A 
HETATM    8  C11 UNL     1      23.091   0.823  53.028  1.00  0.00     0.138 A 
HETATM    9  N3  UNL     1      25.704  -0.059  53.010  1.00  0.00    -0.278 NA
HETATM   10  C10 UNL     1      24.799  -0.823  53.408  1.00  0.00     0.229 A 
HETATM   11  N4  UNL     1      23.480  -0.367  53.422  1.00  0.00    -0.224 NA
BRANCH   5  12
HETATM   12  N1  UNL     1      24.854   3.674  51.735  1.00  0.00    -0.311 N 
HETATM   13  C5  UNL     1      25.496   3.824  50.487  1.00  0.00     0.324 C 
HETATM   14  O1  UNL     1      25.092   3.244  49.461  1.00  0.00    -0.247 OA
HETATM   15  N2  UNL     1      26.629   4.593  50.170  1.00  0.00    -0.320 N 
HETATM   16  H5  UNL     1      27.067   5.138  50.970  1.00  0.00     0.169 HD
HETATM   17  H4  UNL     1      25.418   4.284  52.397  1.00  0.00     0.170 HD
BRANCH  15  18
HETATM   18  C6  UNL     1      27.193   4.672  48.876  1.00  0.00     0.082 C 
HETATM   19  C7  UNL     1      27.569   5.834  48.387  1.00  0.00     0.030 C 
ENDBRANCH  15  18
ENDBRANCH   5  12
BRANCH   8  20
HETATM   20  N5  UNL     1      21.712   1.124  53.209  1.00  0.00    -0.349 N 
HETATM   21  H12 UNL     1      21.584   2.173  52.986  1.00  0.00     0.166 HD
BRANCH  20  22
HETATM   22  C12 UNL     1      20.817   0.076  53.636  1.00  0.00     0.101 C 
HETATM   23  C13 UNL     1      19.666  -0.218  53.069  1.00  0.00    -0.020 A 
HETATM   24  C14 UNL     1      18.845  -1.304  53.593  1.00  0.00     0.009 A 
HETATM   25  C18 UNL     1      19.129   0.483  51.912  1.00  0.00     0.027 A 
HETATM   26  C15 UNL     1      17.686  -1.616  53.037  1.00  0.00    -0.021 A 
HETATM   27  C16 UNL     1      17.145  -0.911  51.875  1.00  0.00     0.073 A 
HETATM   28  C17 UNL     1      17.970   0.176  51.351  1.00  0.00    -0.007 A 
HETATM   29 BR1  UNL     1      17.297   1.117  49.836  1.00  0.00    -0.055 Br
ENDBRANCH  20  22
ENDBRANCH   8  20
ENDBRANCH   4   5
ENDBRANCH   3   4
TORSDOF 6
ENDMDL
MODEL 3
REMARK VINA RESULT:      -7.2      4.201      7.490
REMARK  6 active torsions:
REMARK  status: ('A' for Active; 'I' for Inactive)
REMARK    1  A    between atoms: C2_3  and  C3_4 
REMARK    2  A    between atoms: C3_4  and  C4_5 
REMARK    3  A    between atoms: C4_5  and  N1_6 
REMARK       I    between atoms: N1_6  and  C5_7 
REMARK       I    between atoms: C5_7  and  N2_9 
REMARK    4  A    between atoms: N2_9  and  C6_10 
REMARK    5  A    between atoms: C11_17  and  N5_18 
REMARK    6  A    between atoms: N5_18  and  C12_19 
ROOT
HETATM    1  C1  UNL     1      28.028   1.001  54.468  1.00  0.00     0.018 C 
HETATM    2  S1  UNL     1      27.340   1.658  52.922  1.00  0.00    -0.024 SA
HETATM    3  C2  UNL     1      26.691   2.308  51.390  1.00  0.00    -0.094 C 
ENDROOT
BRANCH   3   4
HETATM    4  C3  UNL     1      26.149   2.846  50.165  1.00  0.00     0.151 C 
BRANCH   4   5
HETATM    5  C4  UNL     1      25.554   4.197  50.307  1.00  0.00     0.036 C 
HETATM    6  C8  UNL     1      24.369   4.736  50.619  1.00  0.00     0.031 A 
HETATM    7  C9  UNL     1      24.087   6.192  50.692  1.00  0.00     0.194 A 
HETATM    8  C11 UNL     1      23.287   3.798  50.860  1.00  0.00     0.138 A 
HETATM    9  N3  UNL     1      22.777   6.498  51.102  1.00  0.00    -0.278 NA
HETATM   10  C10 UNL     1      21.868   5.676  51.340  1.00  0.00     0.229 A 
HETATM   11  N4  UNL     1      22.130   4.312  51.207  1.00  0.00    -0.224 NA
BRANCH   5  12
HETATM   12  N1  UNL     1      26.456   5.256  50.000  1.00  0.00    -0.311 N 
HETATM   13  C5  UNL     1      27.544   5.286  49.101  1.00  0.00     0.324 C 
HETATM   14  O1  UNL     1      27.864   4.295  48.416  1.00  0.00    -0.247 OA
HETATM   15  N2  UNL     1      28.418   6.349  48.816  1.00  0.00    -0.320 N 
HETATM   16  H5  UNL     1      28.244   7.256  49.342  1.00  0.00     0.169 HD
HETATM   17  H4  UNL     1      26.435   6.231  50.420  1.00  0.00     0.170 HD
BRANCH  15  18
HETATM   18  C6  UNL     1      29.482   6.269  47.890  1.00  0.00     0.082 C 
HETATM   19  C7  UNL     1      30.726   6.396  48.298  1.00  0.00     0.030 C 
ENDBRANCH  15  18
ENDBRANCH   5  12
BRANCH   8  20
HETATM   20  N5  UNL     1      23.322   2.385  50.693  1.00  0.00    -0.349 N 
HETATM   21  H12 UNL     1      24.267   2.143  50.232  1.00  0.00     0.166 HD
BRANCH  20  22
HETATM   22  C12 UNL     1      22.185   1.602  51.115  1.00  0.00     0.101 C 
HETATM   23  C13 UNL     1      22.189   0.724  52.095  1.00  0.00    -0.020 A 
HETATM   24  C14 UNL     1      20.974  -0.009  52.429  1.00  0.00     0.009 A 
HETATM   25  C18 UNL     1      23.359   0.417  52.904  1.00  0.00     0.027 A 
HETATM   26  C15 UNL     1      20.956  -0.895  53.411  1.00  0.00    -0.021 A 
HETATM   27  C16 UNL     1      22.131  -1.205  54.224  1.00  0.00     0.073 A 
HETATM   28  C17 UNL     1      23.349  -0.468  53.888  1.00  0.00    -0.007 A 
HETATM   29 BR1  UNL     1      24.901  -0.846  54.929  1.00  0.00    -0.055 Br
ENDBRANCH  20  22
ENDBRANCH   8  20
ENDBRANCH   4   5
ENDBRANCH   3   4
TORSDOF 6
ENDMDL
MODEL 4
REMARK VINA RESULT:      -7.1      3.957      6.144
REMARK  6 active torsions:
REMARK  status: ('A' for Active; 'I' for Inactive)
REMARK    1  A    between atoms: C2_3  and  C3_4 
REMARK    2  A    between atoms: C3_4  and  C4_5 
REMARK    3  A    between atoms: C4_5  and  N1_6 
REMARK       I    between atoms: N1_6  and  C5_7 
REMARK       I    between atoms: C5_7  and  N2_9 
REMARK    4  A    between atoms: N2_9  and  C6_10 
REMARK    5  A    between atoms: C11_17  and  N5_18 
REMARK    6  A    between atoms: N5_18  and  C12_19 
ROOT
HETATM    1  C1  UNL     1      18.045   3.420  51.492  1.00  0.00     0.018 C 
HETATM    2  S1  UNL     1      19.847   3.375  51.268  1.00  0.00    -0.024 SA
HETATM    3  C2  UNL     1      21.615   3.326  51.018  1.00  0.00    -0.094 C 
ENDROOT
BRANCH   3   4
HETATM    4  C3  UNL     1      23.046   3.273  50.837  1.00  0.00     0.151 C 
BRANCH   4   5
HETATM    5  C4  UNL     1      23.776   2.640  51.961  1.00  0.00     0.036 C 
HETATM    6  C8  UNL     1      25.043   2.384  52.307  1.00  0.00     0.031 A 
HETATM    7  C9  UNL     1      25.466   1.717  53.566  1.00  0.00     0.194 A 
HETATM    8  C11 UNL     1      26.057   2.762  51.340  1.00  0.00     0.138 A 
HETATM    9  N3  UNL     1      26.860   1.621  53.718  1.00  0.00    -0.278 NA
HETATM   10  C10 UNL     1      27.720   1.985  52.889  1.00  0.00     0.229 A 
HETATM   11  N4  UNL     1      27.306   2.554  51.683  1.00  0.00    -0.224 NA
BRANCH   5  12
HETATM   12  N1  UNL     1      22.924   2.107  52.971  1.00  0.00    -0.311 N 
HETATM   13  C5  UNL     1      22.240   0.873  53.019  1.00  0.00     0.324 C 
HETATM   14  O1  UNL     1      22.313   0.040  52.095  1.00  0.00    -0.247 OA
HETATM   15  N2  UNL     1      21.405   0.371  54.032  1.00  0.00    -0.320 N 
HETATM   16  H5  UNL     1      21.265   0.997  54.880  1.00  0.00     0.169 HD
HETATM   17  H4  UNL     1      22.673   2.583  53.887  1.00  0.00     0.170 HD
BRANCH  15  18
HETATM   18  C6  UNL     1      20.766  -0.888  53.977  1.00  0.00     0.082 C 
HETATM   19  C7  UNL     1      21.323  -1.940  54.536  1.00  0.00     0.030 C 
ENDBRANCH  15  18
ENDBRANCH   5  12
BRANCH   8  20
HETATM   20  N5  UNL     1      25.844   3.270  50.027  1.00  0.00    -0.349 N 
HETATM   21  H12 UNL     1      24.834   3.011  49.747  1.00  0.00     0.166 HD
BRANCH  20  22
HETATM   22  C12 UNL     1      26.921   3.960  49.360  1.00  0.00     0.101 C 
HETATM   23  C13 UNL     1      26.858   5.183  48.879  1.00  0.00    -0.020 A 
HETATM   24  C14 UNL     1      28.017   5.776  48.222  1.00  0.00     0.009 A 
HETATM   25  C18 UNL     1      25.672   6.025  48.958  1.00  0.00     0.027 A 
HETATM   26  C15 UNL     1      27.974   7.004  47.733  1.00  0.00    -0.021 A 
HETATM   27  C16 UNL     1      26.783   7.850  47.811  1.00  0.00     0.073 A 
HETATM   28  C17 UNL     1      25.623   7.255  48.470  1.00  0.00    -0.007 A 
HETATM   29 BR1  UNL     1      24.053   8.330  48.590  1.00  0.00    -0.055 Br
ENDBRANCH  20  22
ENDBRANCH   8  20
ENDBRANCH   4   5
ENDBRANCH   3   4
TORSDOF 6
ENDMDL
MODEL 5
REMARK VINA RESULT:      -6.9      4.204      6.256
REMARK  6 active torsions:
REMARK  status: ('A' for Active; 'I' for Inactive)
REMARK    1  A    between atoms: C2_3  and  C3_4 
REMARK    2  A    between atoms: C3_4  and  C4_5 
REMARK    3  A    between atoms: C4_5  and  N1_6 
REMARK       I    between atoms: N1_6  and  C5_7 
REMARK       I    between atoms: C5_7  and  N2_9 
REMARK    4  A    between atoms: N2_9  and  C6_10 
REMARK    5  A    between atoms: C11_17  and  N5_18 
REMARK    6  A    between atoms: N5_18  and  C12_19 
ROOT
HETATM    1  C1  UNL     1      27.766   0.012  54.444  1.00  0.00     0.018 C 
HETATM    2  S1  UNL     1      26.458   1.169  53.946  1.00  0.00    -0.024 SA
HETATM    3  C2  UNL     1      25.151   2.287  53.465  1.00  0.00    -0.094 C 
ENDROOT
BRANCH   3   4
HETATM    4  C3  UNL     1      24.108   3.196  53.055  1.00  0.00     0.151 C 
BRANCH   4   5
HETATM    5  C4  UNL     1      23.125   2.608  52.114  1.00  0.00     0.036 C 
HETATM    6  C8  UNL     1      22.937   2.530  50.791  1.00  0.00     0.031 A 
HETATM    7  C9  UNL     1      21.810   1.823  50.130  1.00  0.00     0.194 A 
HETATM    8  C11 UNL     1      23.904   3.233  49.967  1.00  0.00     0.138 A 
HETATM    9  N3  UNL     1      21.876   1.837  48.726  1.00  0.00    -0.278 NA
HETATM   10  C10 UNL     1      22.736   2.418  48.032  1.00  0.00     0.229 A 
HETATM   11  N4  UNL     1      23.755   3.130  48.667  1.00  0.00    -0.224 NA
BRANCH   5  12
HETATM   12  N1  UNL     1      22.032   1.959  52.756  1.00  0.00    -0.311 N 
HETATM   13  C5  UNL     1      21.906   0.624  53.199  1.00  0.00     0.324 C 
HETATM   14  O1  UNL     1      22.823  -0.208  53.061  1.00  0.00    -0.247 OA
HETATM   15  N2  UNL     1      20.812   0.010  53.834  1.00  0.00    -0.320 N 
HETATM   16  H5  UNL     1      19.963   0.625  54.009  1.00  0.00     0.169 HD
HETATM   17  H4  UNL     1      21.107   2.411  53.016  1.00  0.00     0.170 HD
BRANCH  15  18
HETATM   18  C6  UNL     1      20.793  -1.344  54.238  1.00  0.00     0.082 C 
HETATM   19  C7  UNL     1      19.730  -2.086  54.018  1.00  0.00     0.030 C 
ENDBRANCH  15  18
ENDBRANCH   5  12
BRANCH   8  20
HETATM   20  N5  UNL     1      24.955   4.082  50.413  1.00  0.00    -0.349 N 
HETATM   21  H12 UNL     1      24.580   4.633  51.262  1.00  0.00     0.166 HD
BRANCH  20  22
HETATM   22  C12 UNL     1      26.213   4.069  49.706  1.00  0.00     0.101 C 
HETATM   23  C13 UNL     1      26.801   5.122  49.180  1.00  0.00    -0.020 A 
HETATM   24  C14 UNL     1      28.076   4.983  48.486  1.00  0.00     0.009 A 
HETATM   25  C18 UNL     1      26.254   6.470  49.240  1.00  0.00     0.027 A 
HETATM   26  C15 UNL     1      28.682   6.030  47.951  1.00  0.00    -0.021 A 
HETATM   27  C16 UNL     1      28.134   7.384  48.010  1.00  0.00     0.073 A 
HETATM   28  C17 UNL     1      26.855   7.522  48.706  1.00  0.00    -0.007 A 
HETATM   29 BR1  UNL     1      26.110   9.274  48.804  1.00  0.00    -0.055 Br
ENDBRANCH  20  22
ENDBRANCH   8  20
ENDBRANCH   4   5
ENDBRANCH   3   4
TORSDOF 6
ENDMDL
MODEL 6
REMARK VINA RESULT:      -6.8      7.538      9.851
REMARK  6 active torsions:
REMARK  status: ('A' for Active; 'I' for Inactive)
REMARK    1  A    between atoms: C2_3  and  C3_4 
REMARK    2  A    between atoms: C3_4  and  C4_5 
REMARK    3  A    between atoms: C4_5  and  N1_6 
REMARK       I    between atoms: N1_6  and  C5_7 
REMARK       I    between atoms: C5_7  and  N2_9 
REMARK    4  A    between atoms: N2_9  and  C6_10 
REMARK    5  A    between atoms: C11_17  and  N5_18 
REMARK    6  A    between atoms: N5_18  and  C12_19 
ROOT
HETATM    1  C1  UNL     1      24.701   3.003  50.396  1.00  0.00     0.018 C 
HETATM    2  S1  UNL     1      26.056   3.942  49.634  1.00  0.00    -0.024 SA
HETATM    3  C2  UNL     1      27.375   4.862  48.857  1.00  0.00    -0.094 C 
ENDROOT
BRANCH   3   4
HETATM    4  C3  UNL     1      28.457   5.594  48.244  1.00  0.00     0.151 C 
BRANCH   4   5
HETATM    5  C4  UNL     1      28.230   7.057  48.163  1.00  0.00     0.036 C 
HETATM    6  C8  UNL     1      28.919   8.185  48.372  1.00  0.00     0.031 A 
HETATM    7  C9  UNL     1      28.386   9.559  48.179  1.00  0.00     0.194 A 
HETATM    8  C11 UNL     1      30.275   8.021  48.864  1.00  0.00     0.138 A 
HETATM    9  N3  UNL     1      29.333  10.573  48.408  1.00  0.00    -0.278 NA
HETATM   10  C10 UNL     1      30.508  10.411  48.797  1.00  0.00     0.229 A 
HETATM   11  N4  UNL     1      30.976   9.118  49.035  1.00  0.00    -0.224 NA
BRANCH   5  12
HETATM   12  N1  UNL     1      26.901   7.411  47.792  1.00  0.00    -0.311 N 
HETATM   13  C5  UNL     1      25.775   7.675  48.603  1.00  0.00     0.324 C 
HETATM   14  O1  UNL     1      25.828   7.618  49.847  1.00  0.00    -0.247 OA
HETATM   15  N2  UNL     1      24.473   8.026  48.208  1.00  0.00    -0.320 N 
HETATM   16  H5  UNL     1      24.303   8.106  47.162  1.00  0.00     0.169 HD
HETATM   17  H4  UNL     1      26.547   7.543  46.799  1.00  0.00     0.170 HD
BRANCH  15  18
HETATM   18  C6  UNL     1      23.413   8.269  49.111  1.00  0.00     0.082 C 
HETATM   19  C7  UNL     1      22.509   9.185  48.840  1.00  0.00     0.030 C 
ENDBRANCH  15  18
ENDBRANCH   5  12
BRANCH   8  20
HETATM   20  N5  UNL     1      30.907   6.807  49.251  1.00  0.00    -0.349 N 
HETATM   21  H12 UNL     1      30.124   6.113  49.519  1.00  0.00     0.166 HD
BRANCH  20  22
HETATM   22  C12 UNL     1      32.348   6.730  49.234  1.00  0.00     0.101 C 
HETATM   23  C13 UNL     1      33.051   5.734  48.739  1.00  0.00    -0.020 A 
HETATM   24  C14 UNL     1      34.508   5.771  48.781  1.00  0.00     0.009 A 
HETATM   25  C18 UNL     1      32.462   4.550  48.129  1.00  0.00     0.027 A 
HETATM   26  C15 UNL     1      35.232   4.779  48.288  1.00  0.00    -0.021 A 
HETATM   27  C16 UNL     1      34.642   3.590  47.675  1.00  0.00     0.073 A 
HETATM   28  C17 UNL     1      33.181   3.555  47.635  1.00  0.00    -0.007 A 
HETATM   29 BR1  UNL     1      32.376   2.019  46.842  1.00  0.00    -0.055 Br
ENDBRANCH  20  22
ENDBRANCH   8  20
ENDBRANCH   4   5
ENDBRANCH   3   4
TORSDOF 6
ENDMDL
MODEL 7
REMARK VINA RESULT:      -6.7      3.986      5.638
REMARK  6 active torsions:
REMARK  status: ('A' for Active; 'I' for Inactive)
REMARK    1  A    between atoms: C2_3  and  C3_4 
REMARK    2  A    between atoms: C3_4  and  C4_5 
REMARK    3  A    between atoms: C4_5  and  N1_6 
REMARK       I    between atoms: N1_6  and  C5_7 
REMARK       I    between atoms: C5_7  and  N2_9 
REMARK    4  A    between atoms: N2_9  and  C6_10 
REMARK    5  A    between atoms: C11_17  and  N5_18 
REMARK    6  A    between atoms: N5_18  and  C12_19 
ROOT
HETATM    1  C1  UNL     1      20.426   7.164  49.788  1.00  0.00     0.018 C 
HETATM    2  S1  UNL     1      21.571   5.754  49.788  1.00  0.00    -0.024 SA
HETATM    3  C2  UNL     1      22.674   4.350  49.801  1.00  0.00    -0.094 C 
ENDROOT
BRANCH   3   4
HETATM    4  C3  UNL     1      23.585   3.230  49.818  1.00  0.00     0.151 C 
BRANCH   4   5
HETATM    5  C4  UNL     1      23.997   2.804  51.177  1.00  0.00     0.036 C 
HETATM    6  C8  UNL     1      25.133   2.607  51.857  1.00  0.00     0.031 A 
HETATM    7  C9  UNL     1      25.213   2.173  53.276  1.00  0.00     0.194 A 
HETATM    8  C11 UNL     1      26.364   2.800  51.112  1.00  0.00     0.138 A 
HETATM    9  N3  UNL     1      26.525   2.098  53.774  1.00  0.00    -0.278 NA
HETATM   10  C10 UNL     1      27.574   2.304  53.127  1.00  0.00     0.229 A 
HETATM   11  N4  UNL     1      27.485   2.650  51.778  1.00  0.00    -0.224 NA
BRANCH   5  12
HETATM   12  N1  UNL     1      22.906   2.465  52.027  1.00  0.00    -0.311 N 
HETATM   13  C5  UNL     1      22.309   1.210  52.275  1.00  0.00     0.324 C 
HETATM   14  O1  UNL     1      22.708   0.167  51.723  1.00  0.00    -0.247 OA
HETATM   15  N2  UNL     1      21.231   0.903  53.124  1.00  0.00    -0.320 N 
HETATM   16  H5  UNL     1      20.802   1.719  53.654  1.00  0.00     0.169 HD
HETATM   17  H4  UNL     1      22.359   3.142  52.636  1.00  0.00     0.170 HD
BRANCH  15  18
HETATM   18  C6  UNL     1      20.709  -0.398  53.299  1.00  0.00     0.082 C 
HETATM   19  C7  UNL     1      21.076  -1.126  54.331  1.00  0.00     0.030 C 
ENDBRANCH  15  18
ENDBRANCH   5  12
BRANCH   8  20
HETATM   20  N5  UNL     1      26.492   3.066  49.720  1.00  0.00    -0.349 N 
HETATM   21  H12 UNL     1      26.789   2.143  49.247  1.00  0.00     0.166 HD
BRANCH  20  22
HETATM   22  C12 UNL     1      26.242   4.403  49.237  1.00  0.00     0.101 C 
HETATM   23  C13 UNL     1      27.145   5.201  48.707  1.00  0.00    -0.020 A 
HETATM   24  C14 UNL     1      26.771   6.535  48.253  1.00  0.00     0.009 A 
HETATM   25  C18 UNL     1      28.545   4.839  48.532  1.00  0.00     0.027 A 
HETATM   26  C15 UNL     1      27.663   7.352  47.718  1.00  0.00    -0.021 A 
HETATM   27  C16 UNL     1      29.069   6.989  47.542  1.00  0.00     0.073 A 
HETATM   28  C17 UNL     1      29.442   5.651  47.997  1.00  0.00    -0.007 A 
HETATM   29 BR1  UNL     1      31.268   5.144  47.783  1.00  0.00    -0.055 Br
ENDBRANCH  20  22
ENDBRANCH   8  20
ENDBRANCH   4   5
ENDBRANCH   3   4
TORSDOF 6
ENDMDL
MODEL 8
REMARK VINA RESULT:      -6.6      5.390      8.402
REMARK  6 active torsions:
REMARK  status: ('A' for Active; 'I' for Inactive)
REMARK    1  A    between atoms: C2_3  and  C3_4 
REMARK    2  A    between atoms: C3_4  and  C4_5 
REMARK    3  A    between atoms: C4_5  and  N1_6 
REMARK       I    between atoms: N1_6  and  C5_7 
REMARK       I    between atoms: C5_7  and  N2_9 
REMARK    4  A    between atoms: N2_9  and  C6_10 
REMARK    5  A    between atoms: C11_17  and  N5_18 
REMARK    6  A    between atoms: N5_18  and  C12_19 
ROOT
HETATM    1  C1  UNL     1      31.547   5.755  47.746  1.00  0.00     0.018 C 
HETATM    2  S1  UNL     1      29.804   5.485  48.179  1.00  0.00    -0.024 SA
HETATM    3  C2  UNL     1      28.090   5.194  48.587  1.00  0.00    -0.094 C 
ENDROOT
BRANCH   3   4
HETATM    4  C3  UNL     1      26.700   4.983  48.914  1.00  0.00     0.151 C 
BRANCH   4   5
HETATM    5  C4  UNL     1      26.025   6.173  49.486  1.00  0.00     0.036 C 
HETATM    6  C8  UNL     1      24.788   6.544  49.838  1.00  0.00     0.031 A 
HETATM    7  C9  UNL     1      24.426   7.860  50.423  1.00  0.00     0.194 A 
HETATM    8  C11 UNL     1      23.736   5.578  49.577  1.00  0.00     0.138 A 
HETATM    9  N3  UNL     1      23.066   7.977  50.762  1.00  0.00    -0.278 NA
HETATM   10  C10 UNL     1      22.180   7.120  50.563  1.00  0.00     0.229 A 
HETATM   11  N4  UNL     1      22.524   5.912  49.955  1.00  0.00    -0.224 NA
BRANCH   5  12
HETATM   12  N1  UNL     1      26.899   7.275  49.711  1.00  0.00    -0.311 N 
HETATM   13  C5  UNL     1      27.276   8.323  48.843  1.00  0.00     0.324 C 
HETATM   14  O1  UNL     1      26.847   8.402  47.676  1.00  0.00    -0.247 OA
HETATM   15  N2  UNL     1      28.141   9.402  49.093  1.00  0.00    -0.320 N 
HETATM   16  H5  UNL     1      28.574   9.444  50.063  1.00  0.00     0.169 HD
HETATM   17  H4  UNL     1      27.416   7.485  50.616  1.00  0.00     0.170 HD
BRANCH  15  18
HETATM   18  C6  UNL     1      28.451  10.402  48.144  1.00  0.00     0.082 C 
HETATM   19  C7  UNL     1      28.372  11.674  48.471  1.00  0.00     0.030 C 
ENDBRANCH  15  18
ENDBRANCH   5  12
BRANCH   8  20
HETATM   20  N5  UNL     1      23.860   4.336  48.893  1.00  0.00    -0.349 N 
HETATM   21  H12 UNL     1      24.647   4.454  48.163  1.00  0.00     0.166 HD
BRANCH  20  22
HETATM   22  C12 UNL     1      22.983   3.248  49.252  1.00  0.00     0.101 C 
HETATM   23  C13 UNL     1      23.136   2.461  50.296  1.00  0.00    -0.020 A 
HETATM   24  C14 UNL     1      22.180   1.391  50.555  1.00  0.00     0.009 A 
HETATM   25  C18 UNL     1      24.229   2.583  51.250  1.00  0.00     0.027 A 
HETATM   26  C15 UNL     1      22.315   0.589  51.598  1.00  0.00    -0.021 A 
HETATM   27  C16 UNL     1      23.413   0.710  52.558  1.00  0.00     0.073 A 
HETATM   28  C17 UNL     1      24.370   1.784  52.296  1.00  0.00    -0.007 A 
HETATM   29 BR1  UNL     1      25.814   1.972  53.527  1.00  0.00    -0.055 Br
ENDBRANCH  20  22
ENDBRANCH   8  20
ENDBRANCH   4   5
ENDBRANCH   3   4
TORSDOF 6
ENDMDL
MODEL 9
REMARK VINA RESULT:      -6.6      4.179      7.769
REMARK  6 active torsions:
REMARK  status: ('A' for Active; 'I' for Inactive)
REMARK    1  A    between atoms: C2_3  and  C3_4 
REMARK    2  A    between atoms: C3_4  and  C4_5 
REMARK    3  A    between atoms: C4_5  and  N1_6 
REMARK       I    between atoms: N1_6  and  C5_7 
REMARK       I    between atoms: C5_7  and  N2_9 
REMARK    4  A    between atoms: N2_9  and  C6_10 
REMARK    5  A    between atoms: C11_17  and  N5_18 
REMARK    6  A    between atoms: N5_18  and  C12_19 
ROOT
HETATM    1  C1  UNL     1      24.918   8.445  50.405  1.00  0.00     0.018 C 
HETATM    2  S1  UNL     1      25.082   6.642  50.259  1.00  0.00    -0.024 SA
HETATM    3  C2  UNL     1      25.215   4.867  50.122  1.00  0.00    -0.094 C 
ENDROOT
BRANCH   3   4
HETATM    4  C3  UNL     1      25.343   3.432  50.023  1.00  0.00     0.151 C 
BRANCH   4   5
HETATM    5  C4  UNL     1      24.842   2.696  51.208  1.00  0.00     0.036 C 
HETATM    6  C8  UNL     1      23.800   1.921  51.532  1.00  0.00     0.031 A 
HETATM    7  C9  UNL     1      23.583   1.294  52.862  1.00  0.00     0.194 A 
HETATM    8  C11 UNL     1      22.800   1.732  50.496  1.00  0.00     0.138 A 
HETATM    9  N3  UNL     1      22.441   0.476  52.925  1.00  0.00    -0.278 NA
HETATM   10  C10 UNL     1      21.610   0.297  52.010  1.00  0.00     0.229 A 
HETATM   11  N4  UNL     1      21.793   0.942  50.786  1.00  0.00    -0.224 NA
BRANCH   5  12
HETATM   12  N1  UNL     1      25.653   2.856  52.368  1.00  0.00    -0.311 N 
HETATM   13  C5  UNL     1      26.917   2.304  52.672  1.00  0.00     0.324 C 
HETATM   14  O1  UNL     1      27.514   1.546  51.884  1.00  0.00    -0.247 OA
HETATM   15  N2  UNL     1      27.697   2.482  53.828  1.00  0.00    -0.320 N 
HETATM   16  H5  UNL     1      27.289   3.114  54.579  1.00  0.00     0.169 HD
HETATM   17  H4  UNL     1      25.415   3.450  53.216  1.00  0.00     0.170 HD
BRANCH  15  18
HETATM   18  C6  UNL     1      28.958   1.878  54.029  1.00  0.00     0.082 C 
HETATM   19  C7  UNL     1      29.043   0.687  54.582  1.00  0.00     0.030 C 
ENDBRANCH  15  18
ENDBRANCH   5  12
BRANCH   8  20
HETATM   20  N5  UNL     1      22.754   2.366  49.223  1.00  0.00    -0.349 N 
HETATM   21  H12 UNL     1      23.767   2.411  48.853  1.00  0.00     0.166 HD
BRANCH  20  22
HETATM   22  C12 UNL     1      21.481   2.809  48.707  1.00  0.00     0.101 C 
HETATM   23  C13 UNL     1      21.271   3.943  48.073  1.00  0.00    -0.020 A 
HETATM   24  C14 UNL     1      19.935   4.282  47.597  1.00  0.00     0.009 A 
HETATM   25  C18 UNL     1      22.311   4.923  47.799  1.00  0.00     0.027 A 
HETATM   26  C15 UNL     1      19.703   5.417  46.958  1.00  0.00    -0.021 A 
HETATM   27  C16 UNL     1      20.747   6.403  46.682  1.00  0.00     0.073 A 
HETATM   28  C17 UNL     1      22.086   6.061  47.160  1.00  0.00    -0.007 A 
HETATM   29 BR1  UNL     1      23.473   7.323  46.817  1.00  0.00    -0.055 Br
ENDBRANCH  20  22
ENDBRANCH   8  20
ENDBRANCH   4   5
ENDBRANCH   3   4
TORSDOF 6
ENDMDL
