MODEL 1
REMARK VINA RESULT:      -8.2      0.000      0.000
REMARK  5 active torsions:
REMARK  status: ('A' for Active; 'I' for Inactive)
REMARK    1  A    between atoms: C2_2  and  C3_3 
REMARK       I    between atoms: C3_3  and  N1_5 
REMARK    2  A    between atoms: N1_5  and  C4_6 
REMARK    3  A    between atoms: C9_11  and  O2_12 
REMARK    4  A    between atoms: C17_21  and  N3_22 
REMARK    5  A    between atoms: C18_23  and  N4_24 
ROOT
HETATM    1  C4  UNL     1      26.173   0.493  52.699  1.00  0.00     0.069 A 
HETATM    2  C5  UNL     1      25.963   1.494  51.807  1.00  0.00     0.048 A 
HETATM    3  C6  UNL     1      24.662   1.937  51.650  1.00  0.00     0.023 A 
HETATM    4  C7  UNL     1      23.645   1.336  52.413  1.00  0.00    -0.012 A 
HETATM    5  C8  UNL     1      23.875   0.316  53.319  1.00  0.00     0.052 A 
HETATM    6  C9  UNL     1      25.193  -0.114  53.458  1.00  0.00     0.095 A 
HETATM    7  C11 UNL     1      22.321   1.511  52.580  1.00  0.00    -0.039 A 
HETATM    8  C12 UNL     1      21.169   0.998  53.295  1.00  0.00     0.005 A 
HETATM    9  C13 UNL     1      20.420   1.946  52.707  1.00  0.00    -0.017 A 
HETATM   10  C14 UNL     1      21.491   2.566  51.930  1.00  0.00     0.043 A 
HETATM   11  C15 UNL     1      21.437   2.472  50.467  1.00  0.00     0.033 C 
HETATM   12  C16 UNL     1      22.226   3.468  49.693  1.00  0.00     0.122 C 
HETATM   13  N2  UNL     1      23.550   3.759  50.129  1.00  0.00    -0.374 N 
HETATM   14  C17 UNL     1      24.558   2.917  50.732  1.00  0.00     0.136 C 
HETATM   15  H19 UNL     1      23.937   4.723  50.027  1.00  0.00     0.161 HD
ENDROOT
BRANCH   1  16
HETATM   16  N1  UNL     1      27.513   0.043  52.853  1.00  0.00    -0.325 N 
HETATM   17  C3  UNL     1      28.441   0.617  53.785  1.00  0.00     0.221 C 
HETATM   18  O1  UNL     1      27.890   1.553  54.422  1.00  0.00    -0.273 OA
HETATM   19  H6  UNL     1      27.639  -0.751  52.166  1.00  0.00     0.169 HD
BRANCH  17  20
HETATM   20  C2  UNL     1      29.774  -0.067  53.718  1.00  0.00     0.098 C 
HETATM   21  C1  UNL     1      29.581  -1.540  53.407  1.00  0.00     0.014 C 
ENDBRANCH  17  20
ENDBRANCH   1  16
BRANCH   6  22
HETATM   22  O2  UNL     1      25.544  -1.126  54.331  1.00  0.00    -0.354 OA
HETATM   23  C10 UNL     1      24.924  -1.164  55.605  1.00  0.00     0.210 C 
ENDBRANCH   6  22
BRANCH  14  24
HETATM   24  N3  UNL     1      25.868   3.165  50.242  1.00  0.00    -0.226 NA
HETATM   25  C18 UNL     1      26.051   4.269  49.601  1.00  0.00     0.202 C 
BRANCH  25  26
HETATM   26  N4  UNL     1      27.349   4.521  49.111  1.00  0.00    -0.394 N 
HETATM   27  H21 UNL     1      28.317   4.726  49.433  1.00  0.00     0.156 HD
HETATM   28  H22 UNL     1      28.067   4.648  48.343  1.00  0.00     0.156 HD
ENDBRANCH  25  26
ENDBRANCH  14  24
TORSDOF 5
ENDMDL
MODEL 2
REMARK VINA RESULT:      -8.2      2.358      5.296
REMARK  5 active torsions:
REMARK  status: ('A' for Active; 'I' for Inactive)
REMARK    1  A    between atoms: C2_2  and  C3_3 
REMARK       I    between atoms: C3_3  and  N1_5 
REMARK    2  A    between atoms: N1_5  and  C4_6 
REMARK    3  A    between atoms: C9_11  and  O2_12 
REMARK    4  A    between atoms: C17_21  and  N3_22 
REMARK    5  A    between atoms: C18_23  and  N4_24 
ROOT
HETATM    1  C4  UNL     1      24.474   3.035  51.834  1.00  0.00     0.069 A 
HETATM    2  C5  UNL     1      25.249   2.150  52.513  1.00  0.00     0.048 A 
HETATM    3  C6  UNL     1      24.606   1.092  53.129  1.00  0.00     0.023 A 
HETATM    4  C7  UNL     1      23.208   0.993  53.019  1.00  0.00    -0.012 A 
HETATM    5  C8  UNL     1      22.432   1.904  52.324  1.00  0.00     0.052 A 
HETATM    6  C9  UNL     1      23.102   2.962  51.713  1.00  0.00     0.095 A 
HETATM    7  C11 UNL     1      22.259   0.123  53.414  1.00  0.00    -0.039 A 
HETATM    8  C12 UNL     1      20.831  -0.120  53.388  1.00  0.00     0.005 A 
HETATM    9  C13 UNL     1      21.045  -1.272  54.044  1.00  0.00    -0.017 A 
HETATM   10  C14 UNL     1      22.499  -1.159  54.139  1.00  0.00     0.043 A 
HETATM   11  C15 UNL     1      23.102  -0.996  55.467  1.00  0.00     0.033 C 
HETATM   12  C16 UNL     1      24.540  -1.349  55.606  1.00  0.00     0.122 C 
HETATM   13  N2  UNL     1      25.438  -0.918  54.590  1.00  0.00    -0.374 N 
HETATM   14  C17 UNL     1      25.458   0.284  53.788  1.00  0.00     0.136 C 
HETATM   15  H19 UNL     1      26.253  -1.512  54.323  1.00  0.00     0.161 HD
ENDROOT
BRANCH   1  16
HETATM   16  N1  UNL     1      25.144   4.121  51.205  1.00  0.00    -0.325 N 
HETATM   17  C3  UNL     1      25.644   4.073  49.860  1.00  0.00     0.221 C 
HETATM   18  O1  UNL     1      25.399   2.948  49.349  1.00  0.00    -0.273 OA
HETATM   19  H6  UNL     1      25.177   4.902  51.917  1.00  0.00     0.169 HD
BRANCH  17  20
HETATM   20  C2  UNL     1      26.300   5.366  49.476  1.00  0.00     0.098 C 
HETATM   21  C1  UNL     1      27.498   5.090  48.586  1.00  0.00     0.014 C 
ENDBRANCH  17  20
ENDBRANCH   1  16
BRANCH   6  22
HETATM   22  O2  UNL     1      22.433   3.932  50.993  1.00  0.00    -0.354 OA
HETATM   23  C10 UNL     1      21.612   4.848  51.693  1.00  0.00     0.210 C 
ENDBRANCH   6  22
BRANCH  14  24
HETATM   24  N3  UNL     1      26.761   0.817  53.599  1.00  0.00    -0.226 NA
HETATM   25  C18 UNL     1      27.719   0.260  54.261  1.00  0.00     0.202 C 
BRANCH  25  26
HETATM   26  N4  UNL     1      29.015   0.784  54.079  1.00  0.00    -0.394 N 
HETATM   27  H21 UNL     1      29.852   1.098  54.613  1.00  0.00     0.156 HD
HETATM   28  H22 UNL     1      29.827   1.130  53.493  1.00  0.00     0.156 HD
ENDBRANCH  25  26
ENDBRANCH  14  24
TORSDOF 5
ENDMDL
MODEL 3
REMARK VINA RESULT:      -7.9      2.154      2.363
REMARK  5 active torsions:
REMARK  status: ('A' for Active; 'I' for Inactive)
REMARK    1  A    between atoms: C2_2  and  C3_3 
REMARK       I    between atoms: C3_3  and  N1_5 
REMARK    2  A    between atoms: N1_5  and  C4_6 
REMARK    3  A    between atoms: C9_11  and  O2_12 
REMARK    4  A    between atoms: C17_21  and  N3_22 
REMARK    5  A    between atoms: C18_23  and  N4_24 
ROOT
HETATM    1  C4  UNL     1      25.094   2.068  53.319  1.00  0.00     0.069 A 
HETATM    2  C5  UNL     1      24.431   3.185  52.924  1.00  0.00     0.048 A 
HETATM    3  C6  UNL     1      23.134   3.022  52.473  1.00  0.00     0.023 A 
HETATM    4  C7  UNL     1      22.583   1.728  52.448  1.00  0.00    -0.012 A 
HETATM    5  C8  UNL     1      23.272   0.599  52.853  1.00  0.00     0.052 A 
HETATM    6  C9  UNL     1      24.578   0.789  53.303  1.00  0.00     0.095 A 
HETATM    7  C11 UNL     1      21.391   1.183  52.140  1.00  0.00    -0.039 A 
HETATM    8  C12 UNL     1      20.684  -0.080  52.060  1.00  0.00     0.005 A 
HETATM    9  C13 UNL     1      19.585   0.594  51.682  1.00  0.00    -0.017 A 
HETATM   10  C14 UNL     1      20.170   1.932  51.723  1.00  0.00     0.043 A 
HETATM   11  C15 UNL     1      20.318   2.670  50.464  1.00  0.00     0.033 C 
HETATM   12  C16 UNL     1      20.457   4.149  50.556  1.00  0.00     0.122 C 
HETATM   13  N2  UNL     1      21.323   4.679  51.554  1.00  0.00    -0.374 N 
HETATM   14  C17 UNL     1      22.571   4.183  52.090  1.00  0.00     0.136 C 
HETATM   15  H19 UNL     1      21.092   5.582  52.024  1.00  0.00     0.161 HD
ENDROOT
BRANCH   1  16
HETATM   16  N1  UNL     1      26.427   2.245  53.781  1.00  0.00    -0.325 N 
HETATM   17  C3  UNL     1      27.573   2.258  52.916  1.00  0.00     0.221 C 
HETATM   18  O1  UNL     1      27.212   2.092  51.721  1.00  0.00    -0.273 OA
HETATM   19  H6  UNL     1      26.365   2.356  54.831  1.00  0.00     0.169 HD
BRANCH  17  20
HETATM   20  C2  UNL     1      28.839   2.465  53.691  1.00  0.00     0.098 C 
HETATM   21  C1  UNL     1      29.238   1.171  54.379  1.00  0.00     0.014 C 
ENDBRANCH  17  20
ENDBRANCH   1  16
BRANCH   6  22
HETATM   22  O2  UNL     1      25.363  -0.263  53.733  1.00  0.00    -0.354 OA
HETATM   23  C10 UNL     1      24.981  -0.956  54.908  1.00  0.00     0.210 C 
ENDBRANCH   6  22
BRANCH  14  24
HETATM   24  N3  UNL     1      23.538   5.201  52.305  1.00  0.00    -0.226 NA
HETATM   25  C18 UNL     1      23.553   6.178  51.462  1.00  0.00     0.202 C 
BRANCH  25  26
HETATM   26  N4  UNL     1      24.510   7.192  51.670  1.00  0.00    -0.394 N 
HETATM   27  H21 UNL     1      24.799   7.914  52.363  1.00  0.00     0.156 HD
HETATM   28  H22 UNL     1      25.349   7.778  51.396  1.00  0.00     0.156 HD
ENDBRANCH  25  26
ENDBRANCH  14  24
TORSDOF 5
ENDMDL
MODEL 4
REMARK VINA RESULT:      -7.9      2.137      4.275
REMARK  5 active torsions:
REMARK  status: ('A' for Active; 'I' for Inactive)
REMARK    1  A    between atoms: C2_2  and  C3_3 
REMARK       I    between atoms: C3_3  and  N1_5 
REMARK    2  A    between atoms: N1_5  and  C4_6 
REMARK    3  A    between atoms: C9_11  and  O2_12 
REMARK    4  A    between atoms: C17_21  and  N3_22 
REMARK    5  A    between atoms: C18_23  and  N4_24 
ROOT
HETATM    1  C4  UNL     1      26.006   1.298  52.172  1.00  0.00     0.069 A 
HETATM    2  C5  UNL     1      25.007   0.625  52.800  1.00  0.00     0.048 A 
HETATM    3  C6  UNL     1      23.710   0.945  52.444  1.00  0.00     0.023 A 
HETATM    4  C7  UNL     1      23.500   1.934  51.466  1.00  0.00    -0.012 A 
HETATM    5  C8  UNL     1      24.528   2.612  50.836  1.00  0.00     0.052 A 
HETATM    6  C9  UNL     1      25.827   2.273  51.213  1.00  0.00     0.095 A 
HETATM    7  C11 UNL     1      22.439   2.471  50.836  1.00  0.00    -0.039 A 
HETATM    8  C12 UNL     1      22.061   3.460  49.846  1.00  0.00     0.005 A 
HETATM    9  C13 UNL     1      20.779   3.094  50.013  1.00  0.00    -0.017 A 
HETATM   10  C14 UNL     1      21.016   2.061  51.020  1.00  0.00     0.043 A 
HETATM   11  C15 UNL     1      20.498   2.275  52.376  1.00  0.00     0.033 C 
HETATM   12  C16 UNL     1      20.324   1.072  53.233  1.00  0.00     0.122 C 
HETATM   13  N2  UNL     1      21.361   0.097  53.240  1.00  0.00    -0.374 N 
HETATM   14  C17 UNL     1      22.796   0.237  53.133  1.00  0.00     0.136 C 
HETATM   15  H19 UNL     1      21.130  -0.916  53.340  1.00  0.00     0.161 HD
ENDROOT
BRANCH   1  16
HETATM   16  N1  UNL     1      27.336   0.963  52.545  1.00  0.00    -0.325 N 
HETATM   17  C3  UNL     1      28.016   1.543  53.669  1.00  0.00     0.221 C 
HETATM   18  O1  UNL     1      27.263   2.370  54.248  1.00  0.00    -0.273 OA
HETATM   19  H6  UNL     1      27.667   0.241  51.847  1.00  0.00     0.169 HD
BRANCH  17  20
HETATM   20  C2  UNL     1      29.404   0.993  53.810  1.00  0.00     0.098 C 
HETATM   21  C1  UNL     1      29.363  -0.523  53.763  1.00  0.00     0.014 C 
ENDBRANCH  17  20
ENDBRANCH   1  16
BRANCH   6  22
HETATM   22  O2  UNL     1      26.933   2.882  50.653  1.00  0.00    -0.354 OA
HETATM   23  C10 UNL     1      26.739   3.760  49.558  1.00  0.00     0.210 C 
ENDBRANCH   6  22
BRANCH  14  24
HETATM   24  N3  UNL     1      23.514  -0.627  54.003  1.00  0.00    -0.226 NA
HETATM   25  C18 UNL     1      22.890  -1.049  55.050  1.00  0.00     0.202 C 
BRANCH  25  26
HETATM   26  N4  UNL     1      23.597  -1.907  55.918  1.00  0.00    -0.394 N 
HETATM   27  H21 UNL     1      23.662  -2.183  56.919  1.00  0.00     0.156 HD
HETATM   28  H22 UNL     1      24.322  -2.645  56.141  1.00  0.00     0.156 HD
ENDBRANCH  25  26
ENDBRANCH  14  24
TORSDOF 5
ENDMDL
MODEL 5
REMARK VINA RESULT:      -7.8      1.429      1.935
REMARK  5 active torsions:
REMARK  status: ('A' for Active; 'I' for Inactive)
REMARK    1  A    between atoms: C2_2  and  C3_3 
REMARK       I    between atoms: C3_3  and  N1_5 
REMARK    2  A    between atoms: N1_5  and  C4_6 
REMARK    3  A    between atoms: C9_11  and  O2_12 
REMARK    4  A    between atoms: C17_21  and  N3_22 
REMARK    5  A    between atoms: C18_23  and  N4_24 
ROOT
HETATM    1  C4  UNL     1      25.287   0.549  52.777  1.00  0.00     0.069 A 
HETATM    2  C5  UNL     1      24.610   1.338  51.903  1.00  0.00     0.048 A 
HETATM    3  C6  UNL     1      23.234   1.207  51.871  1.00  0.00     0.023 A 
HETATM    4  C7  UNL     1      22.621   0.280  52.733  1.00  0.00    -0.012 A 
HETATM    5  C8  UNL     1      23.325  -0.517  53.618  1.00  0.00     0.052 A 
HETATM    6  C9  UNL     1      24.711  -0.369  53.631  1.00  0.00     0.095 A 
HETATM    7  C11 UNL     1      21.361  -0.091  53.027  1.00  0.00    -0.039 A 
HETATM    8  C12 UNL     1      20.585  -0.995  53.853  1.00  0.00     0.005 A 
HETATM    9  C13 UNL     1      19.467  -0.460  53.335  1.00  0.00    -0.017 A 
HETATM   10  C14 UNL     1      20.120   0.506  52.453  1.00  0.00     0.043 A 
HETATM   11  C15 UNL     1      19.983   0.333  51.003  1.00  0.00     0.033 C 
HETATM   12  C16 UNL     1      20.227   1.528  50.151  1.00  0.00     0.122 C 
HETATM   13  N2  UNL     1      21.348   2.350  50.455  1.00  0.00    -0.374 N 
HETATM   14  C17 UNL     1      22.660   2.018  50.962  1.00  0.00     0.136 C 
HETATM   15  H19 UNL     1      21.297   3.383  50.310  1.00  0.00     0.161 HD
ENDROOT
BRANCH   1  16
HETATM   16  N1  UNL     1      26.702   0.690  52.802  1.00  0.00    -0.325 N 
HETATM   17  C3  UNL     1      27.396   1.583  53.686  1.00  0.00     0.221 C 
HETATM   18  O1  UNL     1      26.570   2.201  54.410  1.00  0.00    -0.273 OA
HETATM   19  H6  UNL     1      27.079   0.027  52.070  1.00  0.00     0.169 HD
BRANCH  17  20
HETATM   20  C2  UNL     1      28.879   1.510  53.480  1.00  0.00     0.098 C 
HETATM   21  C1  UNL     1      29.368   0.100  53.757  1.00  0.00     0.014 C 
ENDBRANCH  17  20
ENDBRANCH   1  16
BRANCH   6  22
HETATM   22  O2  UNL     1      25.517  -1.110  54.472  1.00  0.00    -0.354 OA
HETATM   23  C10 UNL     1      25.313  -1.006  55.870  1.00  0.00     0.210 C 
ENDBRANCH   6  22
BRANCH  14  24
HETATM   24  N3  UNL     1      23.707   2.754  50.346  1.00  0.00    -0.226 NA
HETATM   25  C18 UNL     1      23.363   3.783  49.648  1.00  0.00     0.202 C 
BRANCH  25  26
HETATM   26  N4  UNL     1      24.397   4.518  49.033  1.00  0.00    -0.394 N 
HETATM   27  H21 UNL     1      24.668   4.942  48.122  1.00  0.00     0.156 HD
HETATM   28  H22 UNL     1      25.333   5.015  49.022  1.00  0.00     0.156 HD
ENDBRANCH  25  26
ENDBRANCH  14  24
TORSDOF 5
ENDMDL
MODEL 6
REMARK VINA RESULT:      -7.5      2.164      4.398
REMARK  5 active torsions:
REMARK  status: ('A' for Active; 'I' for Inactive)
REMARK    1  A    between atoms: C2_2  and  C3_3 
REMARK       I    between atoms: C3_3  and  N1_5 
REMARK    2  A    between atoms: N1_5  and  C4_6 
REMARK    3  A    between atoms: C9_11  and  O2_12 
REMARK    4  A    between atoms: C17_21  and  N3_22 
REMARK    5  A    between atoms: C18_23  and  N4_24 
ROOT
HETATM    1  C4  UNL     1      25.320   2.780  51.550  1.00  0.00     0.069 A 
HETATM    2  C5  UNL     1      24.051   3.262  51.561  1.00  0.00     0.048 A 
HETATM    3  C6  UNL     1      23.093   2.503  52.209  1.00  0.00     0.023 A 
HETATM    4  C7  UNL     1      23.482   1.293  52.811  1.00  0.00    -0.012 A 
HETATM    5  C8  UNL     1      24.780   0.814  52.790  1.00  0.00     0.052 A 
HETATM    6  C9  UNL     1      25.727   1.597  52.131  1.00  0.00     0.095 A 
HETATM    7  C11 UNL     1      22.887   0.336  53.548  1.00  0.00    -0.039 A 
HETATM    8  C12 UNL     1      23.130  -0.926  54.218  1.00  0.00     0.005 A 
HETATM    9  C13 UNL     1      21.851  -0.920  54.629  1.00  0.00    -0.017 A 
HETATM   10  C14 UNL     1      21.467   0.345  54.006  1.00  0.00     0.043 A 
HETATM   11  C15 UNL     1      20.483   0.319  52.918  1.00  0.00     0.033 C 
HETATM   12  C16 UNL     1      19.763   1.587  52.624  1.00  0.00     0.122 C 
HETATM   13  N2  UNL     1      20.516   2.794  52.589  1.00  0.00    -0.374 N 
HETATM   14  C17 UNL     1      21.868   3.057  52.149  1.00  0.00     0.136 C 
HETATM   15  H19 UNL     1      20.091   3.689  52.916  1.00  0.00     0.161 HD
ENDROOT
BRANCH   1  16
HETATM   16  N1  UNL     1      26.297   3.567  50.881  1.00  0.00    -0.325 N 
HETATM   17  C3  UNL     1      26.259   3.853  49.474  1.00  0.00     0.221 C 
HETATM   18  O1  UNL     1      25.251   3.310  48.951  1.00  0.00    -0.273 OA
HETATM   19  H6  UNL     1      26.996   3.861  51.617  1.00  0.00     0.169 HD
BRANCH  17  20
HETATM   20  C2  UNL     1      27.422   4.705  49.060  1.00  0.00     0.098 C 
HETATM   21  C1  UNL     1      26.925   6.062  48.595  1.00  0.00     0.014 C 
ENDBRANCH  17  20
ENDBRANCH   1  16
BRANCH   6  22
HETATM   22  O2  UNL     1      27.053   1.221  52.045  1.00  0.00    -0.354 OA
HETATM   23  C10 UNL     1      27.734   0.869  53.236  1.00  0.00     0.210 C 
ENDBRANCH   6  22
BRANCH  14  24
HETATM   24  N3  UNL     1      22.000   4.273  51.427  1.00  0.00    -0.226 NA
HETATM   25  C18 UNL     1      20.909   4.888  51.116  1.00  0.00     0.202 C 
BRANCH  25  26
HETATM   26  N4  UNL     1      21.033   6.096  50.400  1.00  0.00    -0.394 N 
HETATM   27  H21 UNL     1      21.085   7.126  50.538  1.00  0.00     0.156 HD
HETATM   28  H22 UNL     1      21.131   6.670  49.515  1.00  0.00     0.156 HD
ENDBRANCH  25  26
ENDBRANCH  14  24
TORSDOF 5
ENDMDL
MODEL 7
REMARK VINA RESULT:      -7.4      2.770      5.707
REMARK  5 active torsions:
REMARK  status: ('A' for Active; 'I' for Inactive)
REMARK    1  A    between atoms: C2_2  and  C3_3 
REMARK       I    between atoms: C3_3  and  N1_5 
REMARK    2  A    between atoms: N1_5  and  C4_6 
REMARK    3  A    between atoms: C9_11  and  O2_12 
REMARK    4  A    between atoms: C17_21  and  N3_22 
REMARK    5  A    between atoms: C18_23  and  N4_24 
ROOT
HETATM    1  C4  UNL     1      23.133   3.126  51.748  1.00  0.00     0.069 A 
HETATM    2  C5  UNL     1      24.143   2.400  52.293  1.00  0.00     0.048 A 
HETATM    3  C6  UNL     1      23.797   1.231  52.945  1.00  0.00     0.023 A 
HETATM    4  C7  UNL     1      22.441   0.864  53.006  1.00  0.00    -0.012 A 
HETATM    5  C8  UNL     1      21.423   1.615  52.446  1.00  0.00     0.052 A 
HETATM    6  C9  UNL     1      21.796   2.790  51.795  1.00  0.00     0.095 A 
HETATM    7  C11 UNL     1      21.734  -0.178  53.483  1.00  0.00    -0.039 A 
HETATM    8  C12 UNL     1      20.387  -0.692  53.625  1.00  0.00     0.005 A 
HETATM    9  C13 UNL     1      20.899  -1.789  54.208  1.00  0.00    -0.017 A 
HETATM   10  C14 UNL     1      22.304  -1.397  54.127  1.00  0.00     0.043 A 
HETATM   11  C15 UNL     1      23.030  -1.136  55.374  1.00  0.00     0.033 C 
HETATM   12  C16 UNL     1      24.516  -1.206  55.323  1.00  0.00     0.122 C 
HETATM   13  N2  UNL     1      25.178  -0.597  54.219  1.00  0.00    -0.374 N 
HETATM   14  C17 UNL     1      24.864   0.595  53.465  1.00  0.00     0.136 C 
HETATM   15  H19 UNL     1      26.050  -1.020  53.832  1.00  0.00     0.161 HD
ENDROOT
BRANCH   1  16
HETATM   16  N1  UNL     1      23.498   4.328  51.080  1.00  0.00    -0.325 N 
HETATM   17  C3  UNL     1      23.785   5.559  51.761  1.00  0.00     0.221 C 
HETATM   18  O1  UNL     1      23.665   5.402  53.004  1.00  0.00    -0.273 OA
HETATM   19  H6  UNL     1      23.503   4.103  50.047  1.00  0.00     0.169 HD
BRANCH  17  20
HETATM   20  C2  UNL     1      24.139   6.648  50.792  1.00  0.00     0.098 C 
HETATM   21  C1  UNL     1      22.901   7.460  50.457  1.00  0.00     0.014 C 
ENDBRANCH  17  20
ENDBRANCH   1  16
BRANCH   6  22
HETATM   22  O2  UNL     1      20.868   3.621  51.198  1.00  0.00    -0.354 OA
HETATM   23  C10 UNL     1      19.532   3.591  51.669  1.00  0.00     0.210 C 
ENDBRANCH   6  22
BRANCH  14  24
HETATM   24  N3  UNL     1      26.008   1.372  53.136  1.00  0.00    -0.226 NA
HETATM   25  C18 UNL     1      26.782   1.711  54.111  1.00  0.00     0.202 C 
BRANCH  25  26
HETATM   26  N4  UNL     1      27.918   2.482  53.791  1.00  0.00    -0.394 N 
HETATM   27  H21 UNL     1      28.935   2.565  54.001  1.00  0.00     0.156 HD
HETATM   28  H22 UNL     1      28.425   3.265  53.289  1.00  0.00     0.156 HD
ENDBRANCH  25  26
ENDBRANCH  14  24
TORSDOF 5
ENDMDL
MODEL 8
REMARK VINA RESULT:      -7.2      3.003      5.586
REMARK  5 active torsions:
REMARK  status: ('A' for Active; 'I' for Inactive)
REMARK    1  A    between atoms: C2_2  and  C3_3 
REMARK       I    between atoms: C3_3  and  N1_5 
REMARK    2  A    between atoms: N1_5  and  C4_6 
REMARK    3  A    between atoms: C9_11  and  O2_12 
REMARK    4  A    between atoms: C17_21  and  N3_22 
REMARK    5  A    between atoms: C18_23  and  N4_24 
ROOT
HETATM    1  C4  UNL     1      24.972   4.117  49.645  1.00  0.00     0.069 A 
HETATM    2  C5  UNL     1      25.392   3.325  50.664  1.00  0.00     0.048 A 
HETATM    3  C6  UNL     1      24.501   2.378  51.136  1.00  0.00     0.023 A 
HETATM    4  C7  UNL     1      23.229   2.290  50.542  1.00  0.00    -0.012 A 
HETATM    5  C8  UNL     1      22.815   3.106  49.504  1.00  0.00     0.052 A 
HETATM    6  C9  UNL     1      23.731   4.053  49.047  1.00  0.00     0.095 A 
HETATM    7  C11 UNL     1      22.145   1.504  50.675  1.00  0.00    -0.039 A 
HETATM    8  C12 UNL     1      20.805   1.287  50.167  1.00  0.00     0.005 A 
HETATM    9  C13 UNL     1      20.692   0.237  50.996  1.00  0.00    -0.017 A 
HETATM   10  C14 UNL     1      22.022   0.336  51.595  1.00  0.00     0.043 A 
HETATM   11  C15 UNL     1      22.124   0.676  53.018  1.00  0.00     0.033 C 
HETATM   12  C16 UNL     1      23.391   0.319  53.712  1.00  0.00     0.122 C 
HETATM   13  N2  UNL     1      24.619   0.583  53.043  1.00  0.00    -0.374 N 
HETATM   14  C17 UNL     1      25.005   1.657  52.155  1.00  0.00     0.136 C 
HETATM   15  H19 UNL     1      25.433  -0.059  53.165  1.00  0.00     0.161 HD
ENDROOT
BRANCH   1  16
HETATM   16  N1  UNL     1      25.895   5.088  49.167  1.00  0.00    -0.325 N 
HETATM   17  C3  UNL     1      25.951   6.437  49.654  1.00  0.00     0.221 C 
HETATM   18  O1  UNL     1      25.078   6.611  50.544  1.00  0.00    -0.273 OA
HETATM   19  H6  UNL     1      26.477   4.605  48.428  1.00  0.00     0.169 HD
BRANCH  17  20
HETATM   20  C2  UNL     1      27.025   7.222  48.961  1.00  0.00     0.098 C 
HETATM   21  C1  UNL     1      27.966   6.277  48.237  1.00  0.00     0.014 C 
ENDBRANCH  17  20
ENDBRANCH   1  16
BRANCH   6  22
HETATM   22  O2  UNL     1      23.430   4.921  48.017  1.00  0.00    -0.354 OA
HETATM   23  C10 UNL     1      22.398   5.872  48.213  1.00  0.00     0.210 C 
ENDBRANCH   6  22
BRANCH  14  24
HETATM   24  N3  UNL     1      26.324   2.132  52.384  1.00  0.00    -0.226 NA
HETATM   25  C18 UNL     1      26.757   2.089  53.599  1.00  0.00     0.202 C 
BRANCH  25  26
HETATM   26  N4  UNL     1      28.065   2.560  53.832  1.00  0.00    -0.394 N 
HETATM   27  H21 UNL     1      29.064   2.302  53.689  1.00  0.00     0.156 HD
HETATM   28  H22 UNL     1      28.773   3.260  54.192  1.00  0.00     0.156 HD
ENDBRANCH  25  26
ENDBRANCH  14  24
TORSDOF 5
ENDMDL
MODEL 9
REMARK VINA RESULT:      -7.1      2.499      6.016
REMARK  5 active torsions:
REMARK  status: ('A' for Active; 'I' for Inactive)
REMARK    1  A    between atoms: C2_2  and  C3_3 
REMARK       I    between atoms: C3_3  and  N1_5 
REMARK    2  A    between atoms: N1_5  and  C4_6 
REMARK    3  A    between atoms: C9_11  and  O2_12 
REMARK    4  A    between atoms: C17_21  and  N3_22 
REMARK    5  A    between atoms: C18_23  and  N4_24 
ROOT
HETATM    1  C4  UNL     1      21.289   1.567  52.407  1.00  0.00     0.069 A 
HETATM    2  C5  UNL     1      22.116   2.249  51.574  1.00  0.00     0.048 A 
HETATM    3  C6  UNL     1      23.457   1.911  51.601  1.00  0.00     0.023 A 
HETATM    4  C7  UNL     1      23.883   0.896  52.476  1.00  0.00    -0.012 A 
HETATM    5  C8  UNL     1      23.027   0.210  53.320  1.00  0.00     0.052 A 
HETATM    6  C9  UNL     1      21.681   0.569  53.276  1.00  0.00     0.095 A 
HETATM    7  C11 UNL     1      25.042   0.269  52.750  1.00  0.00    -0.039 A 
HETATM    8  C12 UNL     1      25.632  -0.755  53.589  1.00  0.00     0.005 A 
HETATM    9  C13 UNL     1      26.807  -0.540  52.975  1.00  0.00    -0.017 A 
HETATM   10  C14 UNL     1      26.345   0.506  52.064  1.00  0.00     0.043 A 
HETATM   11  C15 UNL     1      26.876   1.864  52.233  1.00  0.00     0.033 C 
HETATM   12  C16 UNL     1      26.783   2.778  51.063  1.00  0.00     0.122 C 
HETATM   13  N2  UNL     1      25.566   2.803  50.326  1.00  0.00    -0.374 N 
HETATM   14  C17 UNL     1      24.193   2.654  50.754  1.00  0.00     0.136 C 
HETATM   15  H19 UNL     1      25.580   2.954  49.293  1.00  0.00     0.161 HD
ENDROOT
BRANCH   1  16
HETATM   16  N1  UNL     1      19.912   1.921  52.373  1.00  0.00    -0.325 N 
HETATM   17  C3  UNL     1      18.979   1.391  51.420  1.00  0.00     0.221 C 
HETATM   18  O1  UNL     1      19.563   0.587  50.647  1.00  0.00    -0.273 OA
HETATM   19  H6  UNL     1      19.765   2.613  53.159  1.00  0.00     0.169 HD
BRANCH  17  20
HETATM   20  C2  UNL     1      17.604   1.950  51.635  1.00  0.00     0.098 C 
HETATM   21  C1  UNL     1      17.656   3.467  51.605  1.00  0.00     0.014 C 
ENDBRANCH  17  20
ENDBRANCH   1  16
BRANCH   6  22
HETATM   22  O2  UNL     1      20.734  -0.045  54.072  1.00  0.00    -0.354 OA
HETATM   23  C10 UNL     1      20.798  -1.451  54.237  1.00  0.00     0.210 C 
ENDBRANCH   6  22
BRANCH  14  24
HETATM   24  N3  UNL     1      23.299   3.544  50.101  1.00  0.00    -0.226 NA
HETATM   25  C18 UNL     1      23.798   4.305  49.186  1.00  0.00     0.202 C 
BRANCH  25  26
HETATM   26  N4  UNL     1      22.915   5.190  48.534  1.00  0.00    -0.394 N 
HETATM   27  H21 UNL     1      22.845   6.173  48.196  1.00  0.00     0.156 HD
HETATM   28  H22 UNL     1      22.001   5.447  48.066  1.00  0.00     0.156 HD
ENDBRANCH  25  26
ENDBRANCH  14  24
TORSDOF 5
ENDMDL
