MODEL 1
REMARK VINA RESULT:      -8.6      0.000      0.000
REMARK  6 active torsions:
REMARK  status: ('A' for Active; 'I' for Inactive)
REMARK    1  A    between atoms: C2_2  and  N1_3 
REMARK    2  A    between atoms: C5_7  and  N3_8 
REMARK    3  A    between atoms: N3_8  and  C6_9 
REMARK    4  A    between atoms: C12_16  and  N5_17 
REMARK    5  A    between atoms: N5_17  and  C13_18 
REMARK    6  A    between atoms: C17_22  and  N6_23 
ROOT
HETATM    1  N1  UNL     1      21.275   0.858  53.305  1.00  0.00    -0.324 N 
HETATM    2  C3  UNL     1      20.564   1.473  52.345  1.00  0.00     0.212 A 
HETATM    3  N2  UNL     1      21.433   1.980  51.458  1.00  0.00    -0.236 NA
HETATM    4  C4  UNL     1      22.694   1.702  51.830  1.00  0.00     0.151 A 
HETATM    5  C5  UNL     1      23.885   2.017  51.224  1.00  0.00     0.180 A 
HETATM    6  N4  UNL     1      24.981   1.575  51.861  1.00  0.00    -0.043 NA
HETATM    7  C12 UNL     1      24.941   0.882  52.998  1.00  0.00     0.726 A 
HETATM    8  N7  UNL     1      23.745   0.602  53.550  1.00  0.00    -0.042 NA
HETATM    9  C19 UNL     1      22.581   0.990  53.004  1.00  0.00     0.182 A 
ENDROOT
BRANCH   7  10
HETATM   10  N5  UNL     1      26.159   0.442  53.623  1.00  0.00    -0.218 N 
HETATM   11  H13 UNL     1      26.078   0.069  54.613  1.00  0.00     0.178 HD
BRANCH  10  12
HETATM   12  C13 UNL     1      27.409   0.521  52.901  1.00  0.00     0.101 C 
HETATM   13  C14 UNL     1      28.548   0.995  53.745  1.00  0.00     0.026 C 
HETATM   14  C15 UNL     1      29.788   0.218  53.358  1.00  0.00     0.004 C 
HETATM   15  C16 UNL     1      29.702  -1.211  53.855  1.00  0.00     0.035 C 
HETATM   16  C17 UNL     1      28.323  -1.732  53.489  1.00  0.00     0.220 C 
HETATM   17  C18 UNL     1      27.706  -0.894  52.417  1.00  0.00     0.060 C 
BRANCH  16  18
HETATM   18  N6  UNL     1      28.363  -3.105  53.032  1.00  0.00     0.083 N 
HETATM   19  H22 UNL     1      28.985  -3.635  53.689  1.00  0.00     0.313 HD
HETATM   20  H23 UNL     1      27.392  -3.486  53.088  1.00  0.00     0.313 HD
ENDBRANCH  16  18
ENDBRANCH  10  12
ENDBRANCH   7  10
BRANCH   5  21
HETATM   21  N3  UNL     1      24.077   2.757  50.041  1.00  0.00    -0.338 N 
HETATM   22  H7  UNL     1      23.398   2.657  49.254  1.00  0.00     0.167 HD
BRANCH  21  23
HETATM   23  C6  UNL     1      25.036   3.693  49.592  1.00  0.00     0.033 A 
HETATM   24  C7  UNL     1      26.400   3.424  49.438  1.00  0.00     0.029 A 
HETATM   25  C8  UNL     1      27.288   4.385  49.015  1.00  0.00     0.002 A 
HETATM   26  C9  UNL     1      26.872   5.669  48.719  1.00  0.00     0.000 A 
HETATM   27  C10 UNL     1      25.528   5.947  48.867  1.00  0.00     0.002 A 
HETATM   28  C11 UNL     1      24.651   4.985  49.290  1.00  0.00     0.029 A 
ENDBRANCH  21  23
ENDBRANCH   5  21
BRANCH   1  29
HETATM   29  C2  UNL     1      20.834   0.150  54.491  1.00  0.00     0.127 C 
HETATM   30  C1  UNL     1      20.914  -1.347  54.225  1.00  0.00     0.027 C 
ENDBRANCH   1  29
TORSDOF 6
ENDMDL
MODEL 2
REMARK VINA RESULT:      -8.4      1.708      5.922
REMARK  6 active torsions:
REMARK  status: ('A' for Active; 'I' for Inactive)
REMARK    1  A    between atoms: C2_2  and  N1_3 
REMARK    2  A    between atoms: C5_7  and  N3_8 
REMARK    3  A    between atoms: N3_8  and  C6_9 
REMARK    4  A    between atoms: C12_16  and  N5_17 
REMARK    5  A    between atoms: N5_17  and  C13_18 
REMARK    6  A    between atoms: C17_22  and  N6_23 
ROOT
HETATM    1  N1  UNL     1      20.468  -0.502  53.192  1.00  0.00    -0.324 N 
HETATM    2  C3  UNL     1      20.739  -1.308  54.233  1.00  0.00     0.212 A 
HETATM    3  N2  UNL     1      22.058  -1.245  54.463  1.00  0.00    -0.236 NA
HETATM    4  C4  UNL     1      22.645  -0.412  53.586  1.00  0.00     0.151 A 
HETATM    5  C5  UNL     1      23.962  -0.047  53.458  1.00  0.00     0.180 A 
HETATM    6  N4  UNL     1      24.217   0.825  52.470  1.00  0.00    -0.043 NA
HETATM    7  C12 UNL     1      23.277   1.313  51.659  1.00  0.00     0.726 A 
HETATM    8  N7  UNL     1      22.001   0.919  51.830  1.00  0.00    -0.042 NA
HETATM    9  C19 UNL     1      21.625   0.053  52.785  1.00  0.00     0.182 A 
ENDROOT
BRANCH   7  10
HETATM   10  N5  UNL     1      23.627   2.244  50.622  1.00  0.00    -0.218 N 
HETATM   11  H13 UNL     1      23.065   2.188  49.723  1.00  0.00     0.178 HD
BRANCH  10  12
HETATM   12  C13 UNL     1      24.697   3.192  50.834  1.00  0.00     0.101 C 
HETATM   13  C14 UNL     1      25.301   3.694  49.563  1.00  0.00     0.026 C 
HETATM   14  C15 UNL     1      25.616   5.166  49.729  1.00  0.00     0.004 C 
HETATM   15  C16 UNL     1      24.345   5.990  49.730  1.00  0.00     0.035 C 
HETATM   16  C17 UNL     1      23.365   5.304  50.666  1.00  0.00     0.220 C 
HETATM   17  C18 UNL     1      24.077   4.366  51.586  1.00  0.00     0.060 C 
BRANCH  16  18
HETATM   18  N6  UNL     1      22.619   6.252  51.465  1.00  0.00     0.083 N 
HETATM   19  H22 UNL     1      21.729   6.462  50.951  1.00  0.00     0.313 HD
HETATM   20  H23 UNL     1      22.395   5.792  52.375  1.00  0.00     0.313 HD
ENDBRANCH  16  18
ENDBRANCH  10  12
ENDBRANCH   7  10
BRANCH   5  21
HETATM   21  N3  UNL     1      25.056  -0.497  54.222  1.00  0.00    -0.338 N 
HETATM   22  H7  UNL     1      24.886  -0.949  55.148  1.00  0.00     0.167 HD
BRANCH  21  23
HETATM   23  C6  UNL     1      26.460  -0.502  54.054  1.00  0.00     0.033 A 
HETATM   24  C7  UNL     1      27.146  -1.279  53.116  1.00  0.00     0.029 A 
HETATM   25  C8  UNL     1      28.518  -1.255  53.014  1.00  0.00     0.002 A 
HETATM   26  C9  UNL     1      29.285  -0.456  53.839  1.00  0.00     0.000 A 
HETATM   27  C10 UNL     1      28.619   0.316  54.770  1.00  0.00     0.002 A 
HETATM   28  C11 UNL     1      27.255   0.285  54.865  1.00  0.00     0.029 A 
ENDBRANCH  21  23
ENDBRANCH   5  21
BRANCH   1  29
HETATM   29  C2  UNL     1      19.209  -0.203  52.539  1.00  0.00     0.127 C 
HETATM   30  C1  UNL     1      18.149  -1.165  53.057  1.00  0.00     0.027 C 
ENDBRANCH   1  29
TORSDOF 6
ENDMDL
MODEL 3
REMARK VINA RESULT:      -8.4      1.514      6.016
REMARK  6 active torsions:
REMARK  status: ('A' for Active; 'I' for Inactive)
REMARK    1  A    between atoms: C2_2  and  N1_3 
REMARK    2  A    between atoms: C5_7  and  N3_8 
REMARK    3  A    between atoms: N3_8  and  C6_9 
REMARK    4  A    between atoms: C12_16  and  N5_17 
REMARK    5  A    between atoms: N5_17  and  C13_18 
REMARK    6  A    between atoms: C17_22  and  N6_23 
ROOT
HETATM    1  N1  UNL     1      21.959   0.166  52.325  1.00  0.00    -0.324 N 
HETATM    2  C3  UNL     1      22.359  -0.869  53.082  1.00  0.00     0.212 A 
HETATM    3  N2  UNL     1      23.566  -0.566  53.579  1.00  0.00    -0.236 NA
HETATM    4  C4  UNL     1      23.953   0.649  53.155  1.00  0.00     0.151 A 
HETATM    5  C5  UNL     1      25.101   1.354  53.419  1.00  0.00     0.180 A 
HETATM    6  N4  UNL     1      25.173   2.562  52.837  1.00  0.00    -0.043 NA
HETATM    7  C12 UNL     1      24.214   3.060  52.056  1.00  0.00     0.726 A 
HETATM    8  N7  UNL     1      23.109   2.324  51.831  1.00  0.00    -0.042 NA
HETATM    9  C19 UNL     1      22.924   1.104  52.359  1.00  0.00     0.182 A 
ENDROOT
BRANCH   7  10
HETATM   10  N5  UNL     1      24.362   4.363  51.467  1.00  0.00    -0.218 N 
HETATM   11  H13 UNL     1      24.666   5.146  52.115  1.00  0.00     0.178 HD
BRANCH  10  12
HETATM   12  C13 UNL     1      24.099   4.551  50.058  1.00  0.00     0.101 C 
HETATM   13  C14 UNL     1      23.716   5.954  49.712  1.00  0.00     0.026 C 
HETATM   14  C15 UNL     1      24.353   6.312  48.386  1.00  0.00     0.004 C 
HETATM   15  C16 UNL     1      25.848   6.506  48.544  1.00  0.00     0.035 C 
HETATM   16  C17 UNL     1      26.370   5.332  49.355  1.00  0.00     0.220 C 
HETATM   17  C18 UNL     1      25.396   4.199  49.337  1.00  0.00     0.060 C 
BRANCH  16  18
HETATM   18  N6  UNL     1      27.642   4.852  48.861  1.00  0.00     0.083 N 
HETATM   19  H22 UNL     1      28.369   5.103  49.574  1.00  0.00     0.313 HD
HETATM   20  H23 UNL     1      27.578   3.812  48.780  1.00  0.00     0.313 HD
ENDBRANCH  16  18
ENDBRANCH  10  12
ENDBRANCH   7  10
BRANCH   5  21
HETATM   21  N3  UNL     1      26.200   0.946  54.200  1.00  0.00    -0.338 N 
HETATM   22  H7  UNL     1      26.188   1.112  55.231  1.00  0.00     0.167 HD
BRANCH  21  23
HETATM   23  C6  UNL     1      27.432   0.307  53.937  1.00  0.00     0.033 A 
HETATM   24  C7  UNL     1      28.689   0.872  54.177  1.00  0.00     0.029 A 
HETATM   25  C8  UNL     1      29.855   0.205  53.880  1.00  0.00     0.002 A 
HETATM   26  C9  UNL     1      29.839  -1.061  53.327  1.00  0.00     0.000 A 
HETATM   27  C10 UNL     1      28.604  -1.629  53.086  1.00  0.00     0.002 A 
HETATM   28  C11 UNL     1      27.449  -0.959  53.384  1.00  0.00     0.029 A 
ENDBRANCH  21  23
ENDBRANCH   5  21
BRANCH   1  29
HETATM   29  C2  UNL     1      20.739   0.357  51.564  1.00  0.00     0.127 C 
HETATM   30  C1  UNL     1      19.549   0.076  52.471  1.00  0.00     0.027 C 
ENDBRANCH   1  29
TORSDOF 6
ENDMDL
MODEL 4
REMARK VINA RESULT:      -8.2      2.004      5.531
REMARK  6 active torsions:
REMARK  status: ('A' for Active; 'I' for Inactive)
REMARK    1  A    between atoms: C2_2  and  N1_3 
REMARK    2  A    between atoms: C5_7  and  N3_8 
REMARK    3  A    between atoms: N3_8  and  C6_9 
REMARK    4  A    between atoms: C12_16  and  N5_17 
REMARK    5  A    between atoms: N5_17  and  C13_18 
REMARK    6  A    between atoms: C17_22  and  N6_23 
ROOT
HETATM    1  N1  UNL     1      23.392   4.966  51.452  1.00  0.00    -0.324 N 
HETATM    2  C3  UNL     1      22.098   5.095  51.789  1.00  0.00     0.212 A 
HETATM    3  N2  UNL     1      21.693   3.925  52.302  1.00  0.00    -0.236 NA
HETATM    4  C4  UNL     1      22.705   3.041  52.301  1.00  0.00     0.151 A 
HETATM    5  C5  UNL     1      22.743   1.738  52.735  1.00  0.00     0.180 A 
HETATM    6  N4  UNL     1      23.931   1.128  52.598  1.00  0.00    -0.043 NA
HETATM    7  C12 UNL     1      25.007   1.722  52.082  1.00  0.00     0.726 A 
HETATM    8  N7  UNL     1      24.913   3.000  51.672  1.00  0.00    -0.042 NA
HETATM    9  C19 UNL     1      23.779   3.713  51.759  1.00  0.00     0.182 A 
ENDROOT
BRANCH   7  10
HETATM   10  N5  UNL     1      26.247   1.003  51.968  1.00  0.00    -0.218 N 
HETATM   11  H13 UNL     1      26.805   1.155  51.078  1.00  0.00     0.178 HD
BRANCH  10  12
HETATM   12  C13 UNL     1      26.674   0.127  53.036  1.00  0.00     0.101 C 
HETATM   13  C14 UNL     1      27.553  -0.987  52.569  1.00  0.00     0.026 C 
HETATM   14  C15 UNL     1      28.633  -1.215  53.606  1.00  0.00     0.004 C 
HETATM   15  C16 UNL     1      29.645  -0.088  53.583  1.00  0.00     0.035 C 
HETATM   16  C17 UNL     1      28.866   1.216  53.558  1.00  0.00     0.220 C 
HETATM   17  C18 UNL     1      27.457   1.002  54.010  1.00  0.00     0.060 C 
BRANCH  16  18
HETATM   18  N6  UNL     1      29.468   2.227  54.400  1.00  0.00     0.083 N 
HETATM   19  H22 UNL     1      29.072   3.154  54.108  1.00  0.00     0.313 HD
HETATM   20  H23 UNL     1      29.190   2.026  55.386  1.00  0.00     0.313 HD
ENDBRANCH  16  18
ENDBRANCH  10  12
ENDBRANCH   7  10
BRANCH   5  21
HETATM   21  N3  UNL     1      21.685   0.982  53.276  1.00  0.00    -0.338 N 
HETATM   22  H7  UNL     1      21.727   0.679  54.274  1.00  0.00     0.167 HD
BRANCH  21  23
HETATM   23  C6  UNL     1      20.462   0.476  52.781  1.00  0.00     0.033 A 
HETATM   24  C7  UNL     1      19.643  -0.432  53.460  1.00  0.00     0.029 A 
HETATM   25  C8  UNL     1      18.471  -0.903  52.915  1.00  0.00     0.002 A 
HETATM   26  C9  UNL     1      18.046  -0.498  51.664  1.00  0.00     0.000 A 
HETATM   27  C10 UNL     1      18.846   0.398  50.984  1.00  0.00     0.002 A 
HETATM   28  C11 UNL     1      20.010   0.861  51.533  1.00  0.00     0.029 A 
ENDBRANCH  21  23
ENDBRANCH   5  21
BRANCH   1  29
HETATM   29  C2  UNL     1      24.308   5.923  50.863  1.00  0.00     0.127 C 
HETATM   30  C1  UNL     1      23.630   7.285  50.815  1.00  0.00     0.027 C 
ENDBRANCH   1  29
TORSDOF 6
ENDMDL
MODEL 5
REMARK VINA RESULT:      -8.0      1.607      6.994
REMARK  6 active torsions:
REMARK  status: ('A' for Active; 'I' for Inactive)
REMARK    1  A    between atoms: C2_2  and  N1_3 
REMARK    2  A    between atoms: C5_7  and  N3_8 
REMARK    3  A    between atoms: N3_8  and  C6_9 
REMARK    4  A    between atoms: C12_16  and  N5_17 
REMARK    5  A    between atoms: N5_17  and  C13_18 
REMARK    6  A    between atoms: C17_22  and  N6_23 
ROOT
HETATM    1  N1  UNL     1      27.776   0.315  53.565  1.00  0.00    -0.324 N 
HETATM    2  C3  UNL     1      27.400  -0.890  54.024  1.00  0.00     0.212 A 
HETATM    3  N2  UNL     1      26.078  -1.003  53.833  1.00  0.00    -0.236 NA
HETATM    4  C4  UNL     1      25.593   0.111  53.259  1.00  0.00     0.151 A 
HETATM    5  C5  UNL     1      24.311   0.426  52.881  1.00  0.00     0.180 A 
HETATM    6  N4  UNL     1      24.166   1.635  52.317  1.00  0.00    -0.043 NA
HETATM    7  C12 UNL     1      25.175   2.485  52.129  1.00  0.00     0.726 A 
HETATM    8  N7  UNL     1      26.412   2.125  52.520  1.00  0.00    -0.042 NA
HETATM    9  C19 UNL     1      26.681   0.941  53.093  1.00  0.00     0.182 A 
ENDROOT
BRANCH   7  10
HETATM   10  N5  UNL     1      24.942   3.765  51.518  1.00  0.00    -0.218 N 
HETATM   11  H13 UNL     1      25.011   4.614  52.150  1.00  0.00     0.178 HD
BRANCH  10  12
HETATM   12  C13 UNL     1      24.630   3.845  50.108  1.00  0.00     0.101 C 
HETATM   13  C14 UNL     1      23.629   4.906  49.785  1.00  0.00     0.026 C 
HETATM   14  C15 UNL     1      24.029   5.561  48.479  1.00  0.00     0.004 C 
HETATM   15  C16 UNL     1      25.251   6.437  48.670  1.00  0.00     0.035 C 
HETATM   16  C17 UNL     1      26.262   5.629  49.466  1.00  0.00     0.220 C 
HETATM   17  C18 UNL     1      25.944   4.170  49.405  1.00  0.00     0.060 C 
BRANCH  16  18
HETATM   18  N6  UNL     1      27.614   5.824  48.986  1.00  0.00     0.083 N 
HETATM   19  H22 UNL     1      27.575   6.549  48.229  1.00  0.00     0.313 HD
HETATM   20  H23 UNL     1      28.184   6.184  49.783  1.00  0.00     0.313 HD
ENDBRANCH  16  18
ENDBRANCH  10  12
ENDBRANCH   7  10
BRANCH   5  21
HETATM   21  N3  UNL     1      23.152  -0.359  53.038  1.00  0.00    -0.338 N 
HETATM   22  H7  UNL     1      23.214  -1.274  53.539  1.00  0.00     0.167 HD
BRANCH  21  23
HETATM   23  C6  UNL     1      21.796  -0.226  52.666  1.00  0.00     0.033 A 
HETATM   24  C7  UNL     1      21.353   0.251  51.427  1.00  0.00     0.029 A 
HETATM   25  C8  UNL     1      20.016   0.376  51.131  1.00  0.00     0.002 A 
HETATM   26  C9  UNL     1      19.041   0.035  52.049  1.00  0.00     0.000 A 
HETATM   27  C10 UNL     1      19.466  -0.437  53.275  1.00  0.00     0.002 A 
HETATM   28  C11 UNL     1      20.798  -0.558  53.562  1.00  0.00     0.029 A 
ENDBRANCH  21  23
ENDBRANCH   5  21
BRANCH   1  29
HETATM   29  C2  UNL     1      29.084   0.940  53.528  1.00  0.00     0.127 C 
HETATM   30  C1  UNL     1      30.147  -0.150  53.543  1.00  0.00     0.027 C 
ENDBRANCH   1  29
TORSDOF 6
ENDMDL
MODEL 6
REMARK VINA RESULT:      -7.9      1.924      6.221
REMARK  6 active torsions:
REMARK  status: ('A' for Active; 'I' for Inactive)
REMARK    1  A    between atoms: C2_2  and  N1_3 
REMARK    2  A    between atoms: C5_7  and  N3_8 
REMARK    3  A    between atoms: N3_8  and  C6_9 
REMARK    4  A    between atoms: C12_16  and  N5_17 
REMARK    5  A    between atoms: N5_17  and  C13_18 
REMARK    6  A    between atoms: C17_22  and  N6_23 
ROOT
HETATM    1  N1  UNL     1      23.896   5.243  49.007  1.00  0.00    -0.324 N 
HETATM    2  C3  UNL     1      25.159   5.648  48.793  1.00  0.00     0.212 A 
HETATM    3  N2  UNL     1      25.955   4.941  49.608  1.00  0.00    -0.236 NA
HETATM    4  C4  UNL     1      25.226   4.086  50.345  1.00  0.00     0.151 A 
HETATM    5  C5  UNL     1      25.622   3.175  51.294  1.00  0.00     0.180 A 
HETATM    6  N4  UNL     1      24.629   2.460  51.844  1.00  0.00    -0.043 NA
HETATM    7  C12 UNL     1      23.346   2.606  51.512  1.00  0.00     0.726 A 
HETATM    8  N7  UNL     1      23.015   3.515  50.576  1.00  0.00    -0.042 NA
HETATM    9  C19 UNL     1      23.921   4.287  49.955  1.00  0.00     0.182 A 
ENDROOT
BRANCH   7  10
HETATM   10  N5  UNL     1      22.337   1.802  52.146  1.00  0.00    -0.218 N 
HETATM   11  H13 UNL     1      21.460   2.306  52.467  1.00  0.00     0.178 HD
BRANCH  10  12
HETATM   12  C13 UNL     1      22.548   0.382  52.317  1.00  0.00     0.101 C 
HETATM   13  C14 UNL     1      23.285   0.043  53.572  1.00  0.00     0.026 C 
HETATM   14  C15 UNL     1      22.687  -1.221  54.153  1.00  0.00     0.004 C 
HETATM   15  C16 UNL     1      21.320  -0.945  54.747  1.00  0.00     0.035 C 
HETATM   16  C17 UNL     1      20.545  -0.125  53.729  1.00  0.00     0.220 C 
HETATM   17  C18 UNL     1      21.159  -0.246  52.371  1.00  0.00     0.060 C 
BRANCH  16  18
HETATM   18  N6  UNL     1      19.159  -0.533  53.643  1.00  0.00     0.083 N 
HETATM   19  H22 UNL     1      19.007  -0.922  52.681  1.00  0.00     0.313 HD
HETATM   20  H23 UNL     1      19.006  -1.284  54.351  1.00  0.00     0.313 HD
ENDBRANCH  16  18
ENDBRANCH  10  12
ENDBRANCH   7  10
BRANCH   5  21
HETATM   21  N3  UNL     1      26.930   2.932  51.758  1.00  0.00    -0.338 N 
HETATM   22  H7  UNL     1      27.698   3.591  51.501  1.00  0.00     0.167 HD
BRANCH  21  23
HETATM   23  C6  UNL     1      27.539   1.938  52.557  1.00  0.00     0.033 A 
HETATM   24  C7  UNL     1      27.257   0.570  52.478  1.00  0.00     0.029 A 
HETATM   25  C8  UNL     1      27.870  -0.347  53.299  1.00  0.00     0.002 A 
HETATM   26  C9  UNL     1      28.799   0.042  54.245  1.00  0.00     0.000 A 
HETATM   27  C10 UNL     1      29.085   1.390  54.332  1.00  0.00     0.002 A 
HETATM   28  C11 UNL     1      28.470   2.296  53.512  1.00  0.00     0.029 A 
ENDBRANCH  21  23
ENDBRANCH   5  21
BRANCH   1  29
HETATM   29  C2  UNL     1      22.655   5.677  48.395  1.00  0.00     0.127 C 
HETATM   30  C1  UNL     1      22.356   4.776  47.205  1.00  0.00     0.027 C 
ENDBRANCH   1  29
TORSDOF 6
ENDMDL
MODEL 7
REMARK VINA RESULT:      -7.9      2.041      7.098
REMARK  6 active torsions:
REMARK  status: ('A' for Active; 'I' for Inactive)
REMARK    1  A    between atoms: C2_2  and  N1_3 
REMARK    2  A    between atoms: C5_7  and  N3_8 
REMARK    3  A    between atoms: N3_8  and  C6_9 
REMARK    4  A    between atoms: C12_16  and  N5_17 
REMARK    5  A    between atoms: N5_17  and  C13_18 
REMARK    6  A    between atoms: C17_22  and  N6_23 
ROOT
HETATM    1  N1  UNL     1      27.285   0.530  53.499  1.00  0.00    -0.324 N 
HETATM    2  C3  UNL     1      27.034  -0.789  53.547  1.00  0.00     0.212 A 
HETATM    3  N2  UNL     1      25.709  -0.954  53.431  1.00  0.00    -0.236 NA
HETATM    4  C4  UNL     1      25.099   0.237  53.311  1.00  0.00     0.151 A 
HETATM    5  C5  UNL     1      23.767   0.539  53.163  1.00  0.00     0.180 A 
HETATM    6  N4  UNL     1      23.490   1.848  53.059  1.00  0.00    -0.043 NA
HETATM    7  C12 UNL     1      24.420   2.802  53.094  1.00  0.00     0.726 A 
HETATM    8  N7  UNL     1      25.711   2.449  53.242  1.00  0.00    -0.042 NA
HETATM    9  C19 UNL     1      26.110   1.172  53.355  1.00  0.00     0.182 A 
ENDROOT
BRANCH   7  10
HETATM   10  N5  UNL     1      24.046   4.185  52.976  1.00  0.00    -0.218 N 
HETATM   11  H13 UNL     1      23.911   4.721  53.882  1.00  0.00     0.178 HD
BRANCH  10  12
HETATM   12  C13 UNL     1      23.871   4.776  51.668  1.00  0.00     0.101 C 
HETATM   13  C14 UNL     1      24.234   3.852  50.551  1.00  0.00     0.026 C 
HETATM   14  C15 UNL     1      23.246   4.052  49.421  1.00  0.00     0.004 C 
HETATM   15  C16 UNL     1      21.894   3.470  49.782  1.00  0.00     0.035 C 
HETATM   16  C17 UNL     1      21.561   3.943  51.187  1.00  0.00     0.220 C 
HETATM   17  C18 UNL     1      22.392   5.128  51.559  1.00  0.00     0.060 C 
BRANCH  16  18
HETATM   18  N6  UNL     1      20.166   4.298  51.326  1.00  0.00     0.083 N 
HETATM   19  H22 UNL     1      20.128   5.248  51.769  1.00  0.00     0.313 HD
HETATM   20  H23 UNL     1      19.753   4.344  50.368  1.00  0.00     0.313 HD
ENDBRANCH  16  18
ENDBRANCH  10  12
ENDBRANCH   7  10
BRANCH   5  21
HETATM   21  N3  UNL     1      22.682  -0.358  53.133  1.00  0.00    -0.338 N 
HETATM   22  H7  UNL     1      22.813  -1.337  53.470  1.00  0.00     0.167 HD
BRANCH  21  23
HETATM   23  C6  UNL     1      21.329  -0.278  52.730  1.00  0.00     0.033 A 
HETATM   24  C7  UNL     1      20.887   0.304  51.537  1.00  0.00     0.029 A 
HETATM   25  C8  UNL     1      19.552   0.369  51.210  1.00  0.00     0.002 A 
HETATM   26  C9  UNL     1      18.581  -0.142  52.050  1.00  0.00     0.000 A 
HETATM   27  C10 UNL     1      19.006  -0.718  53.230  1.00  0.00     0.002 A 
HETATM   28  C11 UNL     1      20.335  -0.778  53.548  1.00  0.00     0.029 A 
ENDBRANCH  21  23
ENDBRANCH   5  21
BRANCH   1  29
HETATM   29  C2  UNL     1      28.541   1.250  53.576  1.00  0.00     0.127 C 
HETATM   30  C1  UNL     1      29.682   0.242  53.607  1.00  0.00     0.027 C 
ENDBRANCH   1  29
TORSDOF 6
ENDMDL
MODEL 8
REMARK VINA RESULT:      -7.7      1.869      7.043
REMARK  6 active torsions:
REMARK  status: ('A' for Active; 'I' for Inactive)
REMARK    1  A    between atoms: C2_2  and  N1_3 
REMARK    2  A    between atoms: C5_7  and  N3_8 
REMARK    3  A    between atoms: N3_8  and  C6_9 
REMARK    4  A    between atoms: C12_16  and  N5_17 
REMARK    5  A    between atoms: N5_17  and  C13_18 
REMARK    6  A    between atoms: C17_22  and  N6_23 
ROOT
HETATM    1  N1  UNL     1      25.941   5.448  49.105  1.00  0.00    -0.324 N 
HETATM    2  C3  UNL     1      27.105   4.815  48.880  1.00  0.00     0.212 A 
HETATM    3  N2  UNL     1      27.098   3.685  49.601  1.00  0.00    -0.236 NA
HETATM    4  C4  UNL     1      25.949   3.579  50.289  1.00  0.00     0.151 A 
HETATM    5  C5  UNL     1      25.516   2.592  51.142  1.00  0.00     0.180 A 
HETATM    6  N4  UNL     1      24.296   2.789  51.665  1.00  0.00    -0.043 NA
HETATM    7  C12 UNL     1      23.543   3.855  51.394  1.00  0.00     0.726 A 
HETATM    8  N7  UNL     1      24.018   4.792  50.552  1.00  0.00    -0.042 NA
HETATM    9  C19 UNL     1      25.223   4.704  49.966  1.00  0.00     0.182 A 
ENDROOT
BRANCH   7  10
HETATM   10  N5  UNL     1      22.244   3.996  51.994  1.00  0.00    -0.218 N 
HETATM   11  H13 UNL     1      22.184   4.608  52.859  1.00  0.00     0.178 HD
BRANCH  10  12
HETATM   12  C13 UNL     1      21.105   3.321  51.414  1.00  0.00     0.101 C 
HETATM   13  C14 UNL     1      21.471   2.405  50.292  1.00  0.00     0.026 C 
HETATM   14  C15 UNL     1      20.607   1.164  50.384  1.00  0.00     0.004 C 
HETATM   15  C16 UNL     1      21.037   0.296  51.549  1.00  0.00     0.035 C 
HETATM   16  C17 UNL     1      21.202   1.209  52.753  1.00  0.00     0.220 C 
HETATM   17  C18 UNL     1      20.483   2.502  52.541  1.00  0.00     0.060 C 
BRANCH  16  18
HETATM   18  N6  UNL     1      20.705   0.602  53.969  1.00  0.00     0.083 N 
HETATM   19  H22 UNL     1      19.805   1.084  54.213  1.00  0.00     0.313 HD
HETATM   20  H23 UNL     1      20.517  -0.405  53.767  1.00  0.00     0.313 HD
ENDBRANCH  16  18
ENDBRANCH  10  12
ENDBRANCH   7  10
BRANCH   5  21
HETATM   21  N3  UNL     1      26.210   1.431  51.534  1.00  0.00    -0.338 N 
HETATM   22  H7  UNL     1      25.998   0.522  51.067  1.00  0.00     0.167 HD
BRANCH  21  23
HETATM   23  C6  UNL     1      27.217   1.141  52.483  1.00  0.00     0.033 A 
HETATM   24  C7  UNL     1      28.000   2.100  53.133  1.00  0.00     0.029 A 
HETATM   25  C8  UNL     1      28.979   1.752  54.034  1.00  0.00     0.002 A 
HETATM   26  C9  UNL     1      29.237   0.430  54.340  1.00  0.00     0.000 A 
HETATM   27  C10 UNL     1      28.471  -0.527  53.705  1.00  0.00     0.002 A 
HETATM   28  C11 UNL     1      27.499  -0.172  52.810  1.00  0.00     0.029 A 
ENDBRANCH  21  23
ENDBRANCH   5  21
BRANCH   1  29
HETATM   29  C2  UNL     1      25.437   6.702  48.578  1.00  0.00     0.127 C 
HETATM   30  C1  UNL     1      26.532   7.359  47.748  1.00  0.00     0.027 C 
ENDBRANCH   1  29
TORSDOF 6
ENDMDL
MODEL 9
REMARK VINA RESULT:      -7.7      1.902      5.565
REMARK  6 active torsions:
REMARK  status: ('A' for Active; 'I' for Inactive)
REMARK    1  A    between atoms: C2_2  and  N1_3 
REMARK    2  A    between atoms: C5_7  and  N3_8 
REMARK    3  A    between atoms: N3_8  and  C6_9 
REMARK    4  A    between atoms: C12_16  and  N5_17 
REMARK    5  A    between atoms: N5_17  and  C13_18 
REMARK    6  A    between atoms: C17_22  and  N6_23 
ROOT
HETATM    1  N1  UNL     1      24.013   4.976  48.953  1.00  0.00    -0.324 N 
HETATM    2  C3  UNL     1      22.955   4.643  48.195  1.00  0.00     0.212 A 
HETATM    3  N2  UNL     1      22.477   3.478  48.655  1.00  0.00    -0.236 NA
HETATM    4  C4  UNL     1      23.210   3.052  49.698  1.00  0.00     0.151 A 
HETATM    5  C5  UNL     1      23.078   1.925  50.471  1.00  0.00     0.180 A 
HETATM    6  N4  UNL     1      23.983   1.801  51.454  1.00  0.00    -0.043 NA
HETATM    7  C12 UNL     1      24.948   2.692  51.681  1.00  0.00     0.726 A 
HETATM    8  N7  UNL     1      25.032   3.779  50.891  1.00  0.00    -0.042 NA
HETATM    9  C19 UNL     1      24.182   4.012  49.878  1.00  0.00     0.182 A 
ENDROOT
BRANCH   7  10
HETATM   10  N5  UNL     1      25.883   2.491  52.755  1.00  0.00    -0.218 N 
HETATM   11  H13 UNL     1      25.539   2.715  53.734  1.00  0.00     0.178 HD
BRANCH  10  12
HETATM   12  C13 UNL     1      27.216   2.008  52.470  1.00  0.00     0.101 C 
HETATM   13  C14 UNL     1      28.201   2.328  53.547  1.00  0.00     0.026 C 
HETATM   14  C15 UNL     1      29.135   1.146  53.709  1.00  0.00     0.004 C 
HETATM   15  C16 UNL     1      28.422  -0.014  54.374  1.00  0.00     0.035 C 
HETATM   16  C17 UNL     1      27.085  -0.181  53.673  1.00  0.00     0.220 C 
HETATM   17  C18 UNL     1      27.096   0.494  52.340  1.00  0.00     0.060 C 
BRANCH  16  18
HETATM   18  N6  UNL     1      26.742  -1.574  53.479  1.00  0.00     0.083 N 
HETATM   19  H22 UNL     1      25.700  -1.627  53.372  1.00  0.00     0.313 HD
HETATM   20  H23 UNL     1      27.200  -1.893  52.597  1.00  0.00     0.313 HD
ENDBRANCH  16  18
ENDBRANCH  10  12
ENDBRANCH   7  10
BRANCH   5  21
HETATM   21  N3  UNL     1      22.127   0.895  50.333  1.00  0.00    -0.338 N 
HETATM   22  H7  UNL     1      22.379   0.030  49.805  1.00  0.00     0.167 HD
BRANCH  21  23
HETATM   23  C6  UNL     1      20.794   0.700  50.761  1.00  0.00     0.033 A 
HETATM   24  C7  UNL     1      19.661   1.002  49.998  1.00  0.00     0.029 A 
HETATM   25  C8  UNL     1      18.387   0.807  50.480  1.00  0.00     0.002 A 
HETATM   26  C9  UNL     1      18.167   0.300  51.746  1.00  0.00     0.000 A 
HETATM   27  C10 UNL     1      19.278  -0.002  52.508  1.00  0.00     0.002 A 
HETATM   28  C11 UNL     1      20.541   0.196  52.022  1.00  0.00     0.029 A 
ENDBRANCH  21  23
ENDBRANCH   5  21
BRANCH   1  29
HETATM   29  C2  UNL     1      24.888   6.130  48.888  1.00  0.00     0.127 C 
HETATM   30  C1  UNL     1      24.350   7.094  47.839  1.00  0.00     0.027 C 
ENDBRANCH   1  29
TORSDOF 6
ENDMDL
