MODEL 1
REMARK VINA RESULT:      -7.5      0.000      0.000
REMARK  7 active torsions:
REMARK  status: ('A' for Active; 'I' for Inactive)
REMARK    1  A    between atoms: C3_4  and  C4_5 
REMARK    2  A    between atoms: C8_11  and  N4_12 
REMARK    3  A    between atoms: N4_12  and  C9_13 
REMARK    4  A    between atoms: C12_16  and  O1_17 
REMARK    5  A    between atoms: O1_17  and  C13_18 
REMARK    6  A    between atoms: C13_18  and  C14_19 
REMARK    7  A    between atoms: C15_21  and  C16_22 
ROOT
HETATM    1  N1  UNL     1      29.892   5.333  48.081  1.00  0.00    -0.182 NA
HETATM    2  C1  UNL     1      29.013   5.308  48.304  1.00  0.00     0.152 C 
HETATM    3  C2  UNL     1      27.551   5.281  48.701  1.00  0.00     0.015 C 
HETATM    4  C3  UNL     1      26.473   5.259  49.013  1.00  0.00    -0.067 C 
ENDROOT
BRANCH   4   5
HETATM    5  C4  UNL     1      25.051   5.238  49.452  1.00  0.00     0.107 A 
HETATM    6  C5  UNL     1      24.038   5.781  48.350  1.00  0.00     0.115 A 
HETATM    7  C6  UNL     1      22.936   5.441  48.984  1.00  0.00     0.142 A 
HETATM    8  S1  UNL     1      23.538   5.408  49.079  1.00  0.00    -0.155 SA
HETATM    9  N2  UNL     1      21.701   5.089  48.147  1.00  0.00    -0.255 NA
HETATM   10  C19 UNL     1      22.120   5.007  49.814  1.00  0.00     0.052 A 
HETATM   11  C7  UNL     1      20.599   4.585  48.646  1.00  0.00     0.231 A 
HETATM   12  N3  UNL     1      20.343   4.302  49.905  1.00  0.00    -0.224 NA
HETATM   13  C8  UNL     1      21.365   4.571  50.835  1.00  0.00     0.144 A 
BRANCH  13  14
HETATM   14  N4  UNL     1      21.760   4.490  52.180  1.00  0.00    -0.340 N 
HETATM   15  H3  UNL     1      21.500   5.090  52.994  1.00  0.00     0.167 HD
BRANCH  14  16
HETATM   16  C9  UNL     1      22.673   3.363  52.362  1.00  0.00     0.033 A 
HETATM   17  C10 UNL     1      21.987   2.198  52.181  1.00  0.00     0.032 A 
HETATM   18  C11 UNL     1      22.746   1.002  52.326  1.00  0.00     0.039 A 
HETATM   19  C12 UNL     1      24.086   1.032  52.626  1.00  0.00     0.069 A 
HETATM   20  C17 UNL     1      24.669   2.289  52.790  1.00  0.00     0.039 A 
HETATM   21  C18 UNL     1      24.008   3.488  52.670  1.00  0.00     0.032 A 
BRANCH  19  22
HETATM   22  O1  UNL     1      24.752  -0.153  52.739  1.00  0.00    -0.349 OA
BRANCH  22  23
HETATM   23  C13 UNL     1      25.608  -0.280  53.917  1.00  0.00     0.203 C 
BRANCH  23  24
HETATM   24  C14 UNL     1      26.995  -0.463  53.402  1.00  0.00     0.086 A 
HETATM   25 CL1  UNL     1      27.730   0.213  54.910  1.00  0.00    -0.198 Cl
HETATM   26  C15 UNL     1      28.268  -0.357  53.444  1.00  0.00     0.122 A 
BRANCH  26  27
HETATM   27  C16 UNL     1      29.779  -0.123  53.721  1.00  0.00     0.243 C 
HETATM   28  F1  UNL     1      30.391  -1.339  53.783  1.00  0.00    -0.254 F 
ENDBRANCH  26  27
ENDBRANCH  23  24
ENDBRANCH  22  23
ENDBRANCH  19  22
ENDBRANCH  14  16
ENDBRANCH  13  14
ENDBRANCH   4   5
TORSDOF 7
ENDMDL
MODEL 2
REMARK VINA RESULT:      -7.4      3.953      6.317
REMARK  7 active torsions:
REMARK  status: ('A' for Active; 'I' for Inactive)
REMARK    1  A    between atoms: C3_4  and  C4_5 
REMARK    2  A    between atoms: C8_11  and  N4_12 
REMARK    3  A    between atoms: N4_12  and  C9_13 
REMARK    4  A    between atoms: C12_16  and  O1_17 
REMARK    5  A    between atoms: O1_17  and  C13_18 
REMARK    6  A    between atoms: C13_18  and  C14_19 
REMARK    7  A    between atoms: C15_21  and  C16_22 
ROOT
HETATM    1  N1  UNL     1      28.995   2.477  54.138  1.00  0.00    -0.182 NA
HETATM    2  C1  UNL     1      28.182   2.168  53.879  1.00  0.00     0.152 C 
HETATM    3  C2  UNL     1      26.815   1.679  53.445  1.00  0.00     0.015 C 
HETATM    4  C3  UNL     1      25.795   1.331  53.133  1.00  0.00    -0.067 C 
ENDROOT
BRANCH   4   5
HETATM    5  C4  UNL     1      24.433   0.895  52.722  1.00  0.00     0.107 A 
HETATM    6  C5  UNL     1      23.817  -0.237  53.657  1.00  0.00     0.115 A 
HETATM    7  C6  UNL     1      22.609  -0.217  53.136  1.00  0.00     0.142 A 
HETATM    8  S1  UNL     1      23.141   0.069  53.049  1.00  0.00    -0.155 SA
HETATM    9  N2  UNL     1      21.426  -0.577  54.042  1.00  0.00    -0.255 NA
HETATM   10  C19 UNL     1      21.608   0.042  52.447  1.00  0.00     0.052 A 
HETATM   11  C7  UNL     1      20.170  -0.442  53.693  1.00  0.00     0.231 A 
HETATM   12  N3  UNL     1      19.698  -0.001  52.546  1.00  0.00    -0.224 NA
HETATM   13  C8  UNL     1      20.644   0.370  51.573  1.00  0.00     0.144 A 
BRANCH  13  14
HETATM   14  N4  UNL     1      20.838   0.906  50.290  1.00  0.00    -0.340 N 
HETATM   15  H3  UNL     1      20.483   0.578  49.363  1.00  0.00     0.167 HD
BRANCH  14  16
HETATM   16  C9  UNL     1      21.679   2.098  50.371  1.00  0.00     0.033 A 
HETATM   17  C10 UNL     1      22.726   1.967  49.506  1.00  0.00     0.032 A 
HETATM   18  C11 UNL     1      23.641   3.057  49.469  1.00  0.00     0.039 A 
HETATM   19  C12 UNL     1      23.469   4.168  50.258  1.00  0.00     0.069 A 
HETATM   20  C17 UNL     1      22.359   4.177  51.104  1.00  0.00     0.039 A 
HETATM   21  C18 UNL     1      21.431   3.167  51.200  1.00  0.00     0.032 A 
BRANCH  19  22
HETATM   22  O1  UNL     1      24.379   5.180  50.162  1.00  0.00    -0.349 OA
BRANCH  22  23
HETATM   23  C13 UNL     1      25.761   4.759  49.942  1.00  0.00     0.203 C 
BRANCH  23  24
HETATM   24  C14 UNL     1      26.425   5.883  49.222  1.00  0.00     0.086 A 
HETATM   25 CL1  UNL     1      27.725   4.806  48.573  1.00  0.00    -0.198 Cl
HETATM   26  C15 UNL     1      27.344   6.423  48.517  1.00  0.00     0.122 A 
BRANCH  26  27
HETATM   27  C16 UNL     1      28.564   6.850  47.653  1.00  0.00     0.243 C 
HETATM   28  F1  UNL     1      29.534   7.314  48.490  1.00  0.00    -0.254 F 
ENDBRANCH  26  27
ENDBRANCH  23  24
ENDBRANCH  22  23
ENDBRANCH  19  22
ENDBRANCH  14  16
ENDBRANCH  13  14
ENDBRANCH   4   5
TORSDOF 7
ENDMDL
MODEL 3
REMARK VINA RESULT:      -7.3      4.821      8.452
REMARK  7 active torsions:
REMARK  status: ('A' for Active; 'I' for Inactive)
REMARK    1  A    between atoms: C3_4  and  C4_5 
REMARK    2  A    between atoms: C8_11  and  N4_12 
REMARK    3  A    between atoms: N4_12  and  C9_13 
REMARK    4  A    between atoms: C12_16  and  O1_17 
REMARK    5  A    between atoms: O1_17  and  C13_18 
REMARK    6  A    between atoms: C13_18  and  C14_19 
REMARK    7  A    between atoms: C15_21  and  C16_22 
ROOT
HETATM    1  N1  UNL     1      17.353  -1.447  53.217  1.00  0.00    -0.182 NA
HETATM    2  C1  UNL     1      18.211  -1.150  53.231  1.00  0.00     0.152 C 
HETATM    3  C2  UNL     1      19.635  -0.631  53.240  1.00  0.00     0.015 C 
HETATM    4  C3  UNL     1      20.686  -0.239  53.230  1.00  0.00    -0.067 C 
ENDROOT
BRANCH   4   5
HETATM    5  C4  UNL     1      22.072   0.301  53.200  1.00  0.00     0.107 A 
HETATM    6  C5  UNL     1      23.169  -0.730  53.718  1.00  0.00     0.115 A 
HETATM    7  C6  UNL     1      24.218  -0.015  53.373  1.00  0.00     0.142 A 
HETATM    8  S1  UNL     1      23.611   0.037  53.348  1.00  0.00    -0.155 SA
HETATM    9  N2  UNL     1      25.506  -0.757  52.998  1.00  0.00    -0.255 NA
HETATM   10  C19 UNL     1      24.967   0.877  52.941  1.00  0.00     0.052 A 
HETATM   11  C7  UNL     1      26.563  -0.174  52.488  1.00  0.00     0.231 A 
HETATM   12  N3  UNL     1      26.724   1.104  52.219  1.00  0.00    -0.224 NA
HETATM   13  C8  UNL     1      25.642   1.954  52.510  1.00  0.00     0.144 A 
BRANCH  13  14
HETATM   14  N4  UNL     1      25.150   3.268  52.449  1.00  0.00    -0.340 N 
HETATM   15  H3  UNL     1      25.369   4.096  53.047  1.00  0.00     0.167 HD
BRANCH  14  16
HETATM   16  C9  UNL     1      24.192   3.390  51.352  1.00  0.00     0.033 A 
HETATM   17  C10 UNL     1      22.999   3.828  51.846  1.00  0.00     0.032 A 
HETATM   18  C11 UNL     1      21.956   3.998  50.892  1.00  0.00     0.039 A 
HETATM   19  C12 UNL     1      22.152   3.738  49.558  1.00  0.00     0.069 A 
HETATM   20  C17 UNL     1      23.419   3.289  49.181  1.00  0.00     0.039 A 
HETATM   21  C18 UNL     1      24.476   3.098  50.038  1.00  0.00     0.032 A 
BRANCH  19  22
HETATM   22  O1  UNL     1      21.111   3.934  48.698  1.00  0.00    -0.349 OA
BRANCH  22  23
HETATM   23  C13 UNL     1      20.526   2.718  48.137  1.00  0.00     0.203 C 
BRANCH  23  24
HETATM   24  C14 UNL     1      19.193   2.565  48.785  1.00  0.00     0.086 A 
HETATM   25 CL1  UNL     1      19.718   1.097  49.702  1.00  0.00    -0.198 Cl
HETATM   26  C15 UNL     1      18.323   1.981  49.518  1.00  0.00     0.122 A 
BRANCH  26  27
HETATM   27  C16 UNL     1      17.447   1.104  50.456  1.00  0.00     0.243 C 
HETATM   28  F1  UNL     1      17.616  -0.199  50.096  1.00  0.00    -0.254 F 
ENDBRANCH  26  27
ENDBRANCH  23  24
ENDBRANCH  22  23
ENDBRANCH  19  22
ENDBRANCH  14  16
ENDBRANCH  13  14
ENDBRANCH   4   5
TORSDOF 7
ENDMDL
MODEL 4
REMARK VINA RESULT:      -7.3      4.197      6.588
REMARK  7 active torsions:
REMARK  status: ('A' for Active; 'I' for Inactive)
REMARK    1  A    between atoms: C3_4  and  C4_5 
REMARK    2  A    between atoms: C8_11  and  N4_12 
REMARK    3  A    between atoms: N4_12  and  C9_13 
REMARK    4  A    between atoms: C12_16  and  O1_17 
REMARK    5  A    between atoms: O1_17  and  C13_18 
REMARK    6  A    between atoms: C13_18  and  C14_19 
REMARK    7  A    between atoms: C15_21  and  C16_22 
ROOT
HETATM    1  N1  UNL     1      27.219   5.109  48.682  1.00  0.00    -0.182 NA
HETATM    2  C1  UNL     1      26.864   4.460  49.208  1.00  0.00     0.152 C 
HETATM    3  C2  UNL     1      26.297   3.364  50.088  1.00  0.00     0.015 C 
HETATM    4  C3  UNL     1      25.890   2.541  50.732  1.00  0.00    -0.067 C 
ENDROOT
BRANCH   4   5
HETATM    5  C4  UNL     1      25.375   1.436  51.585  1.00  0.00     0.107 A 
HETATM    6  C5  UNL     1      26.457   0.857  52.600  1.00  0.00     0.115 A 
HETATM    7  C6  UNL     1      25.629   0.091  53.276  1.00  0.00     0.142 A 
HETATM    8  S1  UNL     1      25.601   0.473  52.802  1.00  0.00    -0.155 SA
HETATM    9  N2  UNL     1      25.934  -0.173  54.755  1.00  0.00    -0.255 NA
HETATM   10  C19 UNL     1      24.621  -0.506  53.693  1.00  0.00     0.052 A 
HETATM   11  C7  UNL     1      25.111  -0.782  55.574  1.00  0.00     0.231 A 
HETATM   12  N3  UNL     1      23.922  -1.274  55.300  1.00  0.00    -0.224 NA
HETATM   13  C8  UNL     1      23.470  -1.136  53.975  1.00  0.00     0.144 A 
BRANCH  13  14
HETATM   14  N4  UNL     1      22.409  -1.357  53.082  1.00  0.00    -0.340 N 
HETATM   15  H3  UNL     1      22.027  -2.251  52.700  1.00  0.00     0.167 HD
BRANCH  14  16
HETATM   16  C9  UNL     1      21.818  -0.080  52.687  1.00  0.00     0.033 A 
HETATM   17  C10 UNL     1      21.183   0.470  53.762  1.00  0.00     0.032 A 
HETATM   18  C11 UNL     1      20.553   1.726  53.535  1.00  0.00     0.039 A 
HETATM   19  C12 UNL     1      20.591   2.339  52.306  1.00  0.00     0.069 A 
HETATM   20  C17 UNL     1      21.270   1.669  51.287  1.00  0.00     0.039 A 
HETATM   21  C18 UNL     1      21.902   0.456  51.423  1.00  0.00     0.032 A 
BRANCH  19  22
HETATM   22  O1  UNL     1      19.975   3.548  52.164  1.00  0.00    -0.349 OA
BRANCH  22  23
HETATM   23  C13 UNL     1      20.361   4.312  50.979  1.00  0.00     0.203 C 
BRANCH  23  24
HETATM   24  C14 UNL     1      21.450   5.230  51.418  1.00  0.00     0.086 A 
HETATM   25 CL1  UNL     1      22.489   4.807  49.999  1.00  0.00    -0.198 Cl
HETATM   26  C15 UNL     1      22.608   5.767  51.350  1.00  0.00     0.122 A 
BRANCH  26  27
HETATM   27  C16 UNL     1      24.046   6.281  51.061  1.00  0.00     0.243 C 
HETATM   28  F1  UNL     1      24.102   7.599  51.402  1.00  0.00    -0.254 F 
ENDBRANCH  26  27
ENDBRANCH  23  24
ENDBRANCH  22  23
ENDBRANCH  19  22
ENDBRANCH  14  16
ENDBRANCH  13  14
ENDBRANCH   4   5
TORSDOF 7
ENDMDL
MODEL 5
REMARK VINA RESULT:      -7.2      2.533      4.878
REMARK  7 active torsions:
REMARK  status: ('A' for Active; 'I' for Inactive)
REMARK    1  A    between atoms: C3_4  and  C4_5 
REMARK    2  A    between atoms: C8_11  and  N4_12 
REMARK    3  A    between atoms: N4_12  and  C9_13 
REMARK    4  A    between atoms: C12_16  and  O1_17 
REMARK    5  A    between atoms: O1_17  and  C13_18 
REMARK    6  A    between atoms: C13_18  and  C14_19 
REMARK    7  A    between atoms: C15_21  and  C16_22 
ROOT
HETATM    1  N1  UNL     1      22.283  -2.018  55.339  1.00  0.00    -0.182 NA
HETATM    2  C1  UNL     1      22.282  -1.489  54.602  1.00  0.00     0.152 C 
HETATM    3  C2  UNL     1      22.306  -0.592  53.380  1.00  0.00     0.015 C 
HETATM    4  C3  UNL     1      22.331   0.085  52.487  1.00  0.00    -0.067 C 
ENDROOT
BRANCH   4   5
HETATM    5  C4  UNL     1      22.385   0.997  51.312  1.00  0.00     0.107 A 
HETATM    6  C5  UNL     1      21.246   0.717  50.235  1.00  0.00     0.115 A 
HETATM    7  C6  UNL     1      21.479   1.780  49.496  1.00  0.00     0.142 A 
HETATM    8  S1  UNL     1      21.707   1.525  50.000  1.00  0.00    -0.155 SA
HETATM    9  N2  UNL     1      20.301   2.403  48.737  1.00  0.00    -0.255 NA
HETATM   10  C19 UNL     1      21.941   2.835  49.031  1.00  0.00     0.052 A 
HETATM   11  C7  UNL     1      20.366   3.546  48.098  1.00  0.00     0.231 A 
HETATM   12  N3  UNL     1      21.407   4.342  47.979  1.00  0.00    -0.224 NA
HETATM   13  C8  UNL     1      22.596   3.927  48.606  1.00  0.00     0.144 A 
BRANCH  13  14
HETATM   14  N4  UNL     1      23.929   4.257  48.899  1.00  0.00    -0.340 N 
HETATM   15  H3  UNL     1      24.653   4.721  48.305  1.00  0.00     0.167 HD
BRANCH  14  16
HETATM   16  C9  UNL     1      24.254   3.847  50.263  1.00  0.00     0.033 A 
HETATM   17  C10 UNL     1      25.263   2.930  50.225  1.00  0.00     0.032 A 
HETATM   18  C11 UNL     1      25.696   2.431  51.486  1.00  0.00     0.039 A 
HETATM   19  C12 UNL     1      25.128   2.856  52.662  1.00  0.00     0.069 A 
HETATM   20  C17 UNL     1      24.100   3.794  52.564  1.00  0.00     0.039 A 
HETATM   21  C18 UNL     1      23.623   4.324  51.388  1.00  0.00     0.032 A 
BRANCH  19  22
HETATM   22  O1  UNL     1      25.601   2.343  53.835  1.00  0.00    -0.349 OA
BRANCH  22  23
HETATM   23  C13 UNL     1      25.746   0.889  53.868  1.00  0.00     0.203 C 
BRANCH  23  24
HETATM   24  C14 UNL     1      27.156   0.625  54.276  1.00  0.00     0.086 A 
HETATM   25 CL1  UNL     1      27.467  -0.409  52.825  1.00  0.00    -0.198 Cl
HETATM   26  C15 UNL     1      28.306   0.078  54.175  1.00  0.00     0.122 A 
BRANCH  26  27
HETATM   27  C16 UNL     1      29.613  -0.695  53.844  1.00  0.00     0.243 C 
HETATM   28  F1  UNL     1      29.281  -1.791  53.106  1.00  0.00    -0.254 F 
ENDBRANCH  26  27
ENDBRANCH  23  24
ENDBRANCH  22  23
ENDBRANCH  19  22
ENDBRANCH  14  16
ENDBRANCH  13  14
ENDBRANCH   4   5
TORSDOF 7
ENDMDL
MODEL 6
REMARK VINA RESULT:      -7.1      2.910      4.784
REMARK  7 active torsions:
REMARK  status: ('A' for Active; 'I' for Inactive)
REMARK    1  A    between atoms: C3_4  and  C4_5 
REMARK    2  A    between atoms: C8_11  and  N4_12 
REMARK    3  A    between atoms: N4_12  and  C9_13 
REMARK    4  A    between atoms: C12_16  and  O1_17 
REMARK    5  A    between atoms: O1_17  and  C13_18 
REMARK    6  A    between atoms: C13_18  and  C14_19 
REMARK    7  A    between atoms: C15_21  and  C16_22 
ROOT
HETATM    1  N1  UNL     1      25.445  -1.083  54.966  1.00  0.00    -0.182 NA
HETATM    2  C1  UNL     1      24.891  -0.627  54.410  1.00  0.00     0.152 C 
HETATM    3  C2  UNL     1      23.956   0.151  53.505  1.00  0.00     0.015 C 
HETATM    4  C3  UNL     1      23.253   0.728  52.849  1.00  0.00    -0.067 C 
ENDROOT
BRANCH   4   5
HETATM    5  C4  UNL     1      22.308   1.505  52.001  1.00  0.00     0.107 A 
HETATM    6  C5  UNL     1      20.776   1.222  52.330  1.00  0.00     0.115 A 
HETATM    7  C6  UNL     1      20.284   2.176  51.570  1.00  0.00     0.142 A 
HETATM    8  S1  UNL     1      20.834   1.954  51.714  1.00  0.00    -0.155 SA
HETATM    9  N2  UNL     1      18.960   2.824  51.992  1.00  0.00    -0.255 NA
HETATM   10  C19 UNL     1      20.150   3.131  50.786  1.00  0.00     0.052 A 
HETATM   11  C7  UNL     1      18.449   3.884  51.415  1.00  0.00     0.231 A 
HETATM   12  N3  UNL     1      18.942   4.564  50.402  1.00  0.00    -0.224 NA
HETATM   13  C8  UNL     1      20.160   4.107  49.866  1.00  0.00     0.144 A 
BRANCH  13  14
HETATM   14  N4  UNL     1      21.171   4.341  48.920  1.00  0.00    -0.340 N 
HETATM   15  H3  UNL     1      21.100   4.565  47.902  1.00  0.00     0.167 HD
BRANCH  14  16
HETATM   16  C9  UNL     1      22.482   4.229  49.555  1.00  0.00     0.033 A 
HETATM   17  C10 UNL     1      23.202   3.257  48.925  1.00  0.00     0.032 A 
HETATM   18  C11 UNL     1      24.512   3.027  49.433  1.00  0.00     0.039 A 
HETATM   19  C12 UNL     1      25.011   3.748  50.491  1.00  0.00     0.069 A 
HETATM   20  C17 UNL     1      24.170   4.711  51.051  1.00  0.00     0.039 A 
HETATM   21  C18 UNL     1      22.895   4.993  50.622  1.00  0.00     0.032 A 
BRANCH  19  22
HETATM   22  O1  UNL     1      26.278   3.482  50.918  1.00  0.00    -0.349 OA
BRANCH  22  23
HETATM   23  C13 UNL     1      26.562   2.077  51.201  1.00  0.00     0.203 C 
BRANCH  23  24
HETATM   24  C14 UNL     1      27.349   2.061  52.467  1.00  0.00     0.086 A 
HETATM   25 CL1  UNL     1      27.529   0.262  52.427  1.00  0.00    -0.198 Cl
HETATM   26  C15 UNL     1      27.962   1.506  53.441  1.00  0.00     0.122 A 
BRANCH  26  27
HETATM   27  C16 UNL     1      28.652   0.614  54.511  1.00  0.00     0.243 C 
HETATM   28  F1  UNL     1      29.820   0.149  53.985  1.00  0.00    -0.254 F 
ENDBRANCH  26  27
ENDBRANCH  23  24
ENDBRANCH  22  23
ENDBRANCH  19  22
ENDBRANCH  14  16
ENDBRANCH  13  14
ENDBRANCH   4   5
TORSDOF 7
ENDMDL
MODEL 7
REMARK VINA RESULT:      -6.9      5.207      8.474
REMARK  7 active torsions:
REMARK  status: ('A' for Active; 'I' for Inactive)
REMARK    1  A    between atoms: C3_4  and  C4_5 
REMARK    2  A    between atoms: C8_11  and  N4_12 
REMARK    3  A    between atoms: N4_12  and  C9_13 
REMARK    4  A    between atoms: C12_16  and  O1_17 
REMARK    5  A    between atoms: O1_17  and  C13_18 
REMARK    6  A    between atoms: C13_18  and  C14_19 
REMARK    7  A    between atoms: C15_21  and  C16_22 
ROOT
HETATM    1  N1  UNL     1      16.638  -0.119  50.235  1.00  0.00    -0.182 NA
HETATM    2  C1  UNL     1      17.447  -0.074  50.644  1.00  0.00     0.152 C 
HETATM    3  C2  UNL     1      18.800  -0.029  51.326  1.00  0.00     0.015 C 
HETATM    4  C3  UNL     1      19.797  -0.011  51.840  1.00  0.00    -0.067 C 
ENDROOT
BRANCH   4   5
HETATM    5  C4  UNL     1      21.119  -0.015  52.524  1.00  0.00     0.107 A 
HETATM    6  C5  UNL     1      21.017  -0.159  54.106  1.00  0.00     0.115 A 
HETATM    7  C6  UNL     1      22.305  -0.318  54.323  1.00  0.00     0.142 A 
HETATM    8  S1  UNL     1      21.937  -0.227  53.845  1.00  0.00    -0.155 SA
HETATM    9  N2  UNL     1      22.736  -1.163  55.527  1.00  0.00    -0.255 NA
HETATM   10  C19 UNL     1      23.535  -0.434  54.188  1.00  0.00     0.052 A 
HETATM   11  C7  UNL     1      23.974  -1.527  55.758  1.00  0.00     0.231 A 
HETATM   12  N3  UNL     1      25.042  -1.244  55.044  1.00  0.00    -0.224 NA
HETATM   13  C8  UNL     1      24.844  -0.458  53.894  1.00  0.00     0.144 A 
BRANCH  13  14
HETATM   14  N4  UNL     1      25.450   0.125  52.769  1.00  0.00    -0.340 N 
HETATM   15  H3  UNL     1      26.195  -0.247  52.138  1.00  0.00     0.167 HD
BRANCH  14  16
HETATM   16  C9  UNL     1      24.881   1.450  52.530  1.00  0.00     0.033 A 
HETATM   17  C10 UNL     1      24.373   1.496  51.265  1.00  0.00     0.032 A 
HETATM   18  C11 UNL     1      23.779   2.732  50.879  1.00  0.00     0.039 A 
HETATM   19  C12 UNL     1      23.725   3.803  51.737  1.00  0.00     0.069 A 
HETATM   20  C17 UNL     1      24.286   3.627  53.003  1.00  0.00     0.039 A 
HETATM   21  C18 UNL     1      24.878   2.470  53.452  1.00  0.00     0.032 A 
BRANCH  19  22
HETATM   22  O1  UNL     1      23.131   4.952  51.305  1.00  0.00    -0.349 OA
BRANCH  22  23
HETATM   23  C13 UNL     1      21.862   5.282  51.949  1.00  0.00     0.203 C 
BRANCH  23  24
HETATM   24  C14 UNL     1      20.802   5.010  50.936  1.00  0.00     0.086 A 
HETATM   25 CL1  UNL     1      20.121   3.639  51.899  1.00  0.00    -0.198 Cl
HETATM   26  C15 UNL     1      19.821   4.364  50.433  1.00  0.00     0.122 A 
BRANCH  26  27
HETATM   27  C16 UNL     1      18.646   3.431  50.026  1.00  0.00     0.243 C 
HETATM   28  F1  UNL     1      17.633   3.611  50.920  1.00  0.00    -0.254 F 
ENDBRANCH  26  27
ENDBRANCH  23  24
ENDBRANCH  22  23
ENDBRANCH  19  22
ENDBRANCH  14  16
ENDBRANCH  13  14
ENDBRANCH   4   5
TORSDOF 7
ENDMDL
MODEL 8
REMARK VINA RESULT:      -6.8      5.097      8.721
REMARK  7 active torsions:
REMARK  status: ('A' for Active; 'I' for Inactive)
REMARK    1  A    between atoms: C3_4  and  C4_5 
REMARK    2  A    between atoms: C8_11  and  N4_12 
REMARK    3  A    between atoms: N4_12  and  C9_13 
REMARK    4  A    between atoms: C12_16  and  O1_17 
REMARK    5  A    between atoms: O1_17  and  C13_18 
REMARK    6  A    between atoms: C13_18  and  C14_19 
REMARK    7  A    between atoms: C15_21  and  C16_22 
ROOT
HETATM    1  N1  UNL     1      17.312  -1.282  53.195  1.00  0.00    -0.182 NA
HETATM    2  C1  UNL     1      18.177  -1.010  53.182  1.00  0.00     0.152 C 
HETATM    3  C2  UNL     1      19.624  -0.556  53.189  1.00  0.00     0.015 C 
HETATM    4  C3  UNL     1      20.690  -0.211  53.211  1.00  0.00    -0.067 C 
ENDROOT
BRANCH   4   5
HETATM    5  C4  UNL     1      22.104   0.251  53.266  1.00  0.00     0.107 A 
HETATM    6  C5  UNL     1      23.119  -0.866  53.774  1.00  0.00     0.115 A 
HETATM    7  C6  UNL     1      24.220  -0.195  53.511  1.00  0.00     0.142 A 
HETATM    8  S1  UNL     1      23.618  -0.108  53.463  1.00  0.00    -0.155 SA
HETATM    9  N2  UNL     1      25.480  -0.990  53.150  1.00  0.00    -0.255 NA
HETATM   10  C19 UNL     1      25.035   0.673  53.157  1.00  0.00     0.052 A 
HETATM   11  C7  UNL     1      26.589  -0.442  52.715  1.00  0.00     0.231 A 
HETATM   12  N3  UNL     1      26.832   0.836  52.520  1.00  0.00    -0.224 NA
HETATM   13  C8  UNL     1      25.786   1.730  52.811  1.00  0.00     0.144 A 
BRANCH  13  14
HETATM   14  N4  UNL     1      25.369   3.071  52.800  1.00  0.00    -0.340 N 
HETATM   15  H3  UNL     1      25.733   3.893  53.333  1.00  0.00     0.167 HD
BRANCH  14  16
HETATM   16  C9  UNL     1      24.254   3.237  51.871  1.00  0.00     0.033 A 
HETATM   17  C10 UNL     1      24.692   3.009  50.600  1.00  0.00     0.032 A 
HETATM   18  C11 UNL     1      23.714   3.133  49.573  1.00  0.00     0.039 A 
HETATM   19  C12 UNL     1      22.410   3.459  49.857  1.00  0.00     0.069 A 
HETATM   20  C17 UNL     1      22.091   3.672  51.199  1.00  0.00     0.039 A 
HETATM   21  C18 UNL     1      22.975   3.575  52.247  1.00  0.00     0.032 A 
BRANCH  19  22
HETATM   22  O1  UNL     1      21.523   3.549  48.825  1.00  0.00    -0.349 OA
BRANCH  22  23
HETATM   23  C13 UNL     1      22.096   3.379  47.491  1.00  0.00     0.203 C 
BRANCH  23  24
HETATM   24  C14 UNL     1      22.083   4.729  46.861  1.00  0.00     0.086 A 
HETATM   25 CL1  UNL     1      21.941   4.039  45.195  1.00  0.00    -0.198 Cl
HETATM   26  C15 UNL     1      22.076   5.548  45.879  1.00  0.00     0.122 A 
BRANCH  26  27
HETATM   27  C16 UNL     1      22.060   6.337  44.540  1.00  0.00     0.243 C 
HETATM   28  F1  UNL     1      23.330   6.755  44.279  1.00  0.00    -0.254 F 
ENDBRANCH  26  27
ENDBRANCH  23  24
ENDBRANCH  22  23
ENDBRANCH  19  22
ENDBRANCH  14  16
ENDBRANCH  13  14
ENDBRANCH   4   5
TORSDOF 7
ENDMDL
MODEL 9
REMARK VINA RESULT:      -6.7      4.808      7.472
REMARK  7 active torsions:
REMARK  status: ('A' for Active; 'I' for Inactive)
REMARK    1  A    between atoms: C3_4  and  C4_5 
REMARK    2  A    between atoms: C8_11  and  N4_12 
REMARK    3  A    between atoms: N4_12  and  C9_13 
REMARK    4  A    between atoms: C12_16  and  O1_17 
REMARK    5  A    between atoms: O1_17  and  C13_18 
REMARK    6  A    between atoms: C13_18  and  C14_19 
REMARK    7  A    between atoms: C15_21  and  C16_22 
ROOT
HETATM    1  N1  UNL     1      28.671   0.069  54.981  1.00  0.00    -0.182 NA
HETATM    2  C1  UNL     1      27.840   0.095  54.617  1.00  0.00     0.152 C 
HETATM    3  C2  UNL     1      26.444   0.115  54.027  1.00  0.00     0.015 C 
HETATM    4  C3  UNL     1      25.410   0.111  53.593  1.00  0.00    -0.067 C 
ENDROOT
BRANCH   4   5
HETATM    5  C4  UNL     1      24.032   0.084  53.030  1.00  0.00     0.107 A 
HETATM    6  C5  UNL     1      23.126  -1.083  53.623  1.00  0.00     0.115 A 
HETATM    7  C6  UNL     1      21.998  -0.685  53.075  1.00  0.00     0.142 A 
HETATM    8  S1  UNL     1      22.580  -0.506  53.085  1.00  0.00    -0.155 SA
HETATM    9  N2  UNL     1      20.690  -0.994  53.812  1.00  0.00    -0.255 NA
HETATM   10  C19 UNL     1      21.134  -0.064  52.434  1.00  0.00     0.052 A 
HETATM   11  C7  UNL     1      19.521  -0.518  53.458  1.00  0.00     0.231 A 
HETATM   12  N3  UNL     1      19.250   0.274  52.442  1.00  0.00    -0.224 NA
HETATM   13  C8  UNL     1      20.335   0.660  51.634  1.00  0.00     0.144 A 
BRANCH  13  14
HETATM   14  N4  UNL     1      20.747   1.433  50.536  1.00  0.00    -0.340 N 
HETATM   15  H3  UNL     1      20.627   1.265  49.512  1.00  0.00     0.167 HD
BRANCH  14  16
HETATM   16  C9  UNL     1      21.439   2.632  51.005  1.00  0.00     0.033 A 
HETATM   17  C10 UNL     1      22.691   2.664  50.466  1.00  0.00     0.032 A 
HETATM   18  C11 UNL     1      23.496   3.781  50.831  1.00  0.00     0.039 A 
HETATM   19  C12 UNL     1      23.027   4.762  51.672  1.00  0.00     0.069 A 
HETATM   20  C17 UNL     1      21.729   4.608  52.159  1.00  0.00     0.039 A 
HETATM   21  C18 UNL     1      20.890   3.561  51.858  1.00  0.00     0.032 A 
BRANCH  19  22
HETATM   22  O1  UNL     1      23.849   5.809  51.969  1.00  0.00    -0.349 OA
BRANCH  22  23
HETATM   23  C13 UNL     1      24.543   6.404  50.828  1.00  0.00     0.203 C 
BRANCH  23  24
HETATM   24  C14 UNL     1      23.788   7.643  50.488  1.00  0.00     0.086 A 
HETATM   25 CL1  UNL     1      23.488   7.090  48.792  1.00  0.00    -0.198 Cl
HETATM   26  C15 UNL     1      23.163   8.439  49.707  1.00  0.00     0.122 A 
BRANCH  26  27
HETATM   27  C16 UNL     1      22.442   9.233  48.581  1.00  0.00     0.243 C 
HETATM   28  F1  UNL     1      23.254   9.247  47.487  1.00  0.00    -0.254 F 
ENDBRANCH  26  27
ENDBRANCH  23  24
ENDBRANCH  22  23
ENDBRANCH  19  22
ENDBRANCH  14  16
ENDBRANCH  13  14
ENDBRANCH   4   5
TORSDOF 7
ENDMDL
