MODEL 1
REMARK VINA RESULT:      -8.3      0.000      0.000
REMARK  4 active torsions:
REMARK  status: ('A' for Active; 'I' for Inactive)
REMARK    1  A    between atoms: O1_2  and  C2_3 
REMARK    2  A    between atoms: C6_9  and  N3_10 
REMARK    3  A    between atoms: N3_10  and  C7_11 
REMARK    4  A    between atoms: C15_21  and  O2_22 
ROOT
HETATM    1  C2  UNL     1      19.553  -0.037  52.342  1.00  0.00     0.104 A 
HETATM    2  C3  UNL     1      19.942  -0.678  53.499  1.00  0.00     0.072 A 
HETATM    3  C4  UNL     1      21.268  -0.747  53.858  1.00  0.00     0.075 A 
HETATM    4  N1  UNL     1      21.517  -1.398  55.005  1.00  0.00    -0.241 NA
HETATM    5  C5  UNL     1      22.805  -1.480  55.380  1.00  0.00     0.236 A 
HETATM    6  N2  UNL     1      23.791  -0.947  54.657  1.00  0.00    -0.224 NA
HETATM    7  C6  UNL     1      23.591  -0.300  53.527  1.00  0.00     0.142 A 
HETATM    8  C13 UNL     1      22.285  -0.195  53.109  1.00  0.00     0.042 A 
HETATM    9  C14 UNL     1      21.858   0.429  51.975  1.00  0.00     0.058 A 
HETATM   10  C15 UNL     1      20.545   0.527  51.568  1.00  0.00     0.116 A 
ENDROOT
BRANCH   7  11
HETATM   11  N3  UNL     1      24.602   0.285  52.723  1.00  0.00    -0.340 N 
HETATM   12  H6  UNL     1      24.424   0.642  51.779  1.00  0.00     0.167 HD
BRANCH  11  13
HETATM   13  C7  UNL     1      25.972   0.488  53.027  1.00  0.00     0.035 A 
HETATM   14  C8  UNL     1      26.555   1.696  53.349  1.00  0.00     0.032 A 
HETATM   15  C9  UNL     1      27.886   1.873  53.633  1.00  0.00     0.046 A 
HETATM   16  C10 UNL     1      28.743   0.798  53.609  1.00  0.00     0.138 A 
HETATM   17  F1  UNL     1      30.032   1.054  53.899  1.00  0.00    -0.204 F 
HETATM   18  C11 UNL     1      28.220  -0.437  53.294  1.00  0.00     0.074 A 
HETATM   19 CL1  UNL     1      29.355  -1.756  53.279  1.00  0.00    -0.081 Cl
HETATM   20  C12 UNL     1      26.875  -0.548  53.018  1.00  0.00     0.056 A 
ENDBRANCH  11  13
ENDBRANCH   7  11
BRANCH  10  21
HETATM   21  O2  UNL     1      20.190   1.180  50.396  1.00  0.00    -0.276 OA
HETATM   22  I1  UNL     1      21.505   1.480  48.859  1.00  0.00     0.116 I 
ENDBRANCH  10  21
BRANCH   1  23
HETATM   23  O1  UNL     1      18.243   0.069  51.922  1.00  0.00    -0.353 OA
HETATM   24  C1  UNL     1      17.175  -0.687  52.417  1.00  0.00     0.210 C 
ENDBRANCH   1  23
TORSDOF 4
ENDMDL
MODEL 2
REMARK VINA RESULT:      -8.1      2.869      3.916
REMARK  4 active torsions:
REMARK  status: ('A' for Active; 'I' for Inactive)
REMARK    1  A    between atoms: O1_2  and  C2_3 
REMARK    2  A    between atoms: C6_9  and  N3_10 
REMARK    3  A    between atoms: N3_10  and  C7_11 
REMARK    4  A    between atoms: C15_21  and  O2_22 
ROOT
HETATM    1  C2  UNL     1      21.485   1.529  51.532  1.00  0.00     0.104 A 
HETATM    2  C3  UNL     1      22.127   2.123  50.467  1.00  0.00     0.072 A 
HETATM    3  C4  UNL     1      23.449   2.491  50.554  1.00  0.00     0.075 A 
HETATM    4  N1  UNL     1      23.959   3.061  49.451  1.00  0.00    -0.241 NA
HETATM    5  C5  UNL     1      25.250   3.430  49.509  1.00  0.00     0.236 A 
HETATM    6  N2  UNL     1      25.994   3.245  50.600  1.00  0.00    -0.224 NA
HETATM    7  C6  UNL     1      25.535   2.690  51.703  1.00  0.00     0.142 A 
HETATM    8  C13 UNL     1      24.216   2.298  51.684  1.00  0.00     0.042 A 
HETATM    9  C14 UNL     1      23.544   1.708  52.712  1.00  0.00     0.058 A 
HETATM   10  C15 UNL     1      22.222   1.321  52.678  1.00  0.00     0.116 A 
ENDROOT
BRANCH   7  11
HETATM   11  N3  UNL     1      26.282   2.470  52.887  1.00  0.00    -0.340 N 
HETATM   12  H6  UNL     1      26.180   3.051  53.726  1.00  0.00     0.167 HD
BRANCH  11  13
HETATM   13  C7  UNL     1      27.258   1.475  53.149  1.00  0.00     0.035 A 
HETATM   14  C8  UNL     1      28.504   1.694  53.698  1.00  0.00     0.032 A 
HETATM   15  C9  UNL     1      29.438   0.717  53.938  1.00  0.00     0.046 A 
HETATM   16  C10 UNL     1      29.159  -0.592  53.625  1.00  0.00     0.138 A 
HETATM   17  F1  UNL     1      30.126  -1.490  53.891  1.00  0.00    -0.204 F 
HETATM   18  C11 UNL     1      27.929  -0.875  53.074  1.00  0.00     0.074 A 
HETATM   19 CL1  UNL     1      27.637  -2.550  52.701  1.00  0.00    -0.081 Cl
HETATM   20  C12 UNL     1      27.035   0.150  52.858  1.00  0.00     0.056 A 
ENDBRANCH  11  13
ENDBRANCH   7  11
BRANCH  10  21
HETATM   21  O2  UNL     1      21.607   0.724  53.771  1.00  0.00    -0.276 OA
HETATM   22  I1  UNL     1      22.007  -1.197  54.347  1.00  0.00     0.116 I 
ENDBRANCH  10  21
BRANCH   1  23
HETATM   23  O1  UNL     1      20.162   1.135  51.514  1.00  0.00    -0.353 OA
HETATM   24  C1  UNL     1      19.249   1.428  50.494  1.00  0.00     0.210 C 
ENDBRANCH   1  23
TORSDOF 4
ENDMDL
MODEL 3
REMARK VINA RESULT:      -7.8      2.204      2.726
REMARK  4 active torsions:
REMARK  status: ('A' for Active; 'I' for Inactive)
REMARK    1  A    between atoms: O1_2  and  C2_3 
REMARK    2  A    between atoms: C6_9  and  N3_10 
REMARK    3  A    between atoms: N3_10  and  C7_11 
REMARK    4  A    between atoms: C15_21  and  O2_22 
ROOT
HETATM    1  C2  UNL     1      21.895   1.691  50.110  1.00  0.00     0.104 A 
HETATM    2  C3  UNL     1      21.546   0.691  50.992  1.00  0.00     0.072 A 
HETATM    3  C4  UNL     1      22.365   0.359  52.045  1.00  0.00     0.075 A 
HETATM    4  N1  UNL     1      21.914  -0.632  52.831  1.00  0.00    -0.241 NA
HETATM    5  C5  UNL     1      22.696  -0.976  53.869  1.00  0.00     0.236 A 
HETATM    6  N2  UNL     1      23.859  -0.372  54.113  1.00  0.00    -0.224 NA
HETATM    7  C6  UNL     1      24.339   0.603  53.369  1.00  0.00     0.142 A 
HETATM    8  C13 UNL     1      23.568   0.985  52.296  1.00  0.00     0.042 A 
HETATM    9  C14 UNL     1      23.875   1.967  51.402  1.00  0.00     0.058 A 
HETATM   10  C15 UNL     1      23.092   2.339  50.331  1.00  0.00     0.116 A 
ENDROOT
BRANCH   7  11
HETATM   11  N3  UNL     1      25.567   1.277  53.586  1.00  0.00    -0.340 N 
HETATM   12  H6  UNL     1      25.625   2.287  53.753  1.00  0.00     0.167 HD
BRANCH  11  13
HETATM   13  C7  UNL     1      26.880   0.744  53.617  1.00  0.00     0.035 A 
HETATM   14  C8  UNL     1      28.029   1.449  53.906  1.00  0.00     0.032 A 
HETATM   15  C9  UNL     1      29.294   0.914  53.924  1.00  0.00     0.046 A 
HETATM   16  C10 UNL     1      29.481  -0.418  53.639  1.00  0.00     0.138 A 
HETATM   17  F1  UNL     1      30.750  -0.864  53.677  1.00  0.00    -0.204 F 
HETATM   18  C11 UNL     1      28.371  -1.176  53.341  1.00  0.00     0.074 A 
HETATM   19 CL1  UNL     1      28.674  -2.853  52.988  1.00  0.00    -0.081 Cl
HETATM   20  C12 UNL     1      27.129  -0.580  53.339  1.00  0.00     0.056 A 
ENDBRANCH  11  13
ENDBRANCH   7  11
BRANCH  10  21
HETATM   21  O2  UNL     1      23.475   3.352  49.462  1.00  0.00    -0.276 OA
HETATM   22  I1  UNL     1      25.272   4.317  49.618  1.00  0.00     0.116 I 
ENDBRANCH  10  21
BRANCH   1  23
HETATM   23  O1  UNL     1      21.122   2.076  49.033  1.00  0.00    -0.353 OA
HETATM   24  C1  UNL     1      19.957   2.846  49.113  1.00  0.00     0.210 C 
ENDBRANCH   1  23
TORSDOF 4
ENDMDL
MODEL 4
REMARK VINA RESULT:      -7.7      4.411      6.979
REMARK  4 active torsions:
REMARK  status: ('A' for Active; 'I' for Inactive)
REMARK    1  A    between atoms: O1_2  and  C2_3 
REMARK    2  A    between atoms: C6_9  and  N3_10 
REMARK    3  A    between atoms: N3_10  and  C7_11 
REMARK    4  A    between atoms: C15_21  and  O2_22 
ROOT
HETATM    1  C2  UNL     1      27.358   0.612  53.608  1.00  0.00     0.104 A 
HETATM    2  C3  UNL     1      26.751  -0.084  54.631  1.00  0.00     0.072 A 
HETATM    3  C4  UNL     1      25.421  -0.427  54.561  1.00  0.00     0.075 A 
HETATM    4  N1  UNL     1      24.947  -1.101  55.621  1.00  0.00    -0.241 NA
HETATM    5  C5  UNL     1      23.649  -1.449  55.579  1.00  0.00     0.236 A 
HETATM    6  N2  UNL     1      22.865  -1.144  54.544  1.00  0.00    -0.224 NA
HETATM    7  C6  UNL     1      23.288  -0.484  53.485  1.00  0.00     0.142 A 
HETATM    8  C13 UNL     1      24.612  -0.110  53.490  1.00  0.00     0.042 A 
HETATM    9  C14 UNL     1      25.251   0.576  52.502  1.00  0.00     0.058 A 
HETATM   10  C15 UNL     1      26.579   0.945  52.520  1.00  0.00     0.116 A 
ENDROOT
BRANCH   7  11
HETATM   11  N3  UNL     1      22.498  -0.137  52.361  1.00  0.00    -0.340 N 
HETATM   12  H6  UNL     1      22.517  -0.666  51.483  1.00  0.00     0.167 HD
BRANCH  11  13
HETATM   13  C7  UNL     1      21.581   0.935  52.217  1.00  0.00     0.035 A 
HETATM   14  C8  UNL     1      20.210   0.815  52.122  1.00  0.00     0.032 A 
HETATM   15  C9  UNL     1      19.339   1.865  51.976  1.00  0.00     0.046 A 
HETATM   16  C10 UNL     1      19.819   3.153  51.913  1.00  0.00     0.138 A 
HETATM   17  F1  UNL     1      18.901   4.126  51.769  1.00  0.00    -0.204 F 
HETATM   18  C11 UNL     1      21.181   3.338  52.002  1.00  0.00     0.074 A 
HETATM   19 CL1  UNL     1      21.725   4.989  51.916  1.00  0.00    -0.081 Cl
HETATM   20  C12 UNL     1      22.002   2.241  52.148  1.00  0.00     0.056 A 
ENDBRANCH  11  13
ENDBRANCH   7  11
BRANCH  10  21
HETATM   21  O2  UNL     1      27.158   1.645  51.471  1.00  0.00    -0.276 OA
HETATM   22  I1  UNL     1      26.154   3.083  50.419  1.00  0.00     0.116 I 
ENDBRANCH  10  21
BRANCH   1  23
HETATM   23  O1  UNL     1      28.686   0.988  53.611  1.00  0.00    -0.353 OA
HETATM   24  C1  UNL     1      29.772   0.106  53.558  1.00  0.00     0.210 C 
ENDBRANCH   1  23
TORSDOF 4
ENDMDL
MODEL 5
REMARK VINA RESULT:      -7.7      4.783      5.908
REMARK  4 active torsions:
REMARK  status: ('A' for Active; 'I' for Inactive)
REMARK    1  A    between atoms: O1_2  and  C2_3 
REMARK    2  A    between atoms: C6_9  and  N3_10 
REMARK    3  A    between atoms: N3_10  and  C7_11 
REMARK    4  A    between atoms: C15_21  and  O2_22 
ROOT
HETATM    1  C2  UNL     1      23.161   0.623  53.031  1.00  0.00     0.104 A 
HETATM    2  C3  UNL     1      24.394   0.728  53.638  1.00  0.00     0.072 A 
HETATM    3  C4  UNL     1      25.443   1.353  53.006  1.00  0.00     0.075 A 
HETATM    4  N1  UNL     1      26.591   1.389  53.702  1.00  0.00    -0.241 NA
HETATM    5  C5  UNL     1      27.633   1.995  53.107  1.00  0.00     0.236 A 
HETATM    6  N2  UNL     1      27.542   2.533  51.891  1.00  0.00    -0.224 NA
HETATM    7  C6  UNL     1      26.437   2.521  51.174  1.00  0.00     0.142 A 
HETATM    8  C13 UNL     1      25.346   1.910  51.748  1.00  0.00     0.042 A 
HETATM    9  C14 UNL     1      24.112   1.785  51.184  1.00  0.00     0.058 A 
HETATM   10  C15 UNL     1      23.028   1.170  51.771  1.00  0.00     0.116 A 
ENDROOT
BRANCH   7  11
HETATM   11  N3  UNL     1      26.288   3.080  49.880  1.00  0.00    -0.340 N 
HETATM   12  H6  UNL     1      25.967   2.535  49.073  1.00  0.00     0.167 HD
BRANCH  11  13
HETATM   13  C7  UNL     1      26.530   4.410  49.454  1.00  0.00     0.035 A 
HETATM   14  C8  UNL     1      27.579   4.823  48.659  1.00  0.00     0.032 A 
HETATM   15  C9  UNL     1      27.801   6.118  48.262  1.00  0.00     0.046 A 
HETATM   16  C10 UNL     1      26.942   7.115  48.660  1.00  0.00     0.138 A 
HETATM   17  F1  UNL     1      27.227   8.358  48.229  1.00  0.00    -0.204 F 
HETATM   18  C11 UNL     1      25.873   6.766  49.456  1.00  0.00     0.074 A 
HETATM   19 CL1  UNL     1      24.823   8.073  49.926  1.00  0.00    -0.081 Cl
HETATM   20  C12 UNL     1      25.706   5.448  49.820  1.00  0.00     0.056 A 
ENDBRANCH  11  13
ENDBRANCH   7  11
BRANCH  10  21
HETATM   21  O2  UNL     1      21.801   1.083  51.130  1.00  0.00    -0.276 OA
HETATM   22  I1  UNL     1      21.541   1.609  49.170  1.00  0.00     0.116 I 
ENDBRANCH  10  21
BRANCH   1  23
HETATM   23  O1  UNL     1      22.066   0.010  53.606  1.00  0.00    -0.353 OA
HETATM   24  C1  UNL     1      22.038  -1.305  54.081  1.00  0.00     0.210 C 
ENDBRANCH   1  23
TORSDOF 4
ENDMDL
MODEL 6
REMARK VINA RESULT:      -7.6      4.614      6.706
REMARK  4 active torsions:
REMARK  status: ('A' for Active; 'I' for Inactive)
REMARK    1  A    between atoms: O1_2  and  C2_3 
REMARK    2  A    between atoms: C6_9  and  N3_10 
REMARK    3  A    between atoms: N3_10  and  C7_11 
REMARK    4  A    between atoms: C15_21  and  O2_22 
ROOT
HETATM    1  C2  UNL     1      26.609   0.384  52.945  1.00  0.00     0.104 A 
HETATM    2  C3  UNL     1      25.712  -0.355  53.688  1.00  0.00     0.072 A 
HETATM    3  C4  UNL     1      24.363  -0.097  53.628  1.00  0.00     0.075 A 
HETATM    4  N1  UNL     1      23.595  -0.885  54.398  1.00  0.00    -0.241 NA
HETATM    5  C5  UNL     1      22.271  -0.655  54.358  1.00  0.00     0.236 A 
HETATM    6  N2  UNL     1      21.739   0.303  53.599  1.00  0.00    -0.224 NA
HETATM    7  C6  UNL     1      22.455   1.098  52.829  1.00  0.00     0.142 A 
HETATM    8  C13 UNL     1      23.815   0.894  52.841  1.00  0.00     0.042 A 
HETATM    9  C14 UNL     1      24.734   1.599  52.125  1.00  0.00     0.058 A 
HETATM   10  C15 UNL     1      26.095   1.384  52.147  1.00  0.00     0.116 A 
ENDROOT
BRANCH   7  11
HETATM   11  N3  UNL     1      21.939   2.128  52.003  1.00  0.00    -0.340 N 
HETATM   12  H6  UNL     1      21.418   2.930  52.374  1.00  0.00     0.167 HD
BRANCH  11  13
HETATM   13  C7  UNL     1      22.023   2.263  50.594  1.00  0.00     0.035 A 
HETATM   14  C8  UNL     1      21.757   1.272  49.673  1.00  0.00     0.032 A 
HETATM   15  C9  UNL     1      21.851   1.421  48.311  1.00  0.00     0.046 A 
HETATM   16  C10 UNL     1      22.235   2.629  47.777  1.00  0.00     0.138 A 
HETATM   17  F1  UNL     1      22.303   2.694  46.434  1.00  0.00    -0.204 F 
HETATM   18  C11 UNL     1      22.514   3.659  48.647  1.00  0.00     0.074 A 
HETATM   19 CL1  UNL     1      22.994   5.161  47.910  1.00  0.00    -0.081 Cl
HETATM   20  C12 UNL     1      22.401   3.445  50.004  1.00  0.00     0.056 A 
ENDBRANCH  11  13
ENDBRANCH   7  11
BRANCH  10  21
HETATM   21  O2  UNL     1      26.969   2.148  51.386  1.00  0.00    -0.276 OA
HETATM   22  I1  UNL     1      26.327   3.441  49.936  1.00  0.00     0.116 I 
ENDBRANCH  10  21
BRANCH   1  23
HETATM   23  O1  UNL     1      27.974   0.181  52.957  1.00  0.00    -0.353 OA
HETATM   24  C1  UNL     1      28.755   0.029  54.108  1.00  0.00     0.210 C 
ENDBRANCH   1  23
TORSDOF 4
ENDMDL
MODEL 7
REMARK VINA RESULT:      -7.6      4.600      5.660
REMARK  4 active torsions:
REMARK  status: ('A' for Active; 'I' for Inactive)
REMARK    1  A    between atoms: O1_2  and  C2_3 
REMARK    2  A    between atoms: C6_9  and  N3_10 
REMARK    3  A    between atoms: N3_10  and  C7_11 
REMARK    4  A    between atoms: C15_21  and  O2_22 
ROOT
HETATM    1  C2  UNL     1      23.032   0.326  52.914  1.00  0.00     0.104 A 
HETATM    2  C3  UNL     1      24.289   0.385  53.478  1.00  0.00     0.072 A 
HETATM    3  C4  UNL     1      25.306   1.081  52.867  1.00  0.00     0.075 A 
HETATM    4  N1  UNL     1      26.482   1.062  53.514  1.00  0.00    -0.241 NA
HETATM    5  C5  UNL     1      27.494   1.734  52.939  1.00  0.00     0.236 A 
HETATM    6  N2  UNL     1      27.347   2.387  51.785  1.00  0.00    -0.224 NA
HETATM    7  C6  UNL     1      26.213   2.431  51.117  1.00  0.00     0.142 A 
HETATM    8  C13 UNL     1      25.152   1.755  51.673  1.00  0.00     0.042 A 
HETATM    9  C14 UNL     1      23.896   1.671  51.151  1.00  0.00     0.058 A 
HETATM   10  C15 UNL     1      22.843   0.989  51.721  1.00  0.00     0.116 A 
ENDROOT
BRANCH   7  11
HETATM   11  N3  UNL     1      26.005   3.110  49.890  1.00  0.00    -0.340 N 
HETATM   12  H6  UNL     1      25.616   2.652  49.059  1.00  0.00     0.167 HD
BRANCH  11  13
HETATM   13  C7  UNL     1      26.270   4.466  49.569  1.00  0.00     0.035 A 
HETATM   14  C8  UNL     1      25.507   5.548  49.953  1.00  0.00     0.032 A 
HETATM   15  C9  UNL     1      25.778   6.854  49.626  1.00  0.00     0.046 A 
HETATM   16  C10 UNL     1      26.879   7.157  48.860  1.00  0.00     0.138 A 
HETATM   17  F1  UNL     1      27.074   8.459  48.583  1.00  0.00    -0.204 F 
HETATM   18  C11 UNL     1      27.681   6.117  48.445  1.00  0.00     0.074 A 
HETATM   19 CL1  UNL     1      29.058   6.565  47.479  1.00  0.00    -0.081 Cl
HETATM   20  C12 UNL     1      27.355   4.828  48.807  1.00  0.00     0.056 A 
ENDBRANCH  11  13
ENDBRANCH   7  11
BRANCH  10  21
HETATM   21  O2  UNL     1      21.590   0.951  51.125  1.00  0.00    -0.276 OA
HETATM   22  I1  UNL     1      21.300   1.354  49.141  1.00  0.00     0.116 I 
ENDBRANCH  10  21
BRANCH   1  23
HETATM   23  O1  UNL     1      21.967  -0.352  53.472  1.00  0.00    -0.353 OA
HETATM   24  C1  UNL     1      21.221   0.087  54.572  1.00  0.00     0.210 C 
ENDBRANCH   1  23
TORSDOF 4
ENDMDL
MODEL 8
REMARK VINA RESULT:      -7.5      2.836      3.773
REMARK  4 active torsions:
REMARK  status: ('A' for Active; 'I' for Inactive)
REMARK    1  A    between atoms: O1_2  and  C2_3 
REMARK    2  A    between atoms: C6_9  and  N3_10 
REMARK    3  A    between atoms: N3_10  and  C7_11 
REMARK    4  A    between atoms: C15_21  and  O2_22 
ROOT
HETATM    1  C2  UNL     1      22.134   2.133  48.833  1.00  0.00     0.104 A 
HETATM    2  C3  UNL     1      21.230   1.329  49.493  1.00  0.00     0.072 A 
HETATM    3  C4  UNL     1      21.437   0.958  50.801  1.00  0.00     0.075 A 
HETATM    4  N1  UNL     1      20.485   0.174  51.332  1.00  0.00    -0.241 NA
HETATM    5  C5  UNL     1      20.662  -0.204  52.610  1.00  0.00     0.236 A 
HETATM    6  N2  UNL     1      21.724   0.176  53.321  1.00  0.00    -0.224 NA
HETATM    7  C6  UNL     1      22.680   0.944  52.841  1.00  0.00     0.142 A 
HETATM    8  C13 UNL     1      22.536   1.352  51.536  1.00  0.00     0.042 A 
HETATM    9  C14 UNL     1      23.403   2.145  50.846  1.00  0.00     0.058 A 
HETATM   10  C15 UNL     1      23.245   2.546  49.537  1.00  0.00     0.116 A 
ENDROOT
BRANCH   7  11
HETATM   11  N3  UNL     1      23.826   1.376  53.555  1.00  0.00    -0.340 N 
HETATM   12  H6  UNL     1      23.789   2.097  54.284  1.00  0.00     0.167 HD
BRANCH  11  13
HETATM   13  C7  UNL     1      25.169   0.940  53.427  1.00  0.00     0.035 A 
HETATM   14  C8  UNL     1      25.574  -0.340  53.113  1.00  0.00     0.032 A 
HETATM   15  C9  UNL     1      26.881  -0.744  53.001  1.00  0.00     0.046 A 
HETATM   16  C10 UNL     1      27.899   0.157  53.208  1.00  0.00     0.138 A 
HETATM   17  F1  UNL     1      29.152  -0.317  53.079  1.00  0.00    -0.204 F 
HETATM   18  C11 UNL     1      27.559   1.453  53.525  1.00  0.00     0.074 A 
HETATM   19 CL1  UNL     1      28.892   2.544  53.776  1.00  0.00    -0.081 Cl
HETATM   20  C12 UNL     1      26.228   1.795  53.623  1.00  0.00     0.056 A 
ENDBRANCH  11  13
ENDBRANCH   7  11
BRANCH  10  21
HETATM   21  O2  UNL     1      24.176   3.357  48.903  1.00  0.00    -0.276 OA
HETATM   22  I1  UNL     1      25.996   3.796  49.726  1.00  0.00     0.116 I 
ENDBRANCH  10  21
BRANCH   1  23
HETATM   23  O1  UNL     1      21.990   2.542  47.523  1.00  0.00    -0.353 OA
HETATM   24  C1  UNL     1      21.131   3.558  47.087  1.00  0.00     0.210 C 
ENDBRANCH   1  23
TORSDOF 4
ENDMDL
MODEL 9
REMARK VINA RESULT:      -7.4      4.726      7.519
REMARK  4 active torsions:
REMARK  status: ('A' for Active; 'I' for Inactive)
REMARK    1  A    between atoms: O1_2  and  C2_3 
REMARK    2  A    between atoms: C6_9  and  N3_10 
REMARK    3  A    between atoms: N3_10  and  C7_11 
REMARK    4  A    between atoms: C15_21  and  O2_22 
ROOT
HETATM    1  C2  UNL     1      26.986  -0.095  53.348  1.00  0.00     0.104 A 
HETATM    2  C3  UNL     1      27.339   0.827  52.385  1.00  0.00     0.072 A 
HETATM    3  C4  UNL     1      26.426   1.739  51.911  1.00  0.00     0.075 A 
HETATM    4  N1  UNL     1      26.892   2.582  50.975  1.00  0.00    -0.241 NA
HETATM    5  C5  UNL     1      26.020   3.484  50.494  1.00  0.00     0.236 A 
HETATM    6  N2  UNL     1      24.756   3.546  50.916  1.00  0.00    -0.224 NA
HETATM    7  C6  UNL     1      24.258   2.740  51.831  1.00  0.00     0.142 A 
HETATM    8  C13 UNL     1      25.120   1.802  52.349  1.00  0.00     0.042 A 
HETATM    9  C14 UNL     1      24.813   0.875  53.299  1.00  0.00     0.058 A 
HETATM   10  C15 UNL     1      25.687  -0.060  53.809  1.00  0.00     0.116 A 
ENDROOT
BRANCH   7  11
HETATM   11  N3  UNL     1      22.926   2.766  52.315  1.00  0.00    -0.340 N 
HETATM   12  H6  UNL     1      22.624   3.378  53.080  1.00  0.00     0.167 HD
BRANCH  11  13
HETATM   13  C7  UNL     1      21.808   2.011  51.879  1.00  0.00     0.035 A 
HETATM   14  C8  UNL     1      21.235   2.069  50.627  1.00  0.00     0.032 A 
HETATM   15  C9  UNL     1      20.147   1.334  50.227  1.00  0.00     0.046 A 
HETATM   16  C10 UNL     1      19.548   0.459  51.103  1.00  0.00     0.138 A 
HETATM   17  F1  UNL     1      18.488  -0.225  50.635  1.00  0.00    -0.204 F 
HETATM   18  C11 UNL     1      20.076   0.356  52.371  1.00  0.00     0.074 A 
HETATM   19 CL1  UNL     1      19.274  -0.767  53.433  1.00  0.00    -0.081 Cl
HETATM   20  C12 UNL     1      21.169   1.122  52.711  1.00  0.00     0.056 A 
ENDBRANCH  11  13
ENDBRANCH   7  11
BRANCH  10  21
HETATM   21  O2  UNL     1      25.297  -0.974  54.779  1.00  0.00    -0.276 OA
HETATM   22  I1  UNL     1      23.335  -1.323  55.238  1.00  0.00     0.116 I 
ENDBRANCH  10  21
BRANCH   1  23
HETATM   23  O1  UNL     1      27.850  -1.037  53.868  1.00  0.00    -0.353 OA
HETATM   24  C1  UNL     1      29.244  -1.005  53.746  1.00  0.00     0.210 C 
ENDBRANCH   1  23
TORSDOF 4
ENDMDL
