MODEL 1
REMARK VINA RESULT:      -7.5      0.000      0.000
REMARK  5 active torsions:
REMARK  status: ('A' for Active; 'I' for Inactive)
REMARK    1  A    between atoms: N2_3  and  C2_4 
REMARK    2  A    between atoms: C3_5  and  C4_6 
REMARK    3  A    between atoms: C4_6  and  C5_7 
REMARK    4  A    between atoms: C5_7  and  N3_8 
REMARK    5  A    between atoms: C5_7  and  C7_10 
ROOT
HETATM    1  C4  UNL     1      24.620   0.208  53.395  1.00  0.00     0.078 C 
ENDROOT
BRANCH   1   2
HETATM    2  C3  UNL     1      23.863   1.408  52.975  1.00  0.00    -0.024 A 
HETATM    3  C2  UNL     1      22.514   1.214  52.692  1.00  0.00     0.108 A 
HETATM    4  C15 UNL     1      21.704   2.272  52.287  1.00  0.00     0.086 A 
HETATM    5  C14 UNL     1      22.264   3.526  52.170  1.00  0.00     0.058 A 
HETATM    6 CL3  UNL     1      20.008   2.009  51.937  1.00  0.00    -0.080 Cl
HETATM    7  C13 UNL     1      23.601   3.752  52.443  1.00  0.00     0.026 A 
HETATM    8 CL2  UNL     1      21.327   4.898  51.672  1.00  0.00    -0.082 Cl
HETATM    9  C12 UNL     1      24.384   2.699  52.840  1.00  0.00     0.011 A 
BRANCH   3  10
HETATM   10  N2  UNL     1      21.881  -0.077  52.798  1.00  0.00    -0.154 NA
HETATM   11  N1  UNL     1      21.377  -0.385  53.902  1.00  0.00    -0.197 NA
HETATM   12  C1  UNL     1      20.702  -1.596  54.247  1.00  0.00     0.204 C 
ENDBRANCH   3  10
ENDBRANCH   1   2
BRANCH   1  13
HETATM   13  C5  UNL     1      25.790   0.503  54.281  1.00  0.00     0.247 C 
BRANCH  13  14
HETATM   14  N3  UNL     1      25.772  -0.462  55.369  1.00  0.00     0.086 N 
HETATM   15  C6  UNL     1      24.549  -1.212  55.452  1.00  0.00     0.307 C 
HETATM   16  H7  UNL     1      26.529  -1.167  55.138  1.00  0.00     0.315 HD
ENDBRANCH  13  14
BRANCH  13  17
HETATM   17  C7  UNL     1      27.130   0.429  53.638  1.00  0.00     0.071 C 
HETATM   18 CL1  UNL     1      27.131  -0.344  52.054  1.00  0.00    -0.117 Cl
HETATM   19  C8  UNL     1      27.585   1.876  53.403  1.00  0.00     0.047 C 
HETATM   20  C9  UNL     1      28.994   2.110  53.839  1.00  0.00     0.115 C 
HETATM   21  N4  UNL     1      29.916   1.056  53.570  1.00  0.00    -0.421 N 
HETATM   22  C10 UNL     1      29.436  -0.271  53.812  1.00  0.00     0.115 C 
HETATM   23  H15 UNL     1      30.487   1.178  52.713  1.00  0.00     0.153 HD
HETATM   24  C11 UNL     1      28.130  -0.158  54.579  1.00  0.00     0.047 C 
ENDBRANCH  13  17
ENDBRANCH   1  13
TORSDOF 5
ENDMDL
MODEL 2
REMARK VINA RESULT:      -7.4      2.229      3.894
REMARK  5 active torsions:
REMARK  status: ('A' for Active; 'I' for Inactive)
REMARK    1  A    between atoms: N2_3  and  C2_4 
REMARK    2  A    between atoms: C3_5  and  C4_6 
REMARK    3  A    between atoms: C4_6  and  C5_7 
REMARK    4  A    between atoms: C5_7  and  N3_8 
REMARK    5  A    between atoms: C5_7  and  C7_10 
ROOT
HETATM    1  C4  UNL     1      23.488   1.447  53.193  1.00  0.00     0.078 C 
ENDROOT
BRANCH   1   2
HETATM    2  C3  UNL     1      22.342   0.533  53.402  1.00  0.00    -0.024 A 
HETATM    3  C2  UNL     1      21.232   0.747  52.592  1.00  0.00     0.108 A 
HETATM    4  C15 UNL     1      20.096  -0.053  52.700  1.00  0.00     0.086 A 
HETATM    5  C14 UNL     1      20.090  -1.068  53.632  1.00  0.00     0.058 A 
HETATM    6 CL3  UNL     1      18.708   0.231  51.670  1.00  0.00    -0.080 Cl
HETATM    7  C13 UNL     1      21.178  -1.307  54.452  1.00  0.00     0.026 A 
HETATM    8 CL2  UNL     1      18.718  -2.110  53.833  1.00  0.00    -0.082 Cl
HETATM    9  C12 UNL     1      22.287  -0.510  54.332  1.00  0.00     0.011 A 
BRANCH   3  10
HETATM   10  N2  UNL     1      21.187   1.796  51.604  1.00  0.00    -0.154 NA
HETATM   11  N1  UNL     1      21.391   1.476  50.410  1.00  0.00    -0.197 NA
HETATM   12  C1  UNL     1      21.397   2.330  49.266  1.00  0.00     0.204 C 
ENDBRANCH   3  10
ENDBRANCH   1   2
BRANCH   1  13
HETATM   13  C5  UNL     1      24.446   0.994  52.137  1.00  0.00     0.247 C 
BRANCH  13  14
HETATM   14  N3  UNL     1      24.534   2.051  51.142  1.00  0.00     0.086 N 
HETATM   15  C6  UNL     1      24.224   3.356  51.659  1.00  0.00     0.307 C 
HETATM   16  H7  UNL     1      25.553   2.088  50.853  1.00  0.00     0.315 HD
ENDBRANCH  13  14
BRANCH  13  17
HETATM   17  C7  UNL     1      25.830   0.695  52.595  1.00  0.00     0.071 C 
HETATM   18 CL1  UNL     1      27.090   1.516  51.676  1.00  0.00    -0.117 Cl
HETATM   19  C8  UNL     1      25.941   1.224  54.032  1.00  0.00     0.047 C 
HETATM   20  C9  UNL     1      26.570   0.236  54.957  1.00  0.00     0.115 C 
HETATM   21  N4  UNL     1      27.658  -0.517  54.425  1.00  0.00    -0.421 N 
HETATM   22  C10 UNL     1      27.494  -0.987  53.083  1.00  0.00     0.115 C 
HETATM   23  H15 UNL     1      28.601  -0.158  54.664  1.00  0.00     0.153 HD
HETATM   24  C11 UNL     1      26.041  -0.780  52.694  1.00  0.00     0.047 C 
ENDBRANCH  13  17
ENDBRANCH   1  13
TORSDOF 5
ENDMDL
MODEL 3
REMARK VINA RESULT:      -7.3      2.121      3.618
REMARK  5 active torsions:
REMARK  status: ('A' for Active; 'I' for Inactive)
REMARK    1  A    between atoms: N2_3  and  C2_4 
REMARK    2  A    between atoms: C3_5  and  C4_6 
REMARK    3  A    between atoms: C4_6  and  C5_7 
REMARK    4  A    between atoms: C5_7  and  N3_8 
REMARK    5  A    between atoms: C5_7  and  C7_10 
ROOT
HETATM    1  C4  UNL     1      24.918   1.642  52.947  1.00  0.00     0.078 C 
ENDROOT
BRANCH   1   2
HETATM    2  C3  UNL     1      23.588   0.995  53.032  1.00  0.00    -0.024 A 
HETATM    3  C2  UNL     1      22.497   1.794  52.707  1.00  0.00     0.108 A 
HETATM    4  C15 UNL     1      21.198   1.292  52.751  1.00  0.00     0.086 A 
HETATM    5  C14 UNL     1      21.010  -0.021  53.127  1.00  0.00     0.058 A 
HETATM    6 CL3  UNL     1      19.836   2.312  52.336  1.00  0.00    -0.080 Cl
HETATM    7  C13 UNL     1      22.075  -0.841  53.456  1.00  0.00     0.026 A 
HETATM    8 CL2  UNL     1      19.428  -0.726  53.208  1.00  0.00    -0.082 Cl
HETATM    9  C12 UNL     1      23.346  -0.330  53.407  1.00  0.00     0.011 A 
BRANCH   3  10
HETATM   10  N2  UNL     1      22.640   3.173  52.309  1.00  0.00    -0.154 NA
HETATM   11  N1  UNL     1      22.613   3.428  51.083  1.00  0.00    -0.197 NA
HETATM   12  C1  UNL     1      22.733   4.704  50.454  1.00  0.00     0.204 C 
ENDBRANCH   3  10
ENDBRANCH   1   2
BRANCH   1  13
HETATM   13  C5  UNL     1      26.001   0.746  52.433  1.00  0.00     0.247 C 
BRANCH  13  14
HETATM   14  N3  UNL     1      26.711   1.469  51.390  1.00  0.00     0.086 N 
HETATM   15  C6  UNL     1      26.104   2.725  51.046  1.00  0.00     0.307 C 
HETATM   16  H7  UNL     1      27.658   1.708  51.802  1.00  0.00     0.315 HD
ENDBRANCH  13  14
BRANCH  13  17
HETATM   17  C7  UNL     1      27.007   0.298  53.433  1.00  0.00     0.071 C 
HETATM   18 CL1  UNL     1      26.422   0.293  55.096  1.00  0.00    -0.117 Cl
HETATM   19  C8  UNL     1      27.341  -1.162  53.098  1.00  0.00     0.047 C 
HETATM   20  C9  UNL     1      28.811  -1.425  53.091  1.00  0.00     0.115 C 
HETATM   21  N4  UNL     1      29.569  -0.771  54.107  1.00  0.00    -0.421 N 
HETATM   22  C10 UNL     1      29.214   0.590  54.373  1.00  0.00     0.115 C 
HETATM   23  H15 UNL     1      29.782  -1.351  54.940  1.00  0.00     0.153 HD
HETATM   24  C11 UNL     1      28.285   1.051  53.263  1.00  0.00     0.047 C 
ENDBRANCH  13  17
ENDBRANCH   1  13
TORSDOF 5
ENDMDL
MODEL 4
REMARK VINA RESULT:      -7.2      2.458      3.962
REMARK  5 active torsions:
REMARK  status: ('A' for Active; 'I' for Inactive)
REMARK    1  A    between atoms: N2_3  and  C2_4 
REMARK    2  A    between atoms: C3_5  and  C4_6 
REMARK    3  A    between atoms: C4_6  and  C5_7 
REMARK    4  A    between atoms: C5_7  and  N3_8 
REMARK    5  A    between atoms: C5_7  and  C7_10 
ROOT
HETATM    1  C4  UNL     1      24.631   2.692  52.788  1.00  0.00     0.078 C 
ENDROOT
BRANCH   1   2
HETATM    2  C3  UNL     1      23.363   2.010  52.441  1.00  0.00    -0.024 A 
HETATM    3  C2  UNL     1      22.406   2.786  51.795  1.00  0.00     0.108 A 
HETATM    4  C15 UNL     1      21.177   2.250  51.421  1.00  0.00     0.086 A 
HETATM    5  C14 UNL     1      20.920   0.926  51.705  1.00  0.00     0.058 A 
HETATM    6 CL3  UNL     1      19.985   3.243  50.607  1.00  0.00    -0.080 Cl
HETATM    7  C13 UNL     1      21.850   0.127  52.346  1.00  0.00     0.026 A 
HETATM    8 CL2  UNL     1      19.415   0.179  51.274  1.00  0.00    -0.082 Cl
HETATM    9  C12 UNL     1      23.055   0.672  52.707  1.00  0.00     0.011 A 
BRANCH   3  10
HETATM   10  N2  UNL     1      22.625   4.176  51.478  1.00  0.00    -0.154 NA
HETATM   11  N1  UNL     1      23.068   4.447  50.338  1.00  0.00    -0.197 NA
HETATM   12  C1  UNL     1      23.361   5.736  49.798  1.00  0.00     0.204 C 
ENDBRANCH   3  10
ENDBRANCH   1   2
BRANCH   1  13
HETATM   13  C5  UNL     1      25.827   2.164  52.061  1.00  0.00     0.247 C 
BRANCH  13  14
HETATM   14  N3  UNL     1      26.452   3.283  51.373  1.00  0.00     0.086 N 
HETATM   15  C6  UNL     1      26.438   3.159  49.941  1.00  0.00     0.307 C 
HETATM   16  H7  UNL     1      25.851   4.127  51.596  1.00  0.00     0.315 HD
ENDBRANCH  13  14
BRANCH  13  17
HETATM   17  C7  UNL     1      26.870   1.517  52.902  1.00  0.00     0.071 C 
HETATM   18 CL1  UNL     1      28.367   2.438  53.034  1.00  0.00    -0.117 Cl
HETATM   19  C8  UNL     1      26.298   1.433  54.324  1.00  0.00     0.047 C 
HETATM   20  C9  UNL     1      26.491   0.087  54.938  1.00  0.00     0.115 C 
HETATM   21  N4  UNL     1      27.737  -0.552  54.670  1.00  0.00    -0.421 N 
HETATM   22  C10 UNL     1      28.217  -0.443  53.325  1.00  0.00     0.115 C 
HETATM   23  H15 UNL     1      28.454  -0.452  55.413  1.00  0.00     0.153 HD
HETATM   24  C11 UNL     1      27.086   0.103  52.473  1.00  0.00     0.047 C 
ENDBRANCH  13  17
ENDBRANCH   1  13
TORSDOF 5
ENDMDL
MODEL 5
REMARK VINA RESULT:      -6.9      1.981      2.938
REMARK  5 active torsions:
REMARK  status: ('A' for Active; 'I' for Inactive)
REMARK    1  A    between atoms: N2_3  and  C2_4 
REMARK    2  A    between atoms: C3_5  and  C4_6 
REMARK    3  A    between atoms: C4_6  and  C5_7 
REMARK    4  A    between atoms: C5_7  and  N3_8 
REMARK    5  A    between atoms: C5_7  and  C7_10 
ROOT
HETATM    1  C4  UNL     1      24.605   2.836  52.840  1.00  0.00     0.078 C 
ENDROOT
BRANCH   1   2
HETATM    2  C3  UNL     1      23.352   2.943  52.059  1.00  0.00    -0.024 A 
HETATM    3  C2  UNL     1      22.584   1.786  51.970  1.00  0.00     0.108 A 
HETATM    4  C15 UNL     1      21.386   1.769  51.260  1.00  0.00     0.086 A 
HETATM    5  C14 UNL     1      20.969   2.927  50.640  1.00  0.00     0.058 A 
HETATM    6 CL3  UNL     1      20.432   0.303  51.161  1.00  0.00    -0.080 Cl
HETATM    7  C13 UNL     1      21.710   4.094  50.709  1.00  0.00     0.026 A 
HETATM    8 CL2  UNL     1      19.491   2.994  49.736  1.00  0.00    -0.082 Cl
HETATM    9  C12 UNL     1      22.887   4.092  51.412  1.00  0.00     0.011 A 
BRANCH   3  10
HETATM   10  N2  UNL     1      22.977   0.549  52.599  1.00  0.00    -0.154 NA
HETATM   11  N1  UNL     1      22.465   0.276  53.709  1.00  0.00    -0.197 NA
HETATM   12  C1  UNL     1      22.694  -0.880  54.516  1.00  0.00     0.204 C 
ENDBRANCH   3  10
ENDBRANCH   1   2
BRANCH   1  13
HETATM   13  C5  UNL     1      25.753   2.254  52.077  1.00  0.00     0.247 C 
BRANCH  13  14
HETATM   14  N3  UNL     1      26.426   3.348  51.396  1.00  0.00     0.086 N 
HETATM   15  C6  UNL     1      26.460   3.201  49.966  1.00  0.00     0.307 C 
HETATM   16  H7  UNL     1      25.837   4.208  51.585  1.00  0.00     0.315 HD
ENDBRANCH  13  14
BRANCH  13  17
HETATM   17  C7  UNL     1      26.774   1.531  52.883  1.00  0.00     0.071 C 
HETATM   18 CL1  UNL     1      28.281   2.418  53.104  1.00  0.00    -0.117 Cl
HETATM   19  C8  UNL     1      26.179   1.352  54.287  1.00  0.00     0.047 C 
HETATM   20  C9  UNL     1      26.345  -0.039  54.804  1.00  0.00     0.115 C 
HETATM   21  N4  UNL     1      27.586  -0.675  54.506  1.00  0.00    -0.421 N 
HETATM   22  C10 UNL     1      28.088  -0.474  53.181  1.00  0.00     0.115 C 
HETATM   23  H15 UNL     1      28.293  -0.639  55.265  1.00  0.00     0.153 HD
HETATM   24  C11 UNL     1      26.977   0.150  52.354  1.00  0.00     0.047 C 
ENDBRANCH  13  17
ENDBRANCH   1  13
TORSDOF 5
ENDMDL
MODEL 6
REMARK VINA RESULT:      -6.9      2.552      6.946
REMARK  5 active torsions:
REMARK  status: ('A' for Active; 'I' for Inactive)
REMARK    1  A    between atoms: N2_3  and  C2_4 
REMARK    2  A    between atoms: C3_5  and  C4_6 
REMARK    3  A    between atoms: C4_6  and  C5_7 
REMARK    4  A    between atoms: C5_7  and  N3_8 
REMARK    5  A    between atoms: C5_7  and  C7_10 
ROOT
HETATM    1  C4  UNL     1      23.862   1.483  51.489  1.00  0.00     0.078 C 
ENDROOT
BRANCH   1   2
HETATM    2  C3  UNL     1      24.960   1.064  52.390  1.00  0.00    -0.024 A 
HETATM    3  C2  UNL     1      26.095   1.867  52.388  1.00  0.00     0.108 A 
HETATM    4  C15 UNL     1      27.190   1.569  53.195  1.00  0.00     0.086 A 
HETATM    5  C14 UNL     1      27.131   0.454  54.004  1.00  0.00     0.058 A 
HETATM    6 CL3  UNL     1      28.611   2.593  53.181  1.00  0.00    -0.080 Cl
HETATM    7  C13 UNL     1      26.016  -0.365  54.029  1.00  0.00     0.026 A 
HETATM    8 CL2  UNL     1      28.448   0.011  55.041  1.00  0.00    -0.082 Cl
HETATM    9  C12 UNL     1      24.947  -0.056  53.228  1.00  0.00     0.011 A 
BRANCH   3  10
HETATM   10  N2  UNL     1      26.208   3.042  51.560  1.00  0.00    -0.154 NA
HETATM   11  N1  UNL     1      26.674   2.896  50.406  1.00  0.00    -0.197 NA
HETATM   12  C1  UNL     1      26.879   3.901  49.413  1.00  0.00     0.204 C 
ENDBRANCH   3  10
ENDBRANCH   1   2
BRANCH   1  13
HETATM   13  C5  UNL     1      22.608   1.886  52.200  1.00  0.00     0.247 C 
BRANCH  13  14
HETATM   14  N3  UNL     1      22.322   3.265  51.838  1.00  0.00     0.086 N 
HETATM   15  C6  UNL     1      23.085   4.226  52.584  1.00  0.00     0.307 C 
HETATM   16  H7  UNL     1      22.634   3.366  50.830  1.00  0.00     0.315 HD
ENDBRANCH  13  14
BRANCH  13  17
HETATM   17  C7  UNL     1      21.396   1.080  51.893  1.00  0.00     0.071 C 
HETATM   18 CL1  UNL     1      21.337   0.463  50.243  1.00  0.00    -0.117 Cl
HETATM   19  C8  UNL     1      21.446  -0.154  52.805  1.00  0.00     0.047 C 
HETATM   20  C9  UNL     1      20.140  -0.420  53.478  1.00  0.00     0.115 C 
HETATM   21  N4  UNL     1      18.973  -0.207  52.688  1.00  0.00    -0.421 N 
HETATM   22  C10 UNL     1      18.983   0.963  51.862  1.00  0.00     0.115 C 
HETATM   23  H15 UNL     1      18.571  -1.060  52.256  1.00  0.00     0.153 HD
HETATM   24  C11 UNL     1      20.161   1.820  52.288  1.00  0.00     0.047 C 
ENDBRANCH  13  17
ENDBRANCH   1  13
TORSDOF 5
ENDMDL
MODEL 7
REMARK VINA RESULT:      -6.8      3.103      6.470
REMARK  5 active torsions:
REMARK  status: ('A' for Active; 'I' for Inactive)
REMARK    1  A    between atoms: N2_3  and  C2_4 
REMARK    2  A    between atoms: C3_5  and  C4_6 
REMARK    3  A    between atoms: C4_6  and  C5_7 
REMARK    4  A    between atoms: C5_7  and  N3_8 
REMARK    5  A    between atoms: C5_7  and  C7_10 
ROOT
HETATM    1  C4  UNL     1      24.294   2.462  50.685  1.00  0.00     0.078 C 
ENDROOT
BRANCH   1   2
HETATM    2  C3  UNL     1      23.687   1.574  51.702  1.00  0.00    -0.024 A 
HETATM    3  C2  UNL     1      24.574   0.875  52.514  1.00  0.00     0.108 A 
HETATM    4  C15 UNL     1      24.116   0.011  53.505  1.00  0.00     0.086 A 
HETATM    5  C14 UNL     1      22.756  -0.143  53.671  1.00  0.00     0.058 A 
HETATM    6 CL3  UNL     1      25.249  -0.860  54.519  1.00  0.00    -0.080 Cl
HETATM    7  C13 UNL     1      21.848   0.538  52.880  1.00  0.00     0.026 A 
HETATM    8 CL2  UNL     1      22.100  -1.198  54.881  1.00  0.00    -0.082 Cl
HETATM    9  C12 UNL     1      22.317   1.384  51.909  1.00  0.00     0.011 A 
BRANCH   3  10
HETATM   10  N2  UNL     1      26.005   0.999  52.381  1.00  0.00    -0.154 NA
HETATM   11  N1  UNL     1      26.580   1.854  53.092  1.00  0.00    -0.197 NA
HETATM   12  C1  UNL     1      27.975   2.158  53.137  1.00  0.00     0.204 C 
ENDBRANCH   3  10
ENDBRANCH   1   2
BRANCH   1  13
HETATM   13  C5  UNL     1      24.519   3.865  51.155  1.00  0.00     0.247 C 
BRANCH  13  14
HETATM   14  N3  UNL     1      25.868   4.246  50.767  1.00  0.00     0.086 N 
HETATM   15  C6  UNL     1      26.442   3.392  49.765  1.00  0.00     0.307 C 
HETATM   16  H7  UNL     1      25.777   5.201  50.317  1.00  0.00     0.315 HD
ENDBRANCH  13  14
BRANCH  13  17
HETATM   17  C7  UNL     1      23.590   4.892  50.613  1.00  0.00     0.071 C 
HETATM   18 CL1  UNL     1      24.390   6.331  49.983  1.00  0.00    -0.117 Cl
HETATM   19  C8  UNL     1      22.873   4.249  49.417  1.00  0.00     0.047 C 
HETATM   20  C9  UNL     1      21.398   4.477  49.445  1.00  0.00     0.115 C 
HETATM   21  N4  UNL     1      20.971   5.767  49.879  1.00  0.00    -0.421 N 
HETATM   22  C10 UNL     1      21.675   6.313  51.000  1.00  0.00     0.115 C 
HETATM   23  H15 UNL     1      20.749   6.437  49.118  1.00  0.00     0.153 HD
HETATM   24  C11 UNL     1      22.517   5.203  51.603  1.00  0.00     0.047 C 
ENDBRANCH  13  17
ENDBRANCH   1  13
TORSDOF 5
ENDMDL
MODEL 8
REMARK VINA RESULT:      -6.7      2.230      3.145
REMARK  5 active torsions:
REMARK  status: ('A' for Active; 'I' for Inactive)
REMARK    1  A    between atoms: N2_3  and  C2_4 
REMARK    2  A    between atoms: C3_5  and  C4_6 
REMARK    3  A    between atoms: C4_6  and  C5_7 
REMARK    4  A    between atoms: C5_7  and  N3_8 
REMARK    5  A    between atoms: C5_7  and  C7_10 
ROOT
HETATM    1  C4  UNL     1      24.463   1.634  52.537  1.00  0.00     0.078 C 
ENDROOT
BRANCH   1   2
HETATM    2  C3  UNL     1      23.159   1.377  51.886  1.00  0.00    -0.024 A 
HETATM    3  C2  UNL     1      22.204   0.728  52.662  1.00  0.00     0.108 A 
HETATM    4  C15 UNL     1      20.941   0.434  52.154  1.00  0.00     0.086 A 
HETATM    5  C14 UNL     1      20.649   0.798  50.857  1.00  0.00     0.058 A 
HETATM    6 CL3  UNL     1      19.751  -0.382  53.148  1.00  0.00    -0.080 Cl
HETATM    7  C13 UNL     1      21.577   1.443  50.059  1.00  0.00     0.026 A 
HETATM    8 CL2  UNL     1      19.102   0.470  50.146  1.00  0.00    -0.082 Cl
HETATM    9  C12 UNL     1      22.815   1.725  50.576  1.00  0.00     0.011 A 
BRANCH   3  10
HETATM   10  N2  UNL     1      22.459   0.325  54.023  1.00  0.00    -0.154 NA
HETATM   11  N1  UNL     1      22.773  -0.870  54.224  1.00  0.00    -0.197 NA
HETATM   12  C1  UNL     1      23.070  -1.497  55.472  1.00  0.00     0.204 C 
ENDBRANCH   3  10
ENDBRANCH   1   2
BRANCH   1  13
HETATM   13  C5  UNL     1      25.598   0.843  51.965  1.00  0.00     0.247 C 
BRANCH  13  14
HETATM   14  N3  UNL     1      26.476   1.773  51.273  1.00  0.00     0.086 N 
HETATM   15  C6  UNL     1      25.976   3.120  51.240  1.00  0.00     0.307 C 
HETATM   16  H7  UNL     1      27.366   1.807  51.848  1.00  0.00     0.315 HD
ENDBRANCH  13  14
BRANCH  13  17
HETATM   17  C7  UNL     1      26.426   0.088  52.943  1.00  0.00     0.071 C 
HETATM   18 CL1  UNL     1      26.036   0.420  54.630  1.00  0.00    -0.117 Cl
HETATM   19  C8  UNL     1      26.118  -1.400  52.724  1.00  0.00     0.047 C 
HETATM   20  C9  UNL     1      27.354  -2.235  52.658  1.00  0.00     0.115 C 
HETATM   21  N4  UNL     1      28.396  -1.885  53.566  1.00  0.00    -0.421 N 
HETATM   22  C10 UNL     1      28.639  -0.483  53.726  1.00  0.00     0.115 C 
HETATM   23  H15 UNL     1      28.432  -2.450  54.435  1.00  0.00     0.153 HD
HETATM   24  C11 UNL     1      27.878   0.247  52.634  1.00  0.00     0.047 C 
ENDBRANCH  13  17
ENDBRANCH   1  13
TORSDOF 5
ENDMDL
MODEL 9
REMARK VINA RESULT:      -6.7      2.862      4.308
REMARK  5 active torsions:
REMARK  status: ('A' for Active; 'I' for Inactive)
REMARK    1  A    between atoms: N2_3  and  C2_4 
REMARK    2  A    between atoms: C3_5  and  C4_6 
REMARK    3  A    between atoms: C4_6  and  C5_7 
REMARK    4  A    between atoms: C5_7  and  N3_8 
REMARK    5  A    between atoms: C5_7  and  C7_10 
ROOT
HETATM    1  C4  UNL     1      24.162   2.665  52.229  1.00  0.00     0.078 C 
ENDROOT
BRANCH   1   2
HETATM    2  C3  UNL     1      23.016   2.577  51.295  1.00  0.00    -0.024 A 
HETATM    3  C2  UNL     1      22.400   3.779  50.966  1.00  0.00     0.108 A 
HETATM    4  C15 UNL     1      21.312   3.817  50.097  1.00  0.00     0.086 A 
HETATM    5  C14 UNL     1      20.851   2.633  49.563  1.00  0.00     0.058 A 
HETATM    6 CL3  UNL     1      20.550   5.342  49.692  1.00  0.00    -0.080 Cl
HETATM    7  C13 UNL     1      21.442   1.420  49.871  1.00  0.00     0.026 A 
HETATM    8 CL2  UNL     1      19.503   2.590  48.473  1.00  0.00    -0.082 Cl
HETATM    9  C12 UNL     1      22.511   1.402  50.728  1.00  0.00     0.011 A 
BRANCH   3  10
HETATM   10  N2  UNL     1      22.842   5.045  51.497  1.00  0.00    -0.154 NA
HETATM   11  N1  UNL     1      23.673   5.697  50.824  1.00  0.00    -0.197 NA
HETATM   12  C1  UNL     1      24.252   6.963  51.141  1.00  0.00     0.204 C 
ENDBRANCH   3  10
ENDBRANCH   1   2
BRANCH   1  13
HETATM   13  C5  UNL     1      25.320   1.792  51.858  1.00  0.00     0.247 C 
BRANCH  13  14
HETATM   14  N3  UNL     1      26.477   2.653  51.675  1.00  0.00     0.086 N 
HETATM   15  C6  UNL     1      26.495   3.331  50.409  1.00  0.00     0.307 C 
HETATM   16  H7  UNL     1      26.388   3.412  52.410  1.00  0.00     0.315 HD
ENDBRANCH  13  14
BRANCH  13  17
HETATM   17  C7  UNL     1      25.691   0.745  52.848  1.00  0.00     0.071 C 
HETATM   18 CL1  UNL     1      24.380  -0.358  53.260  1.00  0.00    -0.117 Cl
HETATM   19  C8  UNL     1      26.778  -0.117  52.190  1.00  0.00     0.047 C 
HETATM   20  C9  UNL     1      27.937  -0.366  53.097  1.00  0.00     0.115 C 
HETATM   21  N4  UNL     1      27.620  -0.603  54.467  1.00  0.00    -0.421 N 
HETATM   22  C10 UNL     1      26.602   0.234  55.026  1.00  0.00     0.115 C 
HETATM   23  H15 UNL     1      27.584  -1.602  54.745  1.00  0.00     0.153 HD
HETATM   24  C11 UNL     1      26.339   1.361  54.044  1.00  0.00     0.047 C 
ENDBRANCH  13  17
ENDBRANCH   1  13
TORSDOF 5
ENDMDL
