MODEL 1
REMARK VINA RESULT:      -8.1      0.000      0.000
REMARK  4 active torsions:
REMARK  status: ('A' for Active; 'I' for Inactive)
REMARK    1  A    between atoms: O1_1  and  O2_2 
REMARK    2  A    between atoms: O2_2  and  C1_3 
REMARK    3  A    between atoms: C6_8  and  C7_9 
REMARK    4  A    between atoms: N3_18  and  C14_19 
ROOT
HETATM    1  C7  UNL     1      21.162   3.519  48.632  1.00  0.00     0.126 C 
HETATM    2  C8  UNL     1      22.535   3.126  48.253  1.00  0.00    -0.005 C 
HETATM    3  C9  UNL     1      23.468   2.536  48.976  1.00  0.00    -0.000 C 
HETATM    4  C10 UNL     1      23.492   2.074  50.357  1.00  0.00     0.034 C 
HETATM    5  C11 UNL     1      22.492   1.760  51.143  1.00  0.00     0.094 A 
HETATM    6  C12 UNL     1      21.062   1.737  51.004  1.00  0.00     0.124 A 
HETATM    7  N1  UNL     1      20.331   1.379  52.004  1.00  0.00    -0.231 NA
HETATM    8  C13 UNL     1      20.919   1.006  53.242  1.00  0.00     0.256 A 
HETATM    9  N2  UNL     1      22.197   1.007  53.424  1.00  0.00    -0.160 NA
HETATM   10  N3  UNL     1      23.092   1.385  52.387  1.00  0.00    -0.230 N 
HETATM   11  S1  UNL     1      20.257   2.195  49.480  1.00  0.00    -0.093 SA
ENDROOT
BRANCH   1  12
HETATM   12  C6  UNL     1      21.184   4.759  49.380  1.00  0.00     0.030 C 
HETATM   13  C5  UNL     1      22.256   5.420  49.798  1.00  0.00    -0.048 C 
HETATM   14  C4  UNL     1      21.914   5.717  51.302  1.00  0.00     0.093 C 
HETATM   15  C20 UNL     1      23.515   6.170  49.653  1.00  0.00     0.075 C 
HETATM   16  C3  UNL     1      21.171   6.782  50.437  1.00  0.00     0.012 C 
HETATM   17  C2  UNL     1      21.735   7.967  50.389  1.00  0.00     0.033 C 
HETATM   18  N4  UNL     1      20.175   5.809  49.868  1.00  0.00    -0.361 N 
HETATM   19  C1  UNL     1      23.234   7.649  50.116  1.00  0.00     0.189 C 
HETATM   20  H14 UNL     1      19.154   5.885  49.801  1.00  0.00     0.165 HD
BRANCH  19  21
HETATM   21  O2  UNL     1      23.903   7.900  51.278  1.00  0.00    -0.234 OA
BRANCH  21  22
HETATM   22  O1  UNL     1      25.031   7.226  51.264  1.00  0.00    -0.250 OA
HETATM   23  H1  UNL     1      25.757   7.691  51.736  1.00  0.00     0.253 HD
ENDBRANCH  21  22
ENDBRANCH  19  21
ENDBRANCH   1  12
BRANCH  10  24
HETATM   24  C14 UNL     1      24.444   1.317  52.793  1.00  0.00     0.060 A 
HETATM   25  C15 UNL     1      25.324   2.254  53.350  1.00  0.00     0.035 A 
HETATM   26  C16 UNL     1      26.614   1.906  53.675  1.00  0.00     0.046 A 
HETATM   27  C17 UNL     1      27.106   0.635  53.475  1.00  0.00     0.138 A 
HETATM   28  F1  UNL     1      28.387   0.354  53.815  1.00  0.00    -0.204 F 
HETATM   29  C18 UNL     1      26.273  -0.317  52.928  1.00  0.00     0.074 A 
HETATM   30 CL1  UNL     1      26.948  -1.896  52.699  1.00  0.00    -0.081 Cl
HETATM   31  C19 UNL     1      24.979   0.035  52.603  1.00  0.00     0.058 A 
ENDBRANCH  10  24
TORSDOF 4
ENDMDL
MODEL 2
REMARK VINA RESULT:      -8.1      3.378      4.621
REMARK  4 active torsions:
REMARK  status: ('A' for Active; 'I' for Inactive)
REMARK    1  A    between atoms: O1_1  and  O2_2 
REMARK    2  A    between atoms: O2_2  and  C1_3 
REMARK    3  A    between atoms: C6_8  and  C7_9 
REMARK    4  A    between atoms: N3_18  and  C14_19 
ROOT
HETATM    1  C7  UNL     1      22.038   5.477  50.958  1.00  0.00     0.126 C 
HETATM    2  C8  UNL     1      22.199   4.816  52.269  1.00  0.00    -0.005 C 
HETATM    3  C9  UNL     1      23.175   4.041  52.704  1.00  0.00    -0.000 C 
HETATM    4  C10 UNL     1      24.403   3.570  52.080  1.00  0.00     0.034 C 
HETATM    5  C11 UNL     1      25.072   4.081  51.077  1.00  0.00     0.094 A 
HETATM    6  C12 UNL     1      24.904   5.226  50.225  1.00  0.00     0.124 A 
HETATM    7  N1  UNL     1      25.761   5.453  49.289  1.00  0.00    -0.231 NA
HETATM    8  C13 UNL     1      26.869   4.588  49.086  1.00  0.00     0.256 A 
HETATM    9  N2  UNL     1      27.070   3.547  49.821  1.00  0.00    -0.160 NA
HETATM   10  N3  UNL     1      26.187   3.205  50.880  1.00  0.00    -0.230 N 
HETATM   11  S1  UNL     1      23.535   6.351  50.420  1.00  0.00    -0.093 SA
ENDROOT
BRANCH   1  12
HETATM   12  C6  UNL     1      21.552   4.531  49.976  1.00  0.00     0.030 C 
HETATM   13  C5  UNL     1      21.501   4.701  48.661  1.00  0.00    -0.048 C 
HETATM   14  C4  UNL     1      20.039   4.246  48.310  1.00  0.00     0.093 C 
HETATM   15  C20 UNL     1      22.046   4.925  47.311  1.00  0.00     0.075 C 
HETATM   16  C3  UNL     1      20.906   2.957  48.455  1.00  0.00     0.012 C 
HETATM   17  C2  UNL     1      21.290   2.403  47.328  1.00  0.00     0.033 C 
HETATM   18  N4  UNL     1      21.061   3.076  49.946  1.00  0.00    -0.361 N 
HETATM   19  C1  UNL     1      21.813   3.604  46.488  1.00  0.00     0.189 C 
HETATM   20  H14 UNL     1      20.922   2.368  50.675  1.00  0.00     0.165 HD
BRANCH  19  21
HETATM   21  O2  UNL     1      20.887   3.829  45.512  1.00  0.00    -0.234 OA
BRANCH  21  22
HETATM   22  O1  UNL     1      21.424   3.532  44.351  1.00  0.00    -0.250 OA
HETATM   23  H1  UNL     1      20.782   3.593  43.609  1.00  0.00     0.253 HD
ENDBRANCH  21  22
ENDBRANCH  19  21
ENDBRANCH   1  12
BRANCH  10  24
HETATM   24  C14 UNL     1      26.589   2.031  51.558  1.00  0.00     0.060 A 
HETATM   25  C15 UNL     1      26.214   0.686  51.445  1.00  0.00     0.035 A 
HETATM   26  C16 UNL     1      26.793  -0.277  52.236  1.00  0.00     0.046 A 
HETATM   27  C17 UNL     1      27.760   0.021  53.171  1.00  0.00     0.138 A 
HETATM   28  F1  UNL     1      28.292  -0.973  53.922  1.00  0.00    -0.204 F 
HETATM   29  C18 UNL     1      28.157   1.334  53.314  1.00  0.00     0.074 A 
HETATM   30 CL1  UNL     1      29.375   1.646  54.505  1.00  0.00    -0.081 Cl
HETATM   31  C19 UNL     1      27.574   2.298  52.518  1.00  0.00     0.058 A 
ENDBRANCH  10  24
TORSDOF 4
ENDMDL
MODEL 3
REMARK VINA RESULT:      -8.0      3.630      4.943
REMARK  4 active torsions:
REMARK  status: ('A' for Active; 'I' for Inactive)
REMARK    1  A    between atoms: O1_1  and  O2_2 
REMARK    2  A    between atoms: O2_2  and  C1_3 
REMARK    3  A    between atoms: C6_8  and  C7_9 
REMARK    4  A    between atoms: N3_18  and  C14_19 
ROOT
HETATM    1  C7  UNL     1      22.085   5.428  51.092  1.00  0.00     0.126 C 
HETATM    2  C8  UNL     1      22.303   4.825  52.423  1.00  0.00    -0.005 C 
HETATM    3  C9  UNL     1      23.292   4.063  52.848  1.00  0.00    -0.000 C 
HETATM    4  C10 UNL     1      24.488   3.554  52.190  1.00  0.00     0.034 C 
HETATM    5  C11 UNL     1      25.112   4.013  51.134  1.00  0.00     0.094 A 
HETATM    6  C12 UNL     1      24.912   5.119  50.239  1.00  0.00     0.124 A 
HETATM    7  N1  UNL     1      25.725   5.297  49.255  1.00  0.00    -0.231 NA
HETATM    8  C13 UNL     1      26.817   4.415  49.041  1.00  0.00     0.256 A 
HETATM    9  N2  UNL     1      27.046   3.406  49.813  1.00  0.00    -0.160 NA
HETATM   10  N3  UNL     1      26.211   3.120  50.926  1.00  0.00    -0.230 N 
HETATM   11  S1  UNL     1      23.560   6.264  50.446  1.00  0.00    -0.093 SA
ENDROOT
BRANCH   1  12
HETATM   12  C6  UNL     1      21.547   4.442  50.177  1.00  0.00     0.030 C 
HETATM   13  C5  UNL     1      20.706   3.458  50.468  1.00  0.00    -0.048 C 
HETATM   14  C4  UNL     1      21.381   2.214  49.786  1.00  0.00     0.093 C 
HETATM   15  C20 UNL     1      19.440   2.861  50.926  1.00  0.00     0.075 C 
HETATM   16  C3  UNL     1      20.619   2.998  48.674  1.00  0.00     0.012 C 
HETATM   17  C2  UNL     1      19.460   2.493  48.318  1.00  0.00     0.033 C 
HETATM   18  N4  UNL     1      21.569   4.163  48.667  1.00  0.00    -0.361 N 
HETATM   19  C1  UNL     1      18.761   2.189  49.675  1.00  0.00     0.189 C 
HETATM   20  H14 UNL     1      22.026   4.628  47.874  1.00  0.00     0.165 HD
BRANCH  19  21
HETATM   21  O2  UNL     1      18.772   0.832  49.823  1.00  0.00    -0.234 OA
BRANCH  21  22
HETATM   22  O1  UNL     1      17.613   0.360  49.422  1.00  0.00    -0.250 OA
HETATM   23  H1  UNL     1      17.302  -0.396  49.966  1.00  0.00     0.253 HD
ENDBRANCH  21  22
ENDBRANCH  19  21
ENDBRANCH   1  12
BRANCH  10  24
HETATM   24  C14 UNL     1      26.637   1.975  51.637  1.00  0.00     0.060 A 
HETATM   25  C15 UNL     1      26.278   0.622  51.576  1.00  0.00     0.035 A 
HETATM   26  C16 UNL     1      26.879  -0.307  52.391  1.00  0.00     0.046 A 
HETATM   27  C17 UNL     1      27.855   0.035  53.301  1.00  0.00     0.138 A 
HETATM   28  F1  UNL     1      28.410  -0.926  54.078  1.00  0.00    -0.204 F 
HETATM   29  C18 UNL     1      28.237   1.357  53.395  1.00  0.00     0.074 A 
HETATM   30 CL1  UNL     1      29.467   1.725  54.558  1.00  0.00    -0.081 Cl
HETATM   31  C19 UNL     1      27.632   2.287  52.575  1.00  0.00     0.058 A 
ENDBRANCH  10  24
TORSDOF 4
ENDMDL
MODEL 4
REMARK VINA RESULT:      -8.0      3.709      6.676
REMARK  4 active torsions:
REMARK  status: ('A' for Active; 'I' for Inactive)
REMARK    1  A    between atoms: O1_1  and  O2_2 
REMARK    2  A    between atoms: O2_2  and  C1_3 
REMARK    3  A    between atoms: C6_8  and  C7_9 
REMARK    4  A    between atoms: N3_18  and  C14_19 
ROOT
HETATM    1  C7  UNL     1      23.298   1.703  53.126  1.00  0.00     0.126 C 
HETATM    2  C8  UNL     1      23.502   3.126  53.464  1.00  0.00    -0.005 C 
HETATM    3  C9  UNL     1      23.678   4.162  52.666  1.00  0.00    -0.000 C 
HETATM    4  C10 UNL     1      23.735   4.282  51.216  1.00  0.00     0.034 C 
HETATM    5  C11 UNL     1      23.248   3.484  50.298  1.00  0.00     0.094 A 
HETATM    6  C12 UNL     1      22.512   2.249  50.315  1.00  0.00     0.124 A 
HETATM    7  N1  UNL     1      22.182   1.690  49.202  1.00  0.00    -0.231 NA
HETATM    8  C13 UNL     1      22.534   2.277  47.957  1.00  0.00     0.256 A 
HETATM    9  N2  UNL     1      23.193   3.384  47.881  1.00  0.00    -0.160 NA
HETATM   10  N3  UNL     1      23.606   4.082  49.048  1.00  0.00    -0.230 N 
HETATM   11  S1  UNL     1      22.040   1.456  51.841  1.00  0.00    -0.093 SA
ENDROOT
BRANCH   1  12
HETATM   12  C6  UNL     1      24.564   1.077  52.805  1.00  0.00     0.030 C 
HETATM   13  C5  UNL     1      25.775   1.582  52.998  1.00  0.00    -0.048 C 
HETATM   14  C4  UNL     1      26.478   1.335  51.615  1.00  0.00     0.093 C 
HETATM   15  C20 UNL     1      26.905   2.106  53.785  1.00  0.00     0.075 C 
HETATM   16  C3  UNL     1      26.534  -0.005  52.411  1.00  0.00     0.012 C 
HETATM   17  C2  UNL     1      27.686  -0.277  52.981  1.00  0.00     0.033 C 
HETATM   18  N4  UNL     1      25.062  -0.284  52.294  1.00  0.00    -0.361 N 
HETATM   19  C1  UNL     1      28.076   1.060  53.676  1.00  0.00     0.189 C 
HETATM   20  H14 UNL     1      24.581  -1.144  52.009  1.00  0.00     0.165 HD
BRANCH  19  21
HETATM   21  O2  UNL     1      29.100   1.592  52.949  1.00  0.00    -0.234 OA
BRANCH  21  22
HETATM   22  O1  UNL     1      29.132   2.888  53.160  1.00  0.00    -0.250 OA
HETATM   23  H1  UNL     1      29.777   3.352  52.582  1.00  0.00     0.253 HD
ENDBRANCH  21  22
ENDBRANCH  19  21
ENDBRANCH   1  12
BRANCH  10  24
HETATM   24  C14 UNL     1      24.312   5.268  48.743  1.00  0.00     0.060 A 
HETATM   25  C15 UNL     1      23.905   6.581  48.472  1.00  0.00     0.035 A 
HETATM   26  C16 UNL     1      24.826   7.569  48.220  1.00  0.00     0.046 A 
HETATM   27  C17 UNL     1      26.182   7.327  48.220  1.00  0.00     0.138 A 
HETATM   28  F1  UNL     1      27.042   8.343  47.963  1.00  0.00    -0.204 F 
HETATM   29  C18 UNL     1      26.626   6.048  48.482  1.00  0.00     0.074 A 
HETATM   30 CL1  UNL     1      28.341   5.807  48.468  1.00  0.00    -0.081 Cl
HETATM   31  C19 UNL     1      25.698   5.058  48.735  1.00  0.00     0.058 A 
ENDBRANCH  10  24
TORSDOF 4
ENDMDL
MODEL 5
REMARK VINA RESULT:      -8.0      3.440      4.095
REMARK  4 active torsions:
REMARK  status: ('A' for Active; 'I' for Inactive)
REMARK    1  A    between atoms: O1_1  and  O2_2 
REMARK    2  A    between atoms: O2_2  and  C1_3 
REMARK    3  A    between atoms: C6_8  and  C7_9 
REMARK    4  A    between atoms: N3_18  and  C14_19 
ROOT
HETATM    1  C7  UNL     1      22.311   4.409  47.910  1.00  0.00     0.126 C 
HETATM    2  C8  UNL     1      22.789   3.015  48.000  1.00  0.00    -0.005 C 
HETATM    3  C9  UNL     1      22.457   2.067  48.856  1.00  0.00    -0.000 C 
HETATM    4  C10 UNL     1      21.534   2.044  49.982  1.00  0.00     0.034 C 
HETATM    5  C11 UNL     1      20.503   2.814  50.224  1.00  0.00     0.094 A 
HETATM    6  C12 UNL     1      19.884   3.922  49.549  1.00  0.00     0.124 A 
HETATM    7  N1  UNL     1      18.853   4.491  50.073  1.00  0.00    -0.231 NA
HETATM    8  C13 UNL     1      18.319   4.040  51.309  1.00  0.00     0.256 A 
HETATM    9  N2  UNL     1      18.833   3.050  51.959  1.00  0.00    -0.160 NA
HETATM   10  N3  UNL     1      19.970   2.353  51.470  1.00  0.00    -0.230 N 
HETATM   11  S1  UNL     1      20.504   4.542  47.996  1.00  0.00    -0.093 SA
ENDROOT
BRANCH   1  12
HETATM   12  C6  UNL     1      22.986   5.235  48.889  1.00  0.00     0.030 C 
HETATM   13  C5  UNL     1      24.161   5.835  48.753  1.00  0.00    -0.048 C 
HETATM   14  C4  UNL     1      24.901   5.451  50.086  1.00  0.00     0.093 C 
HETATM   15  C20 UNL     1      25.136   6.768  48.162  1.00  0.00     0.075 C 
HETATM   16  C3  UNL     1      23.945   6.641  50.409  1.00  0.00     0.012 C 
HETATM   17  C2  UNL     1      24.518   7.820  50.496  1.00  0.00     0.033 C 
HETATM   18  N4  UNL     1      22.685   5.832  50.272  1.00  0.00    -0.361 N 
HETATM   19  C1  UNL     1      25.434   7.876  49.240  1.00  0.00     0.189 C 
HETATM   20  H14 UNL     1      21.879   5.768  50.904  1.00  0.00     0.165 HD
BRANCH  19  21
HETATM   21  O2  UNL     1      26.717   7.746  49.688  1.00  0.00    -0.234 OA
BRANCH  21  22
HETATM   22  O1  UNL     1      26.830   8.397  50.823  1.00  0.00    -0.250 OA
HETATM   23  H1  UNL     1      27.749   8.698  50.998  1.00  0.00     0.253 HD
ENDBRANCH  21  22
ENDBRANCH  19  21
ENDBRANCH   1  12
BRANCH  10  24
HETATM   24  C14 UNL     1      20.371   1.306  52.331  1.00  0.00     0.060 A 
HETATM   25  C15 UNL     1      21.549   1.052  53.044  1.00  0.00     0.035 A 
HETATM   26  C16 UNL     1      21.667  -0.061  53.842  1.00  0.00     0.046 A 
HETATM   27  C17 UNL     1      20.647  -0.976  53.984  1.00  0.00     0.138 A 
HETATM   28  F1  UNL     1      20.823  -2.054  54.784  1.00  0.00    -0.204 F 
HETATM   29  C18 UNL     1      19.469  -0.764  53.297  1.00  0.00     0.074 A 
HETATM   30 CL1  UNL     1      18.225  -1.948  53.515  1.00  0.00    -0.081 Cl
HETATM   31  C19 UNL     1      19.354   0.355  52.498  1.00  0.00     0.058 A 
ENDBRANCH  10  24
TORSDOF 4
ENDMDL
MODEL 6
REMARK VINA RESULT:      -7.9      8.522     10.039
REMARK  4 active torsions:
REMARK  status: ('A' for Active; 'I' for Inactive)
REMARK    1  A    between atoms: O1_1  and  O2_2 
REMARK    2  A    between atoms: O2_2  and  C1_3 
REMARK    3  A    between atoms: C6_8  and  C7_9 
REMARK    4  A    between atoms: N3_18  and  C14_19 
ROOT
HETATM    1  C7  UNL     1      29.331  10.189  48.160  1.00  0.00     0.126 C 
HETATM    2  C8  UNL     1      30.286   9.796  49.217  1.00  0.00    -0.005 C 
HETATM    3  C9  UNL     1      31.296   8.949  49.163  1.00  0.00    -0.000 C 
HETATM    4  C10 UNL     1      31.823   8.121  48.087  1.00  0.00     0.034 C 
HETATM    5  C11 UNL     1      31.697   8.267  46.791  1.00  0.00     0.094 A 
HETATM    6  C12 UNL     1      31.043   9.219  45.937  1.00  0.00     0.124 A 
HETATM    7  N1  UNL     1      31.098   9.070  44.658  1.00  0.00    -0.231 NA
HETATM    8  C13 UNL     1      31.797   7.978  44.079  1.00  0.00     0.256 A 
HETATM    9  N2  UNL     1      32.403   7.093  44.797  1.00  0.00    -0.160 NA
HETATM   10  N3  UNL     1      32.404   7.164  46.216  1.00  0.00    -0.230 N 
HETATM   11  S1  UNL     1      30.145  10.613  46.595  1.00  0.00    -0.093 SA
ENDROOT
BRANCH   1  12
HETATM   12  C6  UNL     1      28.306   9.177  48.009  1.00  0.00     0.030 C 
HETATM   13  C5  UNL     1      27.595   8.610  48.975  1.00  0.00    -0.048 C 
HETATM   14  C4  UNL     1      27.706   7.081  48.632  1.00  0.00     0.093 C 
HETATM   15  C20 UNL     1      26.642   8.568  50.097  1.00  0.00     0.075 C 
HETATM   16  C3  UNL     1      26.605   7.686  47.708  1.00  0.00     0.012 C 
HETATM   17  C2  UNL     1      25.365   7.457  48.078  1.00  0.00     0.033 C 
HETATM   18  N4  UNL     1      27.568   8.471  46.861  1.00  0.00    -0.361 N 
HETATM   19  C1  UNL     1      25.371   7.783  49.600  1.00  0.00     0.189 C 
HETATM   20  H14 UNL     1      27.642   8.528  45.840  1.00  0.00     0.165 HD
BRANCH  19  21
HETATM   21  O2  UNL     1      25.287   6.588  50.254  1.00  0.00    -0.234 OA
BRANCH  21  22
HETATM   22  O1  UNL     1      24.934   6.817  51.498  1.00  0.00    -0.250 OA
HETATM   23  H1  UNL     1      25.364   6.203  52.134  1.00  0.00     0.253 HD
ENDBRANCH  21  22
ENDBRANCH  19  21
ENDBRANCH   1  12
BRANCH  10  24
HETATM   24  C14 UNL     1      33.124   6.100  46.807  1.00  0.00     0.060 A 
HETATM   25  C15 UNL     1      34.286   6.049  47.587  1.00  0.00     0.035 A 
HETATM   26  C16 UNL     1      34.769   4.851  48.057  1.00  0.00     0.046 A 
HETATM   27  C17 UNL     1      34.147   3.651  47.792  1.00  0.00     0.138 A 
HETATM   28  F1  UNL     1      34.672   2.503  48.283  1.00  0.00    -0.204 F 
HETATM   29  C18 UNL     1      33.000   3.657  47.026  1.00  0.00     0.074 A 
HETATM   30 CL1  UNL     1      32.264   2.119  46.726  1.00  0.00    -0.081 Cl
HETATM   31  C19 UNL     1      32.518   4.861  46.555  1.00  0.00     0.058 A 
ENDBRANCH  10  24
TORSDOF 4
ENDMDL
MODEL 7
REMARK VINA RESULT:      -7.8      4.139      7.124
REMARK  4 active torsions:
REMARK  status: ('A' for Active; 'I' for Inactive)
REMARK    1  A    between atoms: O1_1  and  O2_2 
REMARK    2  A    between atoms: O2_2  and  C1_3 
REMARK    3  A    between atoms: C6_8  and  C7_9 
REMARK    4  A    between atoms: N3_18  and  C14_19 
ROOT
HETATM    1  C7  UNL     1      21.967   1.233  52.256  1.00  0.00     0.126 C 
HETATM    2  C8  UNL     1      21.515   2.545  52.763  1.00  0.00    -0.005 C 
HETATM    3  C9  UNL     1      21.459   3.710  52.145  1.00  0.00    -0.000 C 
HETATM    4  C10 UNL     1      21.807   4.117  50.791  1.00  0.00     0.034 C 
HETATM    5  C11 UNL     1      21.902   3.391  49.705  1.00  0.00     0.094 A 
HETATM    6  C12 UNL     1      21.723   1.998  49.398  1.00  0.00     0.124 A 
HETATM    7  N1  UNL     1      21.910   1.583  48.192  1.00  0.00    -0.231 NA
HETATM    8  C13 UNL     1      22.292   2.483  47.161  1.00  0.00     0.256 A 
HETATM    9  N2  UNL     1      22.466   3.743  47.378  1.00  0.00    -0.160 NA
HETATM   10  N3  UNL     1      22.285   4.304  48.671  1.00  0.00    -0.230 N 
HETATM   11  S1  UNL     1      21.248   0.814  50.644  1.00  0.00    -0.093 SA
ENDROOT
BRANCH   1  12
HETATM   12  C6  UNL     1      23.413   1.163  52.267  1.00  0.00     0.030 C 
HETATM   13  C5  UNL     1      24.176   0.543  53.157  1.00  0.00    -0.048 C 
HETATM   14  C4  UNL     1      25.254   1.631  53.505  1.00  0.00     0.093 C 
HETATM   15  C20 UNL     1      24.702  -0.609  53.910  1.00  0.00     0.075 C 
HETATM   16  C3  UNL     1      25.684   0.962  52.163  1.00  0.00     0.012 C 
HETATM   17  C2  UNL     1      26.639   0.066  52.258  1.00  0.00     0.033 C 
HETATM   18  N4  UNL     1      24.577   1.580  51.354  1.00  0.00    -0.361 N 
HETATM   19  C1  UNL     1      26.196  -0.816  53.461  1.00  0.00     0.189 C 
HETATM   20  H14 UNL     1      24.622   2.071  50.455  1.00  0.00     0.165 HD
BRANCH  19  21
HETATM   21  O2  UNL     1      27.031  -0.509  54.496  1.00  0.00    -0.234 OA
BRANCH  21  22
HETATM   22  O1  UNL     1      28.247  -0.893  54.179  1.00  0.00    -0.250 OA
HETATM   23  H1  UNL     1      28.573  -1.627  54.745  1.00  0.00     0.253 HD
ENDBRANCH  21  22
ENDBRANCH  19  21
ENDBRANCH   1  12
BRANCH  10  24
HETATM   24  C14 UNL     1      22.526   5.697  48.691  1.00  0.00     0.060 A 
HETATM   25  C15 UNL     1      21.720   6.802  48.993  1.00  0.00     0.035 A 
HETATM   26  C16 UNL     1      22.226   8.079  48.950  1.00  0.00     0.046 A 
HETATM   27  C17 UNL     1      23.536   8.340  48.611  1.00  0.00     0.138 A 
HETATM   28  F1  UNL     1      23.977   9.620  48.585  1.00  0.00    -0.204 F 
HETATM   29  C18 UNL     1      24.363   7.279  48.305  1.00  0.00     0.074 A 
HETATM   30 CL1  UNL     1      25.998   7.670  47.887  1.00  0.00    -0.081 Cl
HETATM   31  C19 UNL     1      23.851   5.999  48.350  1.00  0.00     0.058 A 
ENDBRANCH  10  24
TORSDOF 4
ENDMDL
MODEL 8
REMARK VINA RESULT:      -7.7      2.198      2.828
REMARK  4 active torsions:
REMARK  status: ('A' for Active; 'I' for Inactive)
REMARK    1  A    between atoms: O1_1  and  O2_2 
REMARK    2  A    between atoms: O2_2  and  C1_3 
REMARK    3  A    between atoms: C6_8  and  C7_9 
REMARK    4  A    between atoms: N3_18  and  C14_19 
ROOT
HETATM    1  C7  UNL     1      21.439   4.080  47.059  1.00  0.00     0.126 C 
HETATM    2  C8  UNL     1      22.271   2.860  47.072  1.00  0.00    -0.005 C 
HETATM    3  C9  UNL     1      22.541   2.039  48.070  1.00  0.00    -0.000 C 
HETATM    4  C10 UNL     1      22.137   2.031  49.469  1.00  0.00     0.034 C 
HETATM    5  C11 UNL     1      21.100   2.597  50.035  1.00  0.00     0.094 A 
HETATM    6  C12 UNL     1      20.005   3.404  49.569  1.00  0.00     0.124 A 
HETATM    7  N1  UNL     1      19.126   3.830  50.410  1.00  0.00    -0.231 NA
HETATM    8  C13 UNL     1      19.223   3.514  51.791  1.00  0.00     0.256 A 
HETATM    9  N2  UNL     1      20.183   2.793  52.265  1.00  0.00    -0.160 NA
HETATM   10  N3  UNL     1      21.204   2.273  51.425  1.00  0.00    -0.230 N 
HETATM   11  S1  UNL     1      19.823   3.841  47.850  1.00  0.00    -0.093 SA
ENDROOT
BRANCH   1  12
HETATM   12  C6  UNL     1      22.178   5.197  47.608  1.00  0.00     0.030 C 
HETATM   13  C5  UNL     1      23.127   5.149  48.534  1.00  0.00    -0.048 C 
HETATM   14  C4  UNL     1      22.689   6.275  49.537  1.00  0.00     0.093 C 
HETATM   15  C20 UNL     1      24.428   4.766  49.109  1.00  0.00     0.075 C 
HETATM   16  C3  UNL     1      23.412   6.971  48.343  1.00  0.00     0.012 C 
HETATM   17  C2  UNL     1      24.655   7.333  48.566  1.00  0.00     0.033 C 
HETATM   18  N4  UNL     1      22.308   6.707  47.356  1.00  0.00    -0.361 N 
HETATM   19  C1  UNL     1      25.287   6.078  49.236  1.00  0.00     0.189 C 
HETATM   20  H14 UNL     1      21.850   7.351  46.702  1.00  0.00     0.165 HD
BRANCH  19  21
HETATM   21  O2  UNL     1      25.460   6.387  50.554  1.00  0.00    -0.234 OA
BRANCH  21  22
HETATM   22  O1  UNL     1      26.232   7.446  50.636  1.00  0.00    -0.250 OA
HETATM   23  H1  UNL     1      25.851   8.230  50.182  1.00  0.00     0.253 HD
ENDBRANCH  21  22
ENDBRANCH  19  21
ENDBRANCH   1  12
BRANCH  10  24
HETATM   24  C14 UNL     1      22.156   1.514  52.142  1.00  0.00     0.060 A 
HETATM   25  C15 UNL     1      23.541   1.636  52.319  1.00  0.00     0.035 A 
HETATM   26  C16 UNL     1      24.234   0.746  53.104  1.00  0.00     0.046 A 
HETATM   27  C17 UNL     1      23.615  -0.301  53.752  1.00  0.00     0.138 A 
HETATM   28  F1  UNL     1      24.353  -1.146  54.512  1.00  0.00    -0.204 F 
HETATM   29  C18 UNL     1      22.253  -0.457  53.603  1.00  0.00     0.074 A 
HETATM   30 CL1  UNL     1      21.533  -1.791  54.441  1.00  0.00    -0.081 Cl
HETATM   31  C19 UNL     1      21.560   0.438  52.815  1.00  0.00     0.058 A 
ENDBRANCH  10  24
TORSDOF 4
ENDMDL
MODEL 9
REMARK VINA RESULT:      -7.7      4.409      6.810
REMARK  4 active torsions:
REMARK  status: ('A' for Active; 'I' for Inactive)
REMARK    1  A    between atoms: O1_1  and  O2_2 
REMARK    2  A    between atoms: O2_2  and  C1_3 
REMARK    3  A    between atoms: C6_8  and  C7_9 
REMARK    4  A    between atoms: N3_18  and  C14_19 
ROOT
HETATM    1  C7  UNL     1      19.857   2.548  51.996  1.00  0.00     0.126 C 
HETATM    2  C8  UNL     1      20.475   3.802  52.470  1.00  0.00    -0.005 C 
HETATM    3  C9  UNL     1      21.401   4.550  51.901  1.00  0.00    -0.000 C 
HETATM    4  C10 UNL     1      22.127   4.421  50.645  1.00  0.00     0.034 C 
HETATM    5  C11 UNL     1      21.801   3.759  49.562  1.00  0.00     0.094 A 
HETATM    6  C12 UNL     1      20.686   2.942  49.172  1.00  0.00     0.124 A 
HETATM    7  N1  UNL     1      20.670   2.404  48.000  1.00  0.00    -0.231 NA
HETATM    8  C13 UNL     1      21.739   2.609  47.089  1.00  0.00     0.256 A 
HETATM    9  N2  UNL     1      22.765   3.334  47.384  1.00  0.00    -0.160 NA
HETATM   10  N3  UNL     1      22.882   3.972  48.649  1.00  0.00    -0.230 N 
HETATM   11  S1  UNL     1      19.311   2.640  50.268  1.00  0.00    -0.093 SA
ENDROOT
BRANCH   1  12
HETATM   12  C6  UNL     1      20.737   1.427  52.252  1.00  0.00     0.030 C 
HETATM   13  C5  UNL     1      21.090   0.944  53.436  1.00  0.00    -0.048 C 
HETATM   14  C4  UNL     1      22.650   0.812  53.303  1.00  0.00     0.093 C 
HETATM   15  C20 UNL     1      20.878   0.320  54.753  1.00  0.00     0.075 C 
HETATM   16  C3  UNL     1      22.016  -0.430  52.603  1.00  0.00     0.012 C 
HETATM   17  C2  UNL     1      22.037  -1.544  53.298  1.00  0.00     0.033 C 
HETATM   18  N4  UNL     1      21.468   0.347  51.439  1.00  0.00    -0.361 N 
HETATM   19  C1  UNL     1      21.542  -1.106  54.707  1.00  0.00     0.189 C 
HETATM   20  H14 UNL     1      21.539   0.155  50.434  1.00  0.00     0.165 HD
BRANCH  19  21
HETATM   21  O2  UNL     1      22.632  -1.130  55.528  1.00  0.00    -0.234 OA
BRANCH  21  22
HETATM   22  O1  UNL     1      22.933  -2.383  55.783  1.00  0.00    -0.250 OA
HETATM   23  H1  UNL     1      23.888  -2.578  55.653  1.00  0.00     0.253 HD
ENDBRANCH  21  22
ENDBRANCH  19  21
ENDBRANCH   1  12
BRANCH  10  24
HETATM   24  C14 UNL     1      24.078   4.715  48.767  1.00  0.00     0.060 A 
HETATM   25  C15 UNL     1      25.343   4.415  49.288  1.00  0.00     0.035 A 
HETATM   26  C16 UNL     1      26.358   5.342  49.259  1.00  0.00     0.046 A 
HETATM   27  C17 UNL     1      26.190   6.600  48.723  1.00  0.00     0.138 A 
HETATM   28  F1  UNL     1      27.228   7.470  48.723  1.00  0.00    -0.204 F 
HETATM   29  C18 UNL     1      24.959   6.936  48.200  1.00  0.00     0.074 A 
HETATM   30 CL1  UNL     1      24.810   8.531  47.541  1.00  0.00    -0.081 Cl
HETATM   31  C19 UNL     1      23.943   6.003  48.231  1.00  0.00     0.058 A 
ENDBRANCH  10  24
TORSDOF 4
ENDMDL
