MODEL 1
REMARK VINA RESULT:      -8.7      0.000      0.000
REMARK  4 active torsions:
REMARK  status: ('A' for Active; 'I' for Inactive)
REMARK    1  A    between atoms: C2_2  and  C3_3 
REMARK       I    between atoms: C3_3  and  N1_5 
REMARK    2  A    between atoms: N1_5  and  C4_6 
REMARK    3  A    between atoms: N4_13  and  C9_14 
REMARK    4  A    between atoms: C16_23  and  O2_24 
ROOT
HETATM    1  C4  UNL     1      26.091   0.724  52.640  1.00  0.00     0.161 C 
HETATM    2  N2  UNL     1      25.913   1.624  51.713  1.00  0.00    -0.237 NA
HETATM    3  C5  UNL     1      24.563   2.131  51.585  1.00  0.00     0.267 A 
HETATM    4  C6  UNL     1      23.604   1.142  52.058  1.00  0.00     0.081 A 
HETATM    5  N3  UNL     1      22.448   0.953  51.482  1.00  0.00    -0.260 NA
HETATM    6  C7  UNL     1      22.114   1.725  50.339  1.00  0.00     0.134 A 
HETATM    7  C8  UNL     1      22.964   2.612  49.846  1.00  0.00     0.113 A 
HETATM    8  N4  UNL     1      24.248   2.844  50.409  1.00  0.00    -0.326 N 
HETATM    9  C15 UNL     1      23.825   0.178  53.131  1.00  0.00     0.072 C 
HETATM   10  C16 UNL     1      25.121  -0.061  53.437  1.00  0.00     0.116 C 
ENDROOT
BRANCH   8  11
HETATM   11  C9  UNL     1      25.156   3.748  49.804  1.00  0.00     0.038 A 
HETATM   12  C10 UNL     1      26.472   3.467  49.512  1.00  0.00     0.033 A 
HETATM   13  C11 UNL     1      27.363   4.331  48.918  1.00  0.00     0.046 A 
HETATM   14  C12 UNL     1      26.925   5.593  48.577  1.00  0.00     0.138 A 
HETATM   15  F1  UNL     1      27.784   6.459  47.992  1.00  0.00    -0.204 F 
HETATM   16  C13 UNL     1      25.617   5.944  48.841  1.00  0.00     0.074 A 
HETATM   17 CL1  UNL     1      25.123   7.548  48.388  1.00  0.00    -0.081 Cl
HETATM   18  C14 UNL     1      24.784   5.024  49.438  1.00  0.00     0.056 A 
ENDBRANCH   8  11
BRANCH   1  19
HETATM   19  N1  UNL     1      27.426   0.198  52.828  1.00  0.00    -0.310 N 
HETATM   20  C3  UNL     1      28.337   0.938  53.649  1.00  0.00     0.222 C 
HETATM   21  O1  UNL     1      28.011   2.023  54.206  1.00  0.00    -0.273 OA
HETATM   22  H6  UNL     1      27.806  -0.688  52.417  1.00  0.00     0.170 HD
BRANCH  20  23
HETATM   23  C2  UNL     1      29.731   0.422  53.866  1.00  0.00     0.099 C 
HETATM   24  C1  UNL     1      29.793  -1.049  53.594  1.00  0.00     0.014 C 
ENDBRANCH  20  23
ENDBRANCH   1  19
BRANCH  10  25
HETATM   25  O2  UNL     1      25.472  -0.966  54.414  1.00  0.00    -0.352 OA
HETATM   26  C17 UNL     1      24.527  -1.274  55.419  1.00  0.00     0.210 C 
ENDBRANCH  10  25
TORSDOF 4
ENDMDL
MODEL 2
REMARK VINA RESULT:      -8.5      3.545      6.115
REMARK  4 active torsions:
REMARK  status: ('A' for Active; 'I' for Inactive)
REMARK    1  A    between atoms: C2_2  and  C3_3 
REMARK       I    between atoms: C3_3  and  N1_5 
REMARK    2  A    between atoms: N1_5  and  C4_6 
REMARK    3  A    between atoms: N4_13  and  C9_14 
REMARK    4  A    between atoms: C16_23  and  O2_24 
ROOT
HETATM    1  C4  UNL     1      24.055   2.842  51.833  1.00  0.00     0.161 C 
HETATM    2  N2  UNL     1      24.854   1.981  52.403  1.00  0.00    -0.237 NA
HETATM    3  C5  UNL     1      24.265   0.695  52.715  1.00  0.00     0.267 A 
HETATM    4  C6  UNL     1      22.826   0.828  52.897  1.00  0.00     0.081 A 
HETATM    5  N3  UNL     1      22.166   0.152  53.797  1.00  0.00    -0.260 NA
HETATM    6  C7  UNL     1      22.877  -0.735  54.649  1.00  0.00     0.134 A 
HETATM    7  C8  UNL     1      24.189  -0.866  54.550  1.00  0.00     0.113 A 
HETATM    8  N4  UNL     1      24.968  -0.137  53.611  1.00  0.00    -0.326 N 
HETATM    9  C15 UNL     1      21.958   1.776  52.206  1.00  0.00     0.072 C 
HETATM   10  C16 UNL     1      22.586   2.841  51.657  1.00  0.00     0.116 C 
ENDROOT
BRANCH   8  11
HETATM   11  C9  UNL     1      26.380  -0.251  53.592  1.00  0.00     0.038 A 
HETATM   12  C10 UNL     1      27.079  -1.315  53.065  1.00  0.00     0.033 A 
HETATM   13  C11 UNL     1      28.449  -1.436  53.031  1.00  0.00     0.046 A 
HETATM   14  C12 UNL     1      29.211  -0.418  53.567  1.00  0.00     0.138 A 
HETATM   15  F1  UNL     1      30.560  -0.517  53.544  1.00  0.00    -0.204 F 
HETATM   16  C13 UNL     1      28.578   0.679  54.112  1.00  0.00     0.074 A 
HETATM   17 CL1  UNL     1      29.591   1.928  54.771  1.00  0.00    -0.081 Cl
HETATM   18  C14 UNL     1      27.201   0.729  54.109  1.00  0.00     0.056 A 
ENDBRANCH   8  11
BRANCH   1  19
HETATM   19  N1  UNL     1      24.596   4.136  51.477  1.00  0.00    -0.310 N 
HETATM   20  C3  UNL     1      25.194   4.290  50.185  1.00  0.00     0.222 C 
HETATM   21  O1  UNL     1      25.261   3.339  49.358  1.00  0.00    -0.273 OA
HETATM   22  H6  UNL     1      24.596   4.993  52.080  1.00  0.00     0.170 HD
BRANCH  20  23
HETATM   23  C2  UNL     1      25.766   5.620  49.783  1.00  0.00     0.099 C 
HETATM   24  C1  UNL     1      26.882   5.434  48.803  1.00  0.00     0.014 C 
ENDBRANCH  20  23
ENDBRANCH   1  19
BRANCH  10  25
HETATM   25  O2  UNL     1      21.883   3.825  50.995  1.00  0.00    -0.352 OA
HETATM   26  C17 UNL     1      20.612   4.195  51.490  1.00  0.00     0.210 C 
ENDBRANCH  10  25
TORSDOF 4
ENDMDL
MODEL 3
REMARK VINA RESULT:      -7.9      3.449      6.065
REMARK  4 active torsions:
REMARK  status: ('A' for Active; 'I' for Inactive)
REMARK    1  A    between atoms: C2_2  and  C3_3 
REMARK       I    between atoms: C3_3  and  N1_5 
REMARK    2  A    between atoms: N1_5  and  C4_6 
REMARK    3  A    between atoms: N4_13  and  C9_14 
REMARK    4  A    between atoms: C16_23  and  O2_24 
ROOT
HETATM    1  C4  UNL     1      24.607   3.252  50.339  1.00  0.00     0.161 C 
HETATM    2  N2  UNL     1      25.152   2.421  51.185  1.00  0.00    -0.237 NA
HETATM    3  C5  UNL     1      24.314   1.316  51.603  1.00  0.00     0.267 A 
HETATM    4  C6  UNL     1      22.907   1.678  51.495  1.00  0.00     0.081 A 
HETATM    5  N3  UNL     1      22.013   1.292  52.363  1.00  0.00    -0.260 NA
HETATM    6  C7  UNL     1      22.425   0.504  53.470  1.00  0.00     0.134 A 
HETATM    7  C8  UNL     1      23.696   0.177  53.636  1.00  0.00     0.113 A 
HETATM    8  N4  UNL     1      24.721   0.591  52.742  1.00  0.00    -0.326 N 
HETATM    9  C15 UNL     1      22.328   2.579  50.504  1.00  0.00     0.072 C 
HETATM   10  C16 UNL     1      23.202   3.417  49.901  1.00  0.00     0.116 C 
ENDROOT
BRANCH   8  11
HETATM   11  C9  UNL     1      26.080   0.283  53.000  1.00  0.00     0.038 A 
HETATM   12  C10 UNL     1      26.675  -0.933  52.747  1.00  0.00     0.033 A 
HETATM   13  C11 UNL     1      27.994  -1.244  52.984  1.00  0.00     0.046 A 
HETATM   14  C12 UNL     1      28.811  -0.273  53.523  1.00  0.00     0.138 A 
HETATM   15  F1  UNL     1      30.111  -0.557  53.764  1.00  0.00    -0.204 F 
HETATM   16  C13 UNL     1      28.282   0.970  53.802  1.00  0.00     0.074 A 
HETATM   17 CL1  UNL     1      29.360   2.153  54.479  1.00  0.00    -0.081 Cl
HETATM   18  C14 UNL     1      26.951   1.207  53.537  1.00  0.00     0.056 A 
ENDBRANCH   8  11
BRANCH   1  19
HETATM   19  N1  UNL     1      25.407   4.362  49.869  1.00  0.00    -0.310 N 
HETATM   20  C3  UNL     1      26.667   4.077  49.251  1.00  0.00     0.222 C 
HETATM   21  O1  UNL     1      27.094   2.898  49.108  1.00  0.00    -0.273 OA
HETATM   22  H6  UNL     1      25.155   5.377  49.934  1.00  0.00     0.170 HD
BRANCH  20  23
HETATM   23  C2  UNL     1      27.523   5.206  48.752  1.00  0.00     0.099 C 
HETATM   24  C1  UNL     1      26.699   6.441  48.556  1.00  0.00     0.014 C 
ENDBRANCH  20  23
ENDBRANCH   1  19
BRANCH  10  25
HETATM   25  O2  UNL     1      22.786   4.336  48.962  1.00  0.00    -0.352 OA
HETATM   26  C17 UNL     1      21.788   5.268  49.328  1.00  0.00     0.210 C 
ENDBRANCH  10  25
TORSDOF 4
ENDMDL
MODEL 4
REMARK VINA RESULT:      -7.9      3.725      6.346
REMARK  4 active torsions:
REMARK  status: ('A' for Active; 'I' for Inactive)
REMARK    1  A    between atoms: C2_2  and  C3_3 
REMARK       I    between atoms: C3_3  and  N1_5 
REMARK    2  A    between atoms: N1_5  and  C4_6 
REMARK    3  A    between atoms: N4_13  and  C9_14 
REMARK    4  A    between atoms: C16_23  and  O2_24 
ROOT
HETATM    1  C4  UNL     1      22.636   3.175  52.292  1.00  0.00     0.161 C 
HETATM    2  N2  UNL     1      23.507   2.285  52.683  1.00  0.00    -0.237 NA
HETATM    3  C5  UNL     1      22.992   0.943  52.862  1.00  0.00     0.267 A 
HETATM    4  C6  UNL     1      21.568   0.984  53.165  1.00  0.00     0.081 A 
HETATM    5  N3  UNL     1      21.005   0.167  54.012  1.00  0.00    -0.260 NA
HETATM    6  C7  UNL     1      21.811  -0.790  54.684  1.00  0.00     0.134 A 
HETATM    7  C8  UNL     1      23.116  -0.846  54.473  1.00  0.00     0.113 A 
HETATM    8  N4  UNL     1      23.792   0.035  53.586  1.00  0.00    -0.326 N 
HETATM    9  C15 UNL     1      20.615   1.973  52.672  1.00  0.00     0.072 C 
HETATM   10  C16 UNL     1      21.158   3.129  52.225  1.00  0.00     0.116 C 
ENDROOT
BRANCH   8  11
HETATM   11  C9  UNL     1      25.202  -0.010  53.448  1.00  0.00     0.038 A 
HETATM   12  C10 UNL     1      25.922  -1.119  53.060  1.00  0.00     0.033 A 
HETATM   13  C11 UNL     1      27.288  -1.176  52.915  1.00  0.00     0.046 A 
HETATM   14  C12 UNL     1      28.024  -0.038  53.175  1.00  0.00     0.138 A 
HETATM   15  F1  UNL     1      29.370  -0.072  53.038  1.00  0.00    -0.204 F 
HETATM   16  C13 UNL     1      27.369   1.110  53.569  1.00  0.00     0.074 A 
HETATM   17 CL1  UNL     1      28.349   2.510  53.882  1.00  0.00    -0.081 Cl
HETATM   18  C14 UNL     1      25.996   1.089  53.692  1.00  0.00     0.056 A 
ENDBRANCH   8  11
BRANCH   1  19
HETATM   19  N1  UNL     1      23.100   4.528  52.074  1.00  0.00    -0.310 N 
HETATM   20  C3  UNL     1      23.606   4.871  50.779  1.00  0.00     0.222 C 
HETATM   21  O1  UNL     1      23.657   4.036  49.835  1.00  0.00    -0.273 OA
HETATM   22  H6  UNL     1      23.106   5.301  52.781  1.00  0.00     0.170 HD
BRANCH  20  23
HETATM   23  C2  UNL     1      24.097   6.267  50.517  1.00  0.00     0.099 C 
HETATM   24  C1  UNL     1      22.986   7.254  50.699  1.00  0.00     0.014 C 
ENDBRANCH  20  23
ENDBRANCH   1  19
BRANCH  10  25
HETATM   25  O2  UNL     1      20.371   4.157  51.754  1.00  0.00    -0.352 OA
HETATM   26  C17 UNL     1      19.906   4.093  50.420  1.00  0.00     0.210 C 
ENDBRANCH  10  25
TORSDOF 4
ENDMDL
MODEL 5
REMARK VINA RESULT:      -7.5      3.663      6.002
REMARK  4 active torsions:
REMARK  status: ('A' for Active; 'I' for Inactive)
REMARK    1  A    between atoms: C2_2  and  C3_3 
REMARK       I    between atoms: C3_3  and  N1_5 
REMARK    2  A    between atoms: N1_5  and  C4_6 
REMARK    3  A    between atoms: N4_13  and  C9_14 
REMARK    4  A    between atoms: C16_23  and  O2_24 
ROOT
HETATM    1  C4  UNL     1      25.280   2.315  51.685  1.00  0.00     0.161 C 
HETATM    2  N2  UNL     1      24.002   2.062  51.764  1.00  0.00    -0.237 NA
HETATM    3  C5  UNL     1      23.567   1.426  52.990  1.00  0.00     0.267 A 
HETATM    4  C6  UNL     1      24.661   0.670  53.585  1.00  0.00     0.081 A 
HETATM    5  N3  UNL     1      24.481  -0.476  54.181  1.00  0.00    -0.260 NA
HETATM    6  C7  UNL     1      23.171  -1.023  54.238  1.00  0.00     0.134 A 
HETATM    7  C8  UNL     1      22.148  -0.396  53.683  1.00  0.00     0.113 A 
HETATM    8  N4  UNL     1      22.284   0.840  52.994  1.00  0.00    -0.326 N 
HETATM    9  C15 UNL     1      26.078   1.011  53.511  1.00  0.00     0.072 C 
HETATM   10  C16 UNL     1      26.418   1.859  52.514  1.00  0.00     0.116 C 
ENDROOT
BRANCH   8  11
HETATM   11  C9  UNL     1      21.174   1.439  52.348  1.00  0.00     0.038 A 
HETATM   12  C10 UNL     1      20.891   2.787  52.354  1.00  0.00     0.033 A 
HETATM   13  C11 UNL     1      19.823   3.384  51.725  1.00  0.00     0.046 A 
HETATM   14  C12 UNL     1      18.945   2.586  51.022  1.00  0.00     0.138 A 
HETATM   15  F1  UNL     1      17.888   3.152  50.395  1.00  0.00    -0.204 F 
HETATM   16  C13 UNL     1      19.167   1.225  50.973  1.00  0.00     0.074 A 
HETATM   17 CL1  UNL     1      18.028   0.271  50.072  1.00  0.00    -0.081 Cl
HETATM   18  C14 UNL     1      20.259   0.700  51.629  1.00  0.00     0.056 A 
ENDBRANCH   8  11
BRANCH   1  19
HETATM   19  N1  UNL     1      25.768   2.971  50.491  1.00  0.00    -0.310 N 
HETATM   20  C3  UNL     1      25.403   4.338  50.270  1.00  0.00     0.222 C 
HETATM   21  O1  UNL     1      24.675   4.978  51.079  1.00  0.00    -0.273 OA
HETATM   22  H6  UNL     1      26.376   2.541  49.754  1.00  0.00     0.170 HD
BRANCH  20  23
HETATM   23  C2  UNL     1      25.892   5.051  49.041  1.00  0.00     0.099 C 
HETATM   24  C1  UNL     1      27.343   4.763  48.813  1.00  0.00     0.014 C 
ENDBRANCH  20  23
ENDBRANCH   1  19
BRANCH  10  25
HETATM   25  O2  UNL     1      27.726   2.246  52.316  1.00  0.00    -0.352 OA
HETATM   26  C17 UNL     1      28.586   2.314  53.436  1.00  0.00     0.210 C 
ENDBRANCH  10  25
TORSDOF 4
ENDMDL
MODEL 6
REMARK VINA RESULT:      -7.5      7.320     10.562
REMARK  4 active torsions:
REMARK  status: ('A' for Active; 'I' for Inactive)
REMARK    1  A    between atoms: C2_2  and  C3_3 
REMARK       I    between atoms: C3_3  and  N1_5 
REMARK    2  A    between atoms: N1_5  and  C4_6 
REMARK    3  A    between atoms: N4_13  and  C9_14 
REMARK    4  A    between atoms: C16_23  and  O2_24 
ROOT
HETATM    1  C4  UNL     1      29.633   8.740  48.962  1.00  0.00     0.161 C 
HETATM    2  N2  UNL     1      30.772   8.280  48.523  1.00  0.00    -0.237 NA
HETATM    3  C5  UNL     1      31.788   9.277  48.258  1.00  0.00     0.267 A 
HETATM    4  C6  UNL     1      31.170  10.560  47.949  1.00  0.00     0.081 A 
HETATM    5  N3  UNL     1      31.651  11.373  47.049  1.00  0.00    -0.260 NA
HETATM    6  C7  UNL     1      32.811  10.990  46.326  1.00  0.00     0.134 A 
HETATM    7  C8  UNL     1      33.391   9.821  46.541  1.00  0.00     0.113 A 
HETATM    8  N4  UNL     1      32.899   8.879  47.485  1.00  0.00    -0.326 N 
HETATM    9  C15 UNL     1      29.913  11.059  48.496  1.00  0.00     0.072 C 
HETATM   10  C16 UNL     1      29.093  10.117  49.016  1.00  0.00     0.116 C 
ENDROOT
BRANCH   8  11
HETATM   11  C9  UNL     1      33.506   7.607  47.629  1.00  0.00     0.038 A 
HETATM   12  C10 UNL     1      34.464   7.291  48.568  1.00  0.00     0.033 A 
HETATM   13  C11 UNL     1      35.056   6.059  48.724  1.00  0.00     0.046 A 
HETATM   14  C12 UNL     1      34.676   5.036  47.881  1.00  0.00     0.138 A 
HETATM   15  F1  UNL     1      35.246   3.817  48.018  1.00  0.00    -0.204 F 
HETATM   16  C13 UNL     1      33.722   5.281  46.915  1.00  0.00     0.074 A 
HETATM   17 CL1  UNL     1      33.285   3.953  45.883  1.00  0.00    -0.081 Cl
HETATM   18  C14 UNL     1      33.173   6.542  46.820  1.00  0.00     0.056 A 
ENDBRANCH   8  11
BRANCH   1  19
HETATM   19  N1  UNL     1      28.588   7.786  49.266  1.00  0.00    -0.310 N 
HETATM   20  C3  UNL     1      27.852   7.216  48.177  1.00  0.00     0.222 C 
HETATM   21  O1  UNL     1      28.086   7.521  46.975  1.00  0.00    -0.273 OA
HETATM   22  H6  UNL     1      28.307   7.460  50.221  1.00  0.00     0.170 HD
BRANCH  20  23
HETATM   23  C2  UNL     1      26.760   6.223  48.456  1.00  0.00     0.099 C 
HETATM   24  C1  UNL     1      27.341   4.872  48.738  1.00  0.00     0.014 C 
ENDBRANCH  20  23
ENDBRANCH   1  19
BRANCH  10  25
HETATM   25  O2  UNL     1      27.864  10.448  49.545  1.00  0.00    -0.352 OA
HETATM   26  C17 UNL     1      26.830  10.832  48.660  1.00  0.00     0.210 C 
ENDBRANCH  10  25
TORSDOF 4
ENDMDL
MODEL 7
REMARK VINA RESULT:      -7.2      2.076      2.761
REMARK  4 active torsions:
REMARK  status: ('A' for Active; 'I' for Inactive)
REMARK    1  A    between atoms: C2_2  and  C3_3 
REMARK       I    between atoms: C3_3  and  N1_5 
REMARK    2  A    between atoms: N1_5  and  C4_6 
REMARK    3  A    between atoms: N4_13  and  C9_14 
REMARK    4  A    between atoms: C16_23  and  O2_24 
ROOT
HETATM    1  C4  UNL     1      24.297   2.264  51.875  1.00  0.00     0.161 C 
HETATM    2  N2  UNL     1      24.549   3.356  51.205  1.00  0.00    -0.237 NA
HETATM    3  C5  UNL     1      23.598   4.433  51.385  1.00  0.00     0.267 A 
HETATM    4  C6  UNL     1      22.294   3.900  51.756  1.00  0.00     0.081 A 
HETATM    5  N3  UNL     1      21.176   4.412  51.322  1.00  0.00    -0.260 NA
HETATM    6  C7  UNL     1      21.225   5.521  50.437  1.00  0.00     0.134 A 
HETATM    7  C8  UNL     1      22.383   6.022  50.039  1.00  0.00     0.113 A 
HETATM    8  N4  UNL     1      23.635   5.490  50.453  1.00  0.00    -0.326 N 
HETATM    9  C15 UNL     1      22.053   2.697  52.547  1.00  0.00     0.072 C 
HETATM   10  C16 UNL     1      23.087   1.826  52.606  1.00  0.00     0.116 C 
ENDROOT
BRANCH   8  11
HETATM   11  C9  UNL     1      24.851   6.009  49.942  1.00  0.00     0.038 A 
HETATM   12  C10 UNL     1      25.658   5.369  49.027  1.00  0.00     0.033 A 
HETATM   13  C11 UNL     1      26.836   5.863  48.516  1.00  0.00     0.046 A 
HETATM   14  C12 UNL     1      27.269   7.101  48.941  1.00  0.00     0.138 A 
HETATM   15  F1  UNL     1      28.425   7.606  48.451  1.00  0.00    -0.204 F 
HETATM   16  C13 UNL     1      26.510   7.799  49.858  1.00  0.00     0.074 A 
HETATM   17 CL1  UNL     1      27.105   9.354  50.356  1.00  0.00    -0.081 Cl
HETATM   18  C14 UNL     1      25.340   7.239  50.324  1.00  0.00     0.056 A 
ENDBRANCH   8  11
BRANCH   1  19
HETATM   19  N1  UNL     1      25.228   1.163  51.752  1.00  0.00    -0.310 N 
HETATM   20  C3  UNL     1      26.286   1.059  52.711  1.00  0.00     0.222 C 
HETATM   21  O1  UNL     1      26.428   1.891  53.649  1.00  0.00    -0.273 OA
HETATM   22  H6  UNL     1      25.208   0.416  51.018  1.00  0.00     0.170 HD
BRANCH  20  23
HETATM   23  C2  UNL     1      27.270  -0.073  52.613  1.00  0.00     0.099 C 
HETATM   24  C1  UNL     1      26.564  -1.389  52.702  1.00  0.00     0.014 C 
ENDBRANCH  20  23
ENDBRANCH   1  19
BRANCH  10  25
HETATM   25  O2  UNL     1      22.987   0.639  53.299  1.00  0.00    -0.352 OA
HETATM   26  C17 UNL     1      21.929  -0.242  52.978  1.00  0.00     0.210 C 
ENDBRANCH  10  25
TORSDOF 4
ENDMDL
MODEL 8
REMARK VINA RESULT:      -7.1      2.676      3.378
REMARK  4 active torsions:
REMARK  status: ('A' for Active; 'I' for Inactive)
REMARK    1  A    between atoms: C2_2  and  C3_3 
REMARK       I    between atoms: C3_3  and  N1_5 
REMARK    2  A    between atoms: N1_5  and  C4_6 
REMARK    3  A    between atoms: N4_13  and  C9_14 
REMARK    4  A    between atoms: C16_23  and  O2_24 
ROOT
HETATM    1  C4  UNL     1      22.931   1.546  52.290  1.00  0.00     0.161 C 
HETATM    2  N2  UNL     1      22.734   2.576  51.513  1.00  0.00    -0.237 NA
HETATM    3  C5  UNL     1      21.563   3.373  51.817  1.00  0.00     0.267 A 
HETATM    4  C6  UNL     1      20.556   2.559  52.485  1.00  0.00     0.081 A 
HETATM    5  N3  UNL     1      19.278   2.697  52.260  1.00  0.00    -0.260 NA
HETATM    6  C7  UNL     1      18.847   3.664  51.314  1.00  0.00     0.134 A 
HETATM    7  C8  UNL     1      19.721   4.405  50.653  1.00  0.00     0.113 A 
HETATM    8  N4  UNL     1      21.126   4.282  50.831  1.00  0.00    -0.326 N 
HETATM    9  C15 UNL     1      20.817   1.440  53.384  1.00  0.00     0.072 C 
HETATM   10  C16 UNL     1      22.050   0.891  53.284  1.00  0.00     0.116 C 
ENDROOT
BRANCH   8  11
HETATM   11  C9  UNL     1      22.028   5.041  50.046  1.00  0.00     0.038 A 
HETATM   12  C10 UNL     1      22.333   4.787  48.727  1.00  0.00     0.033 A 
HETATM   13  C11 UNL     1      23.200   5.520  47.949  1.00  0.00     0.046 A 
HETATM   14  C12 UNL     1      23.834   6.605  48.518  1.00  0.00     0.138 A 
HETATM   15  F1  UNL     1      24.691   7.339  47.771  1.00  0.00    -0.204 F 
HETATM   16  C13 UNL     1      23.577   6.918  49.836  1.00  0.00     0.074 A 
HETATM   17 CL1  UNL     1      24.404   8.297  50.496  1.00  0.00    -0.081 Cl
HETATM   18  C14 UNL     1      22.694   6.137  50.551  1.00  0.00     0.056 A 
ENDBRANCH   8  11
BRANCH   1  19
HETATM   19  N1  UNL     1      24.099   0.728  52.048  1.00  0.00    -0.310 N 
HETATM   20  C3  UNL     1      25.339   1.122  52.645  1.00  0.00     0.222 C 
HETATM   21  O1  UNL     1      25.440   2.151  53.368  1.00  0.00    -0.273 OA
HETATM   22  H6  UNL     1      24.134  -0.144  51.468  1.00  0.00     0.170 HD
BRANCH  20  23
HETATM   23  C2  UNL     1      26.573   0.295  52.415  1.00  0.00     0.099 C 
HETATM   24  C1  UNL     1      26.329  -1.128  52.809  1.00  0.00     0.014 C 
ENDBRANCH  20  23
ENDBRANCH   1  19
BRANCH  10  25
HETATM   25  O2  UNL     1      22.421  -0.187  54.058  1.00  0.00    -0.352 OA
HETATM   26  C17 UNL     1      21.490  -1.233  54.247  1.00  0.00     0.210 C 
ENDBRANCH  10  25
TORSDOF 4
ENDMDL
MODEL 9
REMARK VINA RESULT:      -6.9      5.302      7.977
REMARK  4 active torsions:
REMARK  status: ('A' for Active; 'I' for Inactive)
REMARK    1  A    between atoms: C2_2  and  C3_3 
REMARK       I    between atoms: C3_3  and  N1_5 
REMARK    2  A    between atoms: N1_5  and  C4_6 
REMARK    3  A    between atoms: N4_13  and  C9_14 
REMARK    4  A    between atoms: C16_23  and  O2_24 
ROOT
HETATM    1  C4  UNL     1      29.886   6.619  47.527  1.00  0.00     0.161 C 
HETATM    2  N2  UNL     1      28.735   6.325  48.068  1.00  0.00    -0.237 NA
HETATM    3  C5  UNL     1      27.886   7.455  48.383  1.00  0.00     0.267 A 
HETATM    4  C6  UNL     1      28.692   8.647  48.606  1.00  0.00     0.081 A 
HETATM    5  N3  UNL     1      28.400   9.534  49.517  1.00  0.00    -0.260 NA
HETATM    6  C7  UNL     1      27.262   9.324  50.340  1.00  0.00     0.134 A 
HETATM    7  C8  UNL     1      26.516   8.240  50.205  1.00  0.00     0.113 A 
HETATM    8  N4  UNL     1      26.799   7.224  49.252  1.00  0.00    -0.326 N 
HETATM    9  C15 UNL     1      29.956   8.963  47.947  1.00  0.00     0.072 C 
HETATM   10  C16 UNL     1      30.598   7.910  47.391  1.00  0.00     0.116 C 
ENDROOT
BRANCH   8  11
HETATM   11  C9  UNL     1      26.018   6.043  49.193  1.00  0.00     0.038 A 
HETATM   12  C10 UNL     1      26.452   4.791  49.569  1.00  0.00     0.033 A 
HETATM   13  C11 UNL     1      25.704   3.637  49.525  1.00  0.00     0.046 A 
HETATM   14  C12 UNL     1      24.405   3.714  49.067  1.00  0.00     0.138 A 
HETATM   15  F1  UNL     1      23.652   2.592  49.016  1.00  0.00    -0.204 F 
HETATM   16  C13 UNL     1      23.904   4.937  48.673  1.00  0.00     0.074 A 
HETATM   17 CL1  UNL     1      22.261   4.971  48.105  1.00  0.00    -0.081 Cl
HETATM   18  C14 UNL     1      24.714   6.049  48.746  1.00  0.00     0.056 A 
ENDBRANCH   8  11
BRANCH   1  19
HETATM   19  N1  UNL     1      30.766   5.528  47.170  1.00  0.00    -0.310 N 
HETATM   20  C3  UNL     1      31.616   4.981  48.184  1.00  0.00     0.222 C 
HETATM   21  O1  UNL     1      31.618   5.420  49.367  1.00  0.00    -0.273 OA
HETATM   22  H6  UNL     1      30.848   5.085  46.224  1.00  0.00     0.170 HD
BRANCH  20  23
HETATM   23  C2  UNL     1      32.543   3.847  47.848  1.00  0.00     0.099 C 
HETATM   24  C1  UNL     1      32.082   3.146  46.608  1.00  0.00     0.014 C 
ENDBRANCH  20  23
ENDBRANCH   1  19
BRANCH  10  25
HETATM   25  O2  UNL     1      31.813   8.062  46.758  1.00  0.00    -0.352 OA
HETATM   26  C17 UNL     1      32.922   8.491  47.522  1.00  0.00     0.210 C 
ENDBRANCH  10  25
TORSDOF 4
ENDMDL
