MODEL 1
REMARK VINA RESULT:      -8.0      0.000      0.000
REMARK  7 active torsions:
REMARK  status: ('A' for Active; 'I' for Inactive)
REMARK    1  A    between atoms: C2_2  and  C3_3 
REMARK    2  A    between atoms: C3_3  and  C4_4 
REMARK    3  A    between atoms: C4_4  and  C5_5 
REMARK    4  A    between atoms: C5_5  and  C6_6 
REMARK    5  A    between atoms: C6_6  and  O1_7 
REMARK    6  A    between atoms: C6_6  and  C7_8 
REMARK    7  A    between atoms: C10_13  and  C11_14 
ROOT
HETATM    1  C1  UNL     1      26.679  -2.148  52.483  1.00  0.00     0.022 C 
HETATM    2  C2  UNL     1      26.513  -0.718  52.879  1.00  0.00    -0.001 C 
HETATM    3  C8  UNL     1      27.519  -0.293  53.898  1.00  0.00     0.002 C 
HETATM    4  C9  UNL     1      26.986   0.445  54.874  1.00  0.00     0.080 C 
HETATM    5  N1  UNL     1      25.600   0.550  54.556  1.00  0.00    -0.390 N 
HETATM    6  C10 UNL     1      25.235  -0.549  53.652  1.00  0.00     0.116 C 
HETATM    7  H15 UNL     1      25.033   1.337  54.969  1.00  0.00     0.159 HD
ENDROOT
BRANCH   6   8
HETATM    8  C11 UNL     1      24.058  -0.234  52.839  1.00  0.00     0.017 C 
HETATM    9  C12 UNL     1      22.882  -0.516  53.379  1.00  0.00     0.043 A 
HETATM   10  C13 UNL     1      22.603  -1.105  54.688  1.00  0.00     0.256 A 
HETATM   11  C19 UNL     1      21.536  -0.320  52.823  1.00  0.00     0.006 A 
HETATM   12  O3  UNL     1      23.424  -1.458  55.555  1.00  0.00    -0.267 OA
HETATM   13  N2  UNL     1      21.213  -1.243  54.885  1.00  0.00    -0.322 N 
HETATM   14  C14 UNL     1      20.582  -0.750  53.714  1.00  0.00     0.046 A 
HETATM   15  H18 UNL     1      20.695  -1.627  55.707  1.00  0.00     0.169 HD
HETATM   16  C15 UNL     1      19.266  -0.629  53.332  1.00  0.00     0.030 A 
HETATM   17  C16 UNL     1      18.859  -0.108  52.120  1.00  0.00     0.002 A 
HETATM   18  C17 UNL     1      19.847   0.320  51.234  1.00  0.00     0.001 A 
HETATM   19  C18 UNL     1      21.182   0.214  51.585  1.00  0.00     0.014 A 
ENDBRANCH   6   8
BRANCH   2  20
HETATM   20  C3  UNL     1      26.629   0.223  51.688  1.00  0.00     0.015 C 
BRANCH  20  21
HETATM   21  C4  UNL     1      27.228   1.530  52.047  1.00  0.00     0.004 C 
BRANCH  21  22
HETATM   22  C5  UNL     1      26.649   2.747  51.393  1.00  0.00     0.039 C 
BRANCH  22  23
HETATM   23  C6  UNL     1      25.213   2.929  51.764  1.00  0.00     0.179 C 
BRANCH  23  24
HETATM   24  O1  UNL     1      24.947   3.232  53.069  1.00  0.00    -0.389 OA
HETATM   25  H11 UNL     1      24.731   4.178  53.163  1.00  0.00     0.210 HD
ENDBRANCH  23  24
BRANCH  23  26
HETATM   26  C7  UNL     1      24.612   3.980  50.885  1.00  0.00     0.262 C 
HETATM   27  O2  UNL     1      24.171   5.042  51.286  1.00  0.00    -0.304 OA
ENDBRANCH  23  26
ENDBRANCH  22  23
ENDBRANCH  21  22
ENDBRANCH  20  21
ENDBRANCH   2  20
TORSDOF 7
ENDMDL
MODEL 2
REMARK VINA RESULT:      -7.8      2.028      6.730
REMARK  7 active torsions:
REMARK  status: ('A' for Active; 'I' for Inactive)
REMARK    1  A    between atoms: C2_2  and  C3_3 
REMARK    2  A    between atoms: C3_3  and  C4_4 
REMARK    3  A    between atoms: C4_4  and  C5_5 
REMARK    4  A    between atoms: C5_5  and  C6_6 
REMARK    5  A    between atoms: C6_6  and  O1_7 
REMARK    6  A    between atoms: C6_6  and  C7_8 
REMARK    7  A    between atoms: C10_13  and  C11_14 
ROOT
HETATM    1  C1  UNL     1      21.861   1.382  49.100  1.00  0.00     0.022 C 
HETATM    2  C2  UNL     1      21.554   1.494  50.557  1.00  0.00    -0.001 C 
HETATM    3  C8  UNL     1      20.519   2.535  50.837  1.00  0.00     0.002 C 
HETATM    4  C9  UNL     1      20.822   3.292  51.893  1.00  0.00     0.080 C 
HETATM    5  N1  UNL     1      22.071   2.796  52.370  1.00  0.00    -0.390 N 
HETATM    6  C10 UNL     1      22.738   2.065  51.285  1.00  0.00     0.116 C 
HETATM    7  H15 UNL     1      22.359   2.992  53.365  1.00  0.00     0.159 HD
ENDROOT
BRANCH   6   8
HETATM    8  C11 UNL     1      23.693   1.074  51.786  1.00  0.00     0.017 C 
HETATM    9  C12 UNL     1      24.936   1.495  51.959  1.00  0.00     0.043 A 
HETATM   10  C13 UNL     1      25.484   2.828  51.714  1.00  0.00     0.256 A 
HETATM   11  C19 UNL     1      26.108   0.751  52.442  1.00  0.00     0.006 A 
HETATM   12  O3  UNL     1      24.883   3.833  51.291  1.00  0.00    -0.267 OA
HETATM   13  N2  UNL     1      26.860   2.865  52.025  1.00  0.00    -0.322 N 
HETATM   14  C14 UNL     1      27.214   1.566  52.472  1.00  0.00     0.046 A 
HETATM   15  H18 UNL     1      27.533   3.661  51.959  1.00  0.00     0.169 HD
HETATM   16  C15 UNL     1      28.394   1.008  52.905  1.00  0.00     0.030 A 
HETATM   17  C16 UNL     1      28.525  -0.308  53.305  1.00  0.00     0.002 A 
HETATM   18  C17 UNL     1      27.387  -1.113  53.264  1.00  0.00     0.001 A 
HETATM   19  C18 UNL     1      26.182  -0.585  52.833  1.00  0.00     0.014 A 
ENDBRANCH   6   8
BRANCH   2  20
HETATM   20  C3  UNL     1      21.061   0.178  51.141  1.00  0.00     0.015 C 
BRANCH  20  21
HETATM   21  C4  UNL     1      19.679   0.266  51.669  1.00  0.00     0.004 C 
BRANCH  21  22
HETATM   22  C5  UNL     1      19.416  -0.371  52.998  1.00  0.00     0.039 C 
BRANCH  22  23
HETATM   23  C6  UNL     1      20.619  -0.301  53.880  1.00  0.00     0.179 C 
BRANCH  23  24
HETATM   24  O1  UNL     1      20.525   0.491  54.989  1.00  0.00    -0.389 OA
HETATM   25  H11 UNL     1      21.236   0.280  55.621  1.00  0.00     0.210 HD
ENDBRANCH  23  24
BRANCH  23  26
HETATM   26  C7  UNL     1      21.000  -1.686  54.299  1.00  0.00     0.262 C 
HETATM   27  O2  UNL     1      21.848  -1.943  55.135  1.00  0.00    -0.304 OA
ENDBRANCH  23  26
ENDBRANCH  22  23
ENDBRANCH  21  22
ENDBRANCH  20  21
ENDBRANCH   2  20
TORSDOF 7
ENDMDL
MODEL 3
REMARK VINA RESULT:      -7.6      4.022      8.183
REMARK  7 active torsions:
REMARK  status: ('A' for Active; 'I' for Inactive)
REMARK    1  A    between atoms: C2_2  and  C3_3 
REMARK    2  A    between atoms: C3_3  and  C4_4 
REMARK    3  A    between atoms: C4_4  and  C5_5 
REMARK    4  A    between atoms: C5_5  and  C6_6 
REMARK    5  A    between atoms: C6_6  and  O1_7 
REMARK    6  A    between atoms: C6_6  and  C7_8 
REMARK    7  A    between atoms: C10_13  and  C11_14 
ROOT
HETATM    1  C1  UNL     1      23.481   2.255  50.104  1.00  0.00     0.022 C 
HETATM    2  C2  UNL     1      24.116   3.091  51.166  1.00  0.00    -0.001 C 
HETATM    3  C8  UNL     1      23.156   3.442  52.256  1.00  0.00     0.002 C 
HETATM    4  C9  UNL     1      23.251   4.718  52.636  1.00  0.00     0.080 C 
HETATM    5  N1  UNL     1      24.276   5.282  51.820  1.00  0.00    -0.390 N 
HETATM    6  C10 UNL     1      24.436   4.454  50.618  1.00  0.00     0.116 C 
HETATM    7  H15 UNL     1      24.767   6.159  52.139  1.00  0.00     0.159 HD
ENDROOT
BRANCH   6   8
HETATM    8  C11 UNL     1      25.769   4.584  50.025  1.00  0.00     0.017 C 
HETATM    9  C12 UNL     1      25.972   5.654  49.272  1.00  0.00     0.043 A 
HETATM   10  C13 UNL     1      25.033   6.729  48.952  1.00  0.00     0.256 A 
HETATM   11  C19 UNL     1      27.185   6.063  48.550  1.00  0.00     0.006 A 
HETATM   12  O3  UNL     1      23.853   6.847  49.329  1.00  0.00    -0.267 OA
HETATM   13  N2  UNL     1      25.642   7.688  48.114  1.00  0.00    -0.322 N 
HETATM   14  C14 UNL     1      26.970   7.247  47.884  1.00  0.00     0.046 A 
HETATM   15  H18 UNL     1      25.242   8.565  47.712  1.00  0.00     0.169 HD
HETATM   16  C15 UNL     1      28.021   7.759  47.159  1.00  0.00     0.030 A 
HETATM   17  C16 UNL     1      29.260   7.156  47.066  1.00  0.00     0.002 A 
HETATM   18  C17 UNL     1      29.451   5.956  47.751  1.00  0.00     0.001 A 
HETATM   19  C18 UNL     1      28.416   5.411  48.490  1.00  0.00     0.014 A 
ENDBRANCH   6   8
BRANCH   2  20
HETATM   20  C3  UNL     1      25.312   2.398  51.802  1.00  0.00     0.015 C 
BRANCH  20  21
HETATM   21  C4  UNL     1      24.936   1.551  52.959  1.00  0.00     0.004 C 
BRANCH  21  22
HETATM   22  C5  UNL     1      25.916   1.464  54.087  1.00  0.00     0.039 C 
BRANCH  22  23
HETATM   23  C6  UNL     1      27.314   1.689  53.609  1.00  0.00     0.179 C 
BRANCH  23  24
HETATM   24  O1  UNL     1      27.961   2.790  54.094  1.00  0.00    -0.389 OA
HETATM   25  H11 UNL     1      27.520   3.605  53.795  1.00  0.00     0.210 HD
ENDBRANCH  23  24
BRANCH  23  26
HETATM   26  C7  UNL     1      28.132   0.471  53.902  1.00  0.00     0.262 C 
HETATM   27  O2  UNL     1      28.017  -0.210  54.905  1.00  0.00    -0.304 OA
ENDBRANCH  23  26
ENDBRANCH  22  23
ENDBRANCH  21  22
ENDBRANCH  20  21
ENDBRANCH   2  20
TORSDOF 7
ENDMDL
MODEL 4
REMARK VINA RESULT:      -7.4      3.776      6.574
REMARK  7 active torsions:
REMARK  status: ('A' for Active; 'I' for Inactive)
REMARK    1  A    between atoms: C2_2  and  C3_3 
REMARK    2  A    between atoms: C3_3  and  C4_4 
REMARK    3  A    between atoms: C4_4  and  C5_5 
REMARK    4  A    between atoms: C5_5  and  C6_6 
REMARK    5  A    between atoms: C6_6  and  O1_7 
REMARK    6  A    between atoms: C6_6  and  C7_8 
REMARK    7  A    between atoms: C10_13  and  C11_14 
ROOT
HETATM    1  C1  UNL     1      24.550   6.729  51.053  1.00  0.00     0.022 C 
HETATM    2  C2  UNL     1      24.648   5.942  49.788  1.00  0.00    -0.001 C 
HETATM    3  C8  UNL     1      23.766   6.489  48.713  1.00  0.00     0.002 C 
HETATM    4  C9  UNL     1      23.113   5.535  48.046  1.00  0.00     0.080 C 
HETATM    5  N1  UNL     1      23.525   4.306  48.641  1.00  0.00    -0.390 N 
HETATM    6  C10 UNL     1      24.044   4.580  49.987  1.00  0.00     0.116 C 
HETATM    7  H15 UNL     1      23.421   3.409  48.097  1.00  0.00     0.159 HD
ENDROOT
BRANCH   6   8
HETATM    8  C11 UNL     1      24.979   3.549  50.444  1.00  0.00     0.017 C 
HETATM    9  C12 UNL     1      24.482   2.623  51.249  1.00  0.00     0.043 A 
HETATM   10  C13 UNL     1      23.112   2.494  51.745  1.00  0.00     0.256 A 
HETATM   11  C19 UNL     1      25.156   1.473  51.867  1.00  0.00     0.006 A 
HETATM   12  O3  UNL     1      22.142   3.236  51.505  1.00  0.00    -0.267 OA
HETATM   13  N2  UNL     1      22.991   1.365  52.583  1.00  0.00    -0.322 N 
HETATM   14  C14 UNL     1      24.271   0.756  52.637  1.00  0.00     0.046 A 
HETATM   15  H18 UNL     1      22.152   1.002  53.089  1.00  0.00     0.169 HD
HETATM   16  C15 UNL     1      24.759  -0.356  53.283  1.00  0.00     0.030 A 
HETATM   17  C16 UNL     1      26.070  -0.784  53.200  1.00  0.00     0.002 A 
HETATM   18  C17 UNL     1      26.946  -0.039  52.411  1.00  0.00     0.001 A 
HETATM   19  C18 UNL     1      26.490   1.087  51.747  1.00  0.00     0.014 A 
ENDBRANCH   6   8
BRANCH   2  20
HETATM   20  C3  UNL     1      26.071   5.900  49.249  1.00  0.00     0.015 C 
BRANCH  20  21
HETATM   21  C4  UNL     1      26.460   7.153  48.561  1.00  0.00     0.004 C 
BRANCH  21  22
HETATM   22  C5  UNL     1      27.571   7.949  49.172  1.00  0.00     0.039 C 
BRANCH  22  23
HETATM   23  C6  UNL     1      27.049   9.157  49.878  1.00  0.00     0.179 C 
BRANCH  23  24
HETATM   24  O1  UNL     1      27.578   9.429  51.108  1.00  0.00    -0.389 OA
HETATM   25  H11 UNL     1      26.916   9.860  51.677  1.00  0.00     0.210 HD
ENDBRANCH  23  24
BRANCH  23  26
HETATM   26  C7  UNL     1      27.221  10.353  48.996  1.00  0.00     0.262 C 
HETATM   27  O2  UNL     1      26.439  11.284  48.940  1.00  0.00    -0.304 OA
ENDBRANCH  23  26
ENDBRANCH  22  23
ENDBRANCH  21  22
ENDBRANCH  20  21
ENDBRANCH   2  20
TORSDOF 7
ENDMDL
MODEL 5
REMARK VINA RESULT:      -7.3      3.257      5.310
REMARK  7 active torsions:
REMARK  status: ('A' for Active; 'I' for Inactive)
REMARK    1  A    between atoms: C2_2  and  C3_3 
REMARK    2  A    between atoms: C3_3  and  C4_4 
REMARK    3  A    between atoms: C4_4  and  C5_5 
REMARK    4  A    between atoms: C5_5  and  C6_6 
REMARK    5  A    between atoms: C6_6  and  O1_7 
REMARK    6  A    between atoms: C6_6  and  C7_8 
REMARK    7  A    between atoms: C10_13  and  C11_14 
ROOT
HETATM    1  C1  UNL     1      24.186   5.433  50.696  1.00  0.00     0.022 C 
HETATM    2  C2  UNL     1      23.982   4.284  49.763  1.00  0.00    -0.001 C 
HETATM    3  C8  UNL     1      23.440   4.721  48.441  1.00  0.00     0.002 C 
HETATM    4  C9  UNL     1      22.467   3.924  47.994  1.00  0.00     0.080 C 
HETATM    5  N1  UNL     1      22.311   2.918  48.993  1.00  0.00    -0.390 N 
HETATM    6  C10 UNL     1      22.859   3.418  50.260  1.00  0.00     0.116 C 
HETATM    7  H15 UNL     1      21.857   2.002  48.736  1.00  0.00     0.159 HD
ENDROOT
BRANCH   6   8
HETATM    8  C11 UNL     1      23.265   2.334  51.157  1.00  0.00     0.017 C 
HETATM    9  C12 UNL     1      22.339   1.887  51.992  1.00  0.00     0.043 A 
HETATM   10  C13 UNL     1      20.956   2.338  52.137  1.00  0.00     0.256 A 
HETATM   11  C19 UNL     1      22.436   0.823  53.001  1.00  0.00     0.006 A 
HETATM   12  O3  UNL     1      20.376   3.236  51.498  1.00  0.00    -0.267 OA
HETATM   13  N2  UNL     1      20.295   1.603  53.144  1.00  0.00    -0.322 N 
HETATM   14  C14 UNL     1      21.237   0.675  53.658  1.00  0.00     0.046 A 
HETATM   15  H18 UNL     1      19.311   1.682  53.485  1.00  0.00     0.169 HD
HETATM   16  C15 UNL     1      21.172  -0.290  54.636  1.00  0.00     0.030 A 
HETATM   17  C16 UNL     1      22.231  -1.104  54.988  1.00  0.00     0.002 A 
HETATM   18  C17 UNL     1      23.435  -0.933  54.306  1.00  0.00     0.001 A 
HETATM   19  C18 UNL     1      23.537   0.028  53.315  1.00  0.00     0.014 A 
ENDBRANCH   6   8
BRANCH   2  20
HETATM   20  C3  UNL     1      25.271   3.517  49.508  1.00  0.00     0.015 C 
BRANCH  20  21
HETATM   21  C4  UNL     1      26.483   4.313  49.818  1.00  0.00     0.004 C 
BRANCH  21  22
HETATM   22  C5  UNL     1      27.420   4.595  48.684  1.00  0.00     0.039 C 
BRANCH  22  23
HETATM   23  C6  UNL     1      27.616   6.064  48.497  1.00  0.00     0.179 C 
BRANCH  23  24
HETATM   24  O1  UNL     1      27.189   6.877  49.508  1.00  0.00    -0.389 OA
HETATM   25  H11 UNL     1      27.864   6.935  50.208  1.00  0.00     0.210 HD
ENDBRANCH  23  24
BRANCH  23  26
HETATM   26  C7  UNL     1      29.063   6.334  48.229  1.00  0.00     0.262 C 
HETATM   27  O2  UNL     1      29.618   7.394  48.457  1.00  0.00    -0.304 OA
ENDBRANCH  23  26
ENDBRANCH  22  23
ENDBRANCH  21  22
ENDBRANCH  20  21
ENDBRANCH   2  20
TORSDOF 7
ENDMDL
MODEL 6
REMARK VINA RESULT:      -7.2      2.854      5.144
REMARK  7 active torsions:
REMARK  status: ('A' for Active; 'I' for Inactive)
REMARK    1  A    between atoms: C2_2  and  C3_3 
REMARK    2  A    between atoms: C3_3  and  C4_4 
REMARK    3  A    between atoms: C4_4  and  C5_5 
REMARK    4  A    between atoms: C5_5  and  C6_6 
REMARK    5  A    between atoms: C6_6  and  O1_7 
REMARK    6  A    between atoms: C6_6  and  C7_8 
REMARK    7  A    between atoms: C10_13  and  C11_14 
ROOT
HETATM    1  C1  UNL     1      24.970   3.303  49.665  1.00  0.00     0.022 C 
HETATM    2  C2  UNL     1      24.005   4.309  50.201  1.00  0.00    -0.001 C 
HETATM    3  C8  UNL     1      24.537   5.703  50.116  1.00  0.00     0.002 C 
HETATM    4  C9  UNL     1      24.305   6.412  51.223  1.00  0.00     0.080 C 
HETATM    5  N1  UNL     1      23.608   5.529  52.100  1.00  0.00    -0.390 N 
HETATM    6  C10 UNL     1      23.872   4.145  51.689  1.00  0.00     0.116 C 
HETATM    7  H15 UNL     1      23.028   5.931  52.884  1.00  0.00     0.159 HD
ENDROOT
BRANCH   6   8
HETATM    8  C11 UNL     1      22.815   3.225  52.118  1.00  0.00     0.017 C 
HETATM    9  C12 UNL     1      23.216   2.097  52.685  1.00  0.00     0.043 A 
HETATM   10  C13 UNL     1      24.583   1.646  52.940  1.00  0.00     0.256 A 
HETATM   11  C19 UNL     1      22.409   0.989  53.213  1.00  0.00     0.006 A 
HETATM   12  O3  UNL     1      25.644   2.240  52.671  1.00  0.00    -0.267 OA
HETATM   13  N2  UNL     1      24.581   0.381  53.564  1.00  0.00    -0.322 N 
HETATM   14  C14 UNL     1      23.223   0.002  53.719  1.00  0.00     0.046 A 
HETATM   15  H18 UNL     1      25.387  -0.207  53.873  1.00  0.00     0.169 HD
HETATM   16  C15 UNL     1      22.608  -1.106  54.253  1.00  0.00     0.030 A 
HETATM   17  C16 UNL     1      21.239  -1.279  54.306  1.00  0.00     0.002 A 
HETATM   18  C17 UNL     1      20.437  -0.264  53.786  1.00  0.00     0.001 A 
HETATM   19  C18 UNL     1      21.020   0.867  53.241  1.00  0.00     0.014 A 
ENDBRANCH   6   8
BRANCH   2  20
HETATM   20  C3  UNL     1      22.673   4.273  49.467  1.00  0.00     0.015 C 
BRANCH  20  21
HETATM   21  C4  UNL     1      22.781   3.682  48.112  1.00  0.00     0.004 C 
BRANCH  21  22
HETATM   22  C5  UNL     1      21.990   2.439  47.846  1.00  0.00     0.039 C 
BRANCH  22  23
HETATM   23  C6  UNL     1      20.668   2.479  48.539  1.00  0.00     0.179 C 
BRANCH  23  24
HETATM   24  O1  UNL     1      19.555   2.452  47.747  1.00  0.00    -0.389 OA
HETATM   25  H11 UNL     1      19.498   1.607  47.267  1.00  0.00     0.210 HD
ENDBRANCH  23  24
BRANCH  23  26
HETATM   26  C7  UNL     1      20.596   1.352  49.521  1.00  0.00     0.262 C 
HETATM   27  O2  UNL     1      21.513   0.584  49.754  1.00  0.00    -0.304 OA
ENDBRANCH  23  26
ENDBRANCH  22  23
ENDBRANCH  21  22
ENDBRANCH  20  21
ENDBRANCH   2  20
TORSDOF 7
ENDMDL
MODEL 7
REMARK VINA RESULT:      -7.1      3.511      7.910
REMARK  7 active torsions:
REMARK  status: ('A' for Active; 'I' for Inactive)
REMARK    1  A    between atoms: C2_2  and  C3_3 
REMARK    2  A    between atoms: C3_3  and  C4_4 
REMARK    3  A    between atoms: C4_4  and  C5_5 
REMARK    4  A    between atoms: C5_5  and  C6_6 
REMARK    5  A    between atoms: C6_6  and  O1_7 
REMARK    6  A    between atoms: C6_6  and  C7_8 
REMARK    7  A    between atoms: C10_13  and  C11_14 
ROOT
HETATM    1  C1  UNL     1      22.291   1.725  49.707  1.00  0.00     0.022 C 
HETATM    2  C2  UNL     1      22.827   2.483  50.877  1.00  0.00    -0.001 C 
HETATM    3  C8  UNL     1      21.762   2.814  51.871  1.00  0.00     0.002 C 
HETATM    4  C9  UNL     1      21.853   4.065  52.328  1.00  0.00     0.080 C 
HETATM    5  N1  UNL     1      22.980   4.631  51.662  1.00  0.00    -0.390 N 
HETATM    6  C10 UNL     1      23.249   3.859  50.442  1.00  0.00     0.116 C 
HETATM    7  H15 UNL     1      23.459   5.472  52.081  1.00  0.00     0.159 HD
ENDROOT
BRANCH   6   8
HETATM    8  C11 UNL     1      24.644   3.970  50.009  1.00  0.00     0.017 C 
HETATM    9  C12 UNL     1      24.980   5.098  49.402  1.00  0.00     0.043 A 
HETATM   10  C13 UNL     1      24.135   6.254  49.106  1.00  0.00     0.256 A 
HETATM   11  C19 UNL     1      26.283   5.506  48.859  1.00  0.00     0.006 A 
HETATM   12  O3  UNL     1      22.927   6.403  49.368  1.00  0.00    -0.267 OA
HETATM   13  N2  UNL     1      24.877   7.256  48.445  1.00  0.00    -0.322 N 
HETATM   14  C14 UNL     1      26.200   6.763  48.308  1.00  0.00     0.046 A 
HETATM   15  H18 UNL     1      24.567   8.193  48.101  1.00  0.00     0.169 HD
HETATM   16  C15 UNL     1      27.348   7.283  47.756  1.00  0.00     0.030 A 
HETATM   17  C16 UNL     1      28.559   6.621  47.727  1.00  0.00     0.002 A 
HETATM   18  C17 UNL     1      28.616   5.347  48.293  1.00  0.00     0.001 A 
HETATM   19  C18 UNL     1      27.480   4.792  48.857  1.00  0.00     0.014 A 
ENDBRANCH   6   8
BRANCH   2  20
HETATM   20  C3  UNL     1      23.923   1.716  51.604  1.00  0.00     0.015 C 
BRANCH  20  21
HETATM   21  C4  UNL     1      23.387   0.757  52.598  1.00  0.00     0.004 C 
BRANCH  21  22
HETATM   22  C5  UNL     1      24.379   0.074  53.488  1.00  0.00     0.039 C 
BRANCH  22  23
HETATM   23  C6  UNL     1      23.726  -0.985  54.315  1.00  0.00     0.179 C 
BRANCH  23  24
HETATM   24  O1  UNL     1      24.266  -1.224  55.547  1.00  0.00    -0.389 OA
HETATM   25  H11 UNL     1      23.607  -1.061  56.246  1.00  0.00     0.210 HD
ENDBRANCH  23  24
BRANCH  23  26
HETATM   26  C7  UNL     1      22.275  -0.658  54.472  1.00  0.00     0.262 C 
HETATM   27  O2  UNL     1      21.487  -1.319  55.124  1.00  0.00    -0.304 OA
ENDBRANCH  23  26
ENDBRANCH  22  23
ENDBRANCH  21  22
ENDBRANCH  20  21
ENDBRANCH   2  20
TORSDOF 7
ENDMDL
MODEL 8
REMARK VINA RESULT:      -7.0      7.357     10.351
REMARK  7 active torsions:
REMARK  status: ('A' for Active; 'I' for Inactive)
REMARK    1  A    between atoms: C2_2  and  C3_3 
REMARK    2  A    between atoms: C3_3  and  C4_4 
REMARK    3  A    between atoms: C4_4  and  C5_5 
REMARK    4  A    between atoms: C5_5  and  C6_6 
REMARK    5  A    between atoms: C6_6  and  O1_7 
REMARK    6  A    between atoms: C6_6  and  C7_8 
REMARK    7  A    between atoms: C10_13  and  C11_14 
ROOT
HETATM    1  C1  UNL     1      31.447   8.276  49.382  1.00  0.00     0.022 C 
HETATM    2  C2  UNL     1      31.272   7.575  48.075  1.00  0.00    -0.001 C 
HETATM    3  C8  UNL     1      31.807   8.372  46.931  1.00  0.00     0.002 C 
HETATM    4  C9  UNL     1      30.994   8.365  45.872  1.00  0.00     0.080 C 
HETATM    5  N1  UNL     1      29.878   7.565  46.256  1.00  0.00    -0.390 N 
HETATM    6  C10 UNL     1      29.812   7.514  47.722  1.00  0.00     0.116 C 
HETATM    7  H15 UNL     1      29.270   7.134  45.510  1.00  0.00     0.159 HD
ENDROOT
BRANCH   6   8
HETATM    8  C11 UNL     1      29.108   6.324  48.206  1.00  0.00     0.017 C 
HETATM    9  C12 UNL     1      27.791   6.422  48.305  1.00  0.00     0.043 A 
HETATM   10  C13 UNL     1      26.943   7.571  47.991  1.00  0.00     0.256 A 
HETATM   11  C19 UNL     1      26.817   5.417  48.751  1.00  0.00     0.006 A 
HETATM   12  O3  UNL     1      27.296   8.688  47.569  1.00  0.00    -0.267 OA
HETATM   13  N2  UNL     1      25.586   7.268  48.233  1.00  0.00    -0.322 N 
HETATM   14  C14 UNL     1      25.542   5.930  48.702  1.00  0.00     0.046 A 
HETATM   15  H18 UNL     1      24.740   7.869  48.110  1.00  0.00     0.169 HD
HETATM   16  C15 UNL     1      24.516   5.101  49.093  1.00  0.00     0.030 A 
HETATM   17  C16 UNL     1      24.696   3.802  49.525  1.00  0.00     0.002 A 
HETATM   18  C17 UNL     1      25.999   3.307  49.566  1.00  0.00     0.001 A 
HETATM   19  C18 UNL     1      27.057   4.113  49.180  1.00  0.00     0.014 A 
ENDBRANCH   6   8
BRANCH   2  20
HETATM   20  C3  UNL     1      31.956   6.216  48.058  1.00  0.00     0.015 C 
BRANCH  20  21
HETATM   21  C4  UNL     1      33.376   6.283  48.478  1.00  0.00     0.004 C 
BRANCH  21  22
HETATM   22  C5  UNL     1      34.390   5.699  47.544  1.00  0.00     0.039 C 
BRANCH  22  23
HETATM   23  C6  UNL     1      35.165   4.604  48.202  1.00  0.00     0.179 C 
BRANCH  23  24
HETATM   24  O1  UNL     1      35.271   4.656  49.563  1.00  0.00    -0.389 OA
HETATM   25  H11 UNL     1      34.997   5.530  49.894  1.00  0.00     0.210 HD
ENDBRANCH  23  24
BRANCH  23  26
HETATM   26  C7  UNL     1      34.579   3.285  47.806  1.00  0.00     0.262 C 
HETATM   27  O2  UNL     1      34.039   3.066  46.737  1.00  0.00    -0.304 OA
ENDBRANCH  23  26
ENDBRANCH  22  23
ENDBRANCH  21  22
ENDBRANCH  20  21
ENDBRANCH   2  20
TORSDOF 7
ENDMDL
MODEL 9
REMARK VINA RESULT:      -6.9      7.770     11.830
REMARK  7 active torsions:
REMARK  status: ('A' for Active; 'I' for Inactive)
REMARK    1  A    between atoms: C2_2  and  C3_3 
REMARK    2  A    between atoms: C3_3  and  C4_4 
REMARK    3  A    between atoms: C4_4  and  C5_5 
REMARK    4  A    between atoms: C5_5  and  C6_6 
REMARK    5  A    between atoms: C6_6  and  O1_7 
REMARK    6  A    between atoms: C6_6  and  C7_8 
REMARK    7  A    between atoms: C10_13  and  C11_14 
ROOT
HETATM    1  C1  UNL     1      28.469   8.132  46.116  1.00  0.00     0.022 C 
HETATM    2  C2  UNL     1      28.677   7.811  47.560  1.00  0.00    -0.001 C 
HETATM    3  C8  UNL     1      28.347   8.967  48.447  1.00  0.00     0.002 C 
HETATM    4  C9  UNL     1      29.246   9.146  49.418  1.00  0.00     0.080 C 
HETATM    5  N1  UNL     1      30.219   8.119  49.227  1.00  0.00    -0.390 N 
HETATM    6  C10 UNL     1      30.144   7.646  47.839  1.00  0.00     0.116 C 
HETATM    7  H15 UNL     1      30.835   7.836  50.034  1.00  0.00     0.159 HD
ENDROOT
BRANCH   6   8
HETATM    8  C11 UNL     1      30.652   6.281  47.688  1.00  0.00     0.017 C 
HETATM    9  C12 UNL     1      31.904   6.165  47.271  1.00  0.00     0.043 A 
HETATM   10  C13 UNL     1      32.851   7.229  46.939  1.00  0.00     0.256 A 
HETATM   11  C19 UNL     1      32.690   4.948  47.026  1.00  0.00     0.006 A 
HETATM   12  O3  UNL     1      32.662   8.458  46.984  1.00  0.00    -0.267 OA
HETATM   13  N2  UNL     1      34.088   6.684  46.533  1.00  0.00    -0.322 N 
HETATM   14  C14 UNL     1      33.955   5.273  46.598  1.00  0.00     0.046 A 
HETATM   15  H18 UNL     1      34.961   7.173  46.233  1.00  0.00     0.169 HD
HETATM   16  C15 UNL     1      34.813   4.233  46.326  1.00  0.00     0.030 A 
HETATM   17  C16 UNL     1      34.476   2.900  46.459  1.00  0.00     0.002 A 
HETATM   18  C17 UNL     1      33.186   2.598  46.895  1.00  0.00     0.001 A 
HETATM   19  C18 UNL     1      32.296   3.619  47.177  1.00  0.00     0.014 A 
ENDBRANCH   6   8
BRANCH   2  20
HETATM   20  C3  UNL     1      27.837   6.624  48.009  1.00  0.00     0.015 C 
BRANCH  20  21
HETATM   21  C4  UNL     1      26.415   6.977  48.227  1.00  0.00     0.004 C 
BRANCH  21  22
HETATM   22  C5  UNL     1      25.559   5.961  48.917  1.00  0.00     0.039 C 
BRANCH  22  23
HETATM   23  C6  UNL     1      25.321   6.331  50.344  1.00  0.00     0.179 C 
BRANCH  23  24
HETATM   24  O1  UNL     1      26.048   7.376  50.839  1.00  0.00    -0.389 OA
HETATM   25  H11 UNL     1      26.230   7.247  51.788  1.00  0.00     0.210 HD
ENDBRANCH  23  24
BRANCH  23  26
HETATM   26  C7  UNL     1      23.864   6.613  50.540  1.00  0.00     0.262 C 
HETATM   27  O2  UNL     1      23.344   7.699  50.356  1.00  0.00    -0.304 OA
ENDBRANCH  23  26
ENDBRANCH  22  23
ENDBRANCH  21  22
ENDBRANCH  20  21
ENDBRANCH   2  20
TORSDOF 7
ENDMDL
