MODEL 1
REMARK VINA RESULT:      -7.0      0.000      0.000
REMARK  5 active torsions:
REMARK  status: ('A' for Active; 'I' for Inactive)
REMARK    1  A    between atoms: O1_2  and  C2_3 
REMARK    2  A    between atoms: C6_9  and  N3_10 
REMARK    3  A    between atoms: N3_10  and  C7_11 
REMARK    4  A    between atoms: C8_12  and  C9_13 
REMARK    5  A    between atoms: C13_18  and  O2_19 
ROOT
HETATM    1  C2  UNL     1      26.582   0.187  54.253  1.00  0.00     0.103 A 
HETATM    2  C3  UNL     1      25.479  -0.638  53.993  1.00  0.00     0.072 A 
HETATM    3  C4  UNL     1      24.328  -0.054  53.446  1.00  0.00     0.075 A 
HETATM    4  N1  UNL     1      23.289  -0.818  53.202  1.00  0.00    -0.241 NA
HETATM    5  C5  UNL     1      22.158  -0.323  52.686  1.00  0.00     0.236 A 
HETATM    6  N2  UNL     1      22.123   1.006  52.418  1.00  0.00    -0.224 NA
HETATM    7  C6  UNL     1      23.198   1.763  52.676  1.00  0.00     0.141 A 
HETATM    8  C11 UNL     1      24.376   1.300  53.206  1.00  0.00     0.042 A 
HETATM    9  C12 UNL     1      25.421   2.142  53.439  1.00  0.00     0.057 A 
HETATM   10  C13 UNL     1      26.540   1.554  53.976  1.00  0.00     0.102 A 
ENDROOT
BRANCH   7  11
HETATM   11  N3  UNL     1      22.976   3.148  52.328  1.00  0.00    -0.350 N 
HETATM   12  H6  UNL     1      22.841   4.131  52.179  1.00  0.00     0.166 HD
BRANCH  11  13
HETATM   13  C7  UNL     1      22.691   3.036  50.909  1.00  0.00     0.089 C 
HETATM   14  C8  UNL     1      23.420   3.246  49.799  1.00  0.00     0.014 C 
BRANCH  14  15
HETATM   15  C9  UNL     1      24.766   3.664  49.442  1.00  0.00    -0.004 C 
HETATM   16  C10 UNL     1      25.995   3.547  49.945  1.00  0.00     0.259 C 
HETATM   17 CL1  UNL     1      27.249   4.306  49.000  1.00  0.00    -0.251 Cl
ENDBRANCH  14  15
ENDBRANCH  11  13
ENDBRANCH   7  11
BRANCH  10  18
HETATM   18  O2  UNL     1      27.671   2.300  54.261  1.00  0.00    -0.353 OA
HETATM   19  C14 UNL     1      28.648   2.601  53.283  1.00  0.00     0.210 C 
ENDBRANCH  10  18
BRANCH   1  20
HETATM   20  O1  UNL     1      27.732  -0.349  54.790  1.00  0.00    -0.353 OA
HETATM   21  C1  UNL     1      28.733  -0.884  53.939  1.00  0.00     0.210 C 
ENDBRANCH   1  20
TORSDOF 5
ENDMDL
MODEL 2
REMARK VINA RESULT:      -6.8      2.799      4.258
REMARK  5 active torsions:
REMARK  status: ('A' for Active; 'I' for Inactive)
REMARK    1  A    between atoms: O1_2  and  C2_3 
REMARK    2  A    between atoms: C6_9  and  N3_10 
REMARK    3  A    between atoms: N3_10  and  C7_11 
REMARK    4  A    between atoms: C8_12  and  C9_13 
REMARK    5  A    between atoms: C13_18  and  O2_19 
ROOT
HETATM    1  C2  UNL     1      27.468   0.266  53.849  1.00  0.00     0.103 A 
HETATM    2  C3  UNL     1      27.812   1.037  52.730  1.00  0.00     0.072 A 
HETATM    3  C4  UNL     1      26.835   1.878  52.178  1.00  0.00     0.075 A 
HETATM    4  N1  UNL     1      27.147   2.601  51.128  1.00  0.00    -0.241 NA
HETATM    5  C5  UNL     1      26.261   3.420  50.549  1.00  0.00     0.236 A 
HETATM    6  N2  UNL     1      25.019   3.478  51.091  1.00  0.00    -0.224 NA
HETATM    7  C6  UNL     1      24.727   2.730  52.163  1.00  0.00     0.141 A 
HETATM    8  C11 UNL     1      25.602   1.877  52.787  1.00  0.00     0.042 A 
HETATM    9  C12 UNL     1      25.220   1.149  53.873  1.00  0.00     0.057 A 
HETATM   10  C13 UNL     1      26.188   0.331  54.401  1.00  0.00     0.102 A 
ENDROOT
BRANCH   7  11
HETATM   11  N3  UNL     1      23.363   2.923  52.597  1.00  0.00    -0.350 N 
HETATM   12  H6  UNL     1      22.450   3.115  52.969  1.00  0.00     0.166 HD
BRANCH  11  13
HETATM   13  C7  UNL     1      22.643   2.129  51.617  1.00  0.00     0.089 C 
HETATM   14  C8  UNL     1      22.056   0.920  51.657  1.00  0.00     0.014 C 
BRANCH  14  15
HETATM   15  C9  UNL     1      21.841  -0.157  52.609  1.00  0.00    -0.004 C 
HETATM   16  C10 UNL     1      21.372  -0.289  53.850  1.00  0.00     0.259 C 
HETATM   17 CL1  UNL     1      21.374  -1.922  54.464  1.00  0.00    -0.251 Cl
ENDBRANCH  14  15
ENDBRANCH  11  13
ENDBRANCH   7  11
BRANCH  10  18
HETATM   18  O2  UNL     1      25.927  -0.463  55.507  1.00  0.00    -0.353 OA
HETATM   19  C14 UNL     1      24.733  -1.209  55.639  1.00  0.00     0.210 C 
ENDBRANCH  10  18
BRANCH   1  20
HETATM   20  O1  UNL     1      28.399  -0.571  54.421  1.00  0.00    -0.353 OA
HETATM   21  C1  UNL     1      29.652  -0.780  53.790  1.00  0.00     0.210 C 
ENDBRANCH   1  20
TORSDOF 5
ENDMDL
MODEL 3
REMARK VINA RESULT:      -6.5      2.272      3.217
REMARK  5 active torsions:
REMARK  status: ('A' for Active; 'I' for Inactive)
REMARK    1  A    between atoms: O1_2  and  C2_3 
REMARK    2  A    between atoms: C6_9  and  N3_10 
REMARK    3  A    between atoms: N3_10  and  C7_11 
REMARK    4  A    between atoms: C8_12  and  C9_13 
REMARK    5  A    between atoms: C13_18  and  O2_19 
ROOT
HETATM    1  C2  UNL     1      25.549  -0.166  53.970  1.00  0.00     0.103 A 
HETATM    2  C3  UNL     1      24.419   0.127  53.195  1.00  0.00     0.072 A 
HETATM    3  C4  UNL     1      24.523   1.133  52.224  1.00  0.00     0.075 A 
HETATM    4  N1  UNL     1      23.468   1.417  51.496  1.00  0.00    -0.241 NA
HETATM    5  C5  UNL     1      23.498   2.369  50.556  1.00  0.00     0.236 A 
HETATM    6  N2  UNL     1      24.666   3.034  50.378  1.00  0.00    -0.224 NA
HETATM    7  C6  UNL     1      25.728   2.724  51.134  1.00  0.00     0.141 A 
HETATM    8  C11 UNL     1      25.743   1.758  52.109  1.00  0.00     0.042 A 
HETATM    9  C12 UNL     1      26.868   1.510  52.835  1.00  0.00     0.057 A 
HETATM   10  C13 UNL     1      26.749   0.522  53.782  1.00  0.00     0.102 A 
ENDROOT
BRANCH   7  11
HETATM   11  N3  UNL     1      26.878   3.534  50.804  1.00  0.00    -0.350 N 
HETATM   12  H6  UNL     1      27.717   4.065  50.657  1.00  0.00     0.166 HD
BRANCH  11  13
HETATM   13  C7  UNL     1      26.471   4.087  49.524  1.00  0.00     0.089 C 
HETATM   14  C8  UNL     1      27.053   4.931  48.654  1.00  0.00     0.014 C 
BRANCH  14  15
HETATM   15  C9  UNL     1      28.289   5.686  48.527  1.00  0.00    -0.004 C 
HETATM   16  C10 UNL     1      29.533   5.465  48.103  1.00  0.00     0.259 C 
HETATM   17 CL1  UNL     1      30.600   6.840  48.214  1.00  0.00    -0.251 Cl
ENDBRANCH  14  15
ENDBRANCH  11  13
ENDBRANCH   7  11
BRANCH  10  18
HETATM   18  O2  UNL     1      27.820   0.173  54.588  1.00  0.00    -0.353 OA
HETATM   19  C14 UNL     1      29.163   0.307  54.164  1.00  0.00     0.210 C 
ENDBRANCH  10  18
BRANCH   1  20
HETATM   20  O1  UNL     1      25.488  -1.148  54.934  1.00  0.00    -0.353 OA
HETATM   21  C1  UNL     1      24.293  -1.348  55.672  1.00  0.00     0.210 C 
ENDBRANCH   1  20
TORSDOF 5
ENDMDL
MODEL 4
REMARK VINA RESULT:      -6.4      3.018      4.412
REMARK  5 active torsions:
REMARK  status: ('A' for Active; 'I' for Inactive)
REMARK    1  A    between atoms: O1_2  and  C2_3 
REMARK    2  A    between atoms: C6_9  and  N3_10 
REMARK    3  A    between atoms: N3_10  and  C7_11 
REMARK    4  A    between atoms: C8_12  and  C9_13 
REMARK    5  A    between atoms: C13_18  and  O2_19 
ROOT
HETATM    1  C2  UNL     1      27.440   1.095  53.222  1.00  0.00     0.103 A 
HETATM    2  C3  UNL     1      27.093   0.302  54.324  1.00  0.00     0.072 A 
HETATM    3  C4  UNL     1      25.770  -0.151  54.424  1.00  0.00     0.075 A 
HETATM    4  N1  UNL     1      25.434  -0.892  55.455  1.00  0.00    -0.241 NA
HETATM    5  C5  UNL     1      24.188  -1.352  55.614  1.00  0.00     0.236 A 
HETATM    6  N2  UNL     1      23.276  -1.026  54.665  1.00  0.00    -0.224 NA
HETATM    7  C6  UNL     1      23.645  -0.269  53.623  1.00  0.00     0.141 A 
HETATM    8  C11 UNL     1      24.910   0.226  53.420  1.00  0.00     0.042 A 
HETATM    9  C12 UNL     1      25.198   0.992  52.332  1.00  0.00     0.057 A 
HETATM   10  C13 UNL     1      26.498   1.428  52.249  1.00  0.00     0.102 A 
ENDROOT
BRANCH   7  11
HETATM   11  N3  UNL     1      22.545  -0.025  52.719  1.00  0.00    -0.350 N 
HETATM   12  H6  UNL     1      21.846   0.153  52.021  1.00  0.00     0.166 HD
BRANCH  11  13
HETATM   13  C7  UNL     1      21.412  -0.144  53.621  1.00  0.00     0.089 C 
HETATM   14  C8  UNL     1      20.082  -0.188  53.434  1.00  0.00     0.014 C 
BRANCH  14  15
HETATM   15  C9  UNL     1      19.133  -0.142  52.333  1.00  0.00    -0.004 C 
HETATM   16  C10 UNL     1      19.057   0.420  51.127  1.00  0.00     0.259 C 
HETATM   17 CL1  UNL     1      17.588   0.079  50.250  1.00  0.00    -0.251 Cl
ENDBRANCH  14  15
ENDBRANCH  11  13
ENDBRANCH   7  11
BRANCH  10  18
HETATM   18  O2  UNL     1      26.920   2.216  51.191  1.00  0.00    -0.353 OA
HETATM   19  C14 UNL     1      26.062   3.130  50.536  1.00  0.00     0.210 C 
ENDBRANCH  10  18
BRANCH   1  20
HETATM   20  O1  UNL     1      28.730   1.559  53.087  1.00  0.00    -0.353 OA
HETATM   21  C1  UNL     1      29.417   2.091  54.208  1.00  0.00     0.210 C 
ENDBRANCH   1  20
TORSDOF 5
ENDMDL
MODEL 5
REMARK VINA RESULT:      -6.3      2.130      2.643
REMARK  5 active torsions:
REMARK  status: ('A' for Active; 'I' for Inactive)
REMARK    1  A    between atoms: O1_2  and  C2_3 
REMARK    2  A    between atoms: C6_9  and  N3_10 
REMARK    3  A    between atoms: N3_10  and  C7_11 
REMARK    4  A    between atoms: C8_12  and  C9_13 
REMARK    5  A    between atoms: C13_18  and  O2_19 
ROOT
HETATM    1  C2  UNL     1      26.352  -0.083  53.394  1.00  0.00     0.103 A 
HETATM    2  C3  UNL     1      25.468  -0.774  54.233  1.00  0.00     0.072 A 
HETATM    3  C4  UNL     1      24.097  -0.497  54.125  1.00  0.00     0.075 A 
HETATM    4  N1  UNL     1      23.261  -1.137  54.909  1.00  0.00    -0.241 NA
HETATM    5  C5  UNL     1      21.943  -0.916  54.861  1.00  0.00     0.236 A 
HETATM    6  N2  UNL     1      21.496  -0.001  53.966  1.00  0.00    -0.224 NA
HETATM    7  C6  UNL     1      22.370   0.639  53.178  1.00  0.00     0.141 A 
HETATM    8  C11 UNL     1      23.729   0.445  53.193  1.00  0.00     0.042 A 
HETATM    9  C12 UNL     1      24.547   1.142  52.357  1.00  0.00     0.057 A 
HETATM   10  C13 UNL     1      25.886   0.858  52.475  1.00  0.00     0.102 A 
ENDROOT
BRANCH   7  11
HETATM   11  N3  UNL     1      21.713   1.573  52.293  1.00  0.00    -0.350 N 
HETATM   12  H6  UNL     1      21.298   2.292  51.729  1.00  0.00     0.166 HD
BRANCH  11  13
HETATM   13  C7  UNL     1      21.034   0.665  51.385  1.00  0.00     0.089 C 
HETATM   14  C8  UNL     1      20.939   0.596  50.045  1.00  0.00     0.014 C 
BRANCH  14  15
HETATM   15  C9  UNL     1      21.414   1.322  48.879  1.00  0.00    -0.004 C 
HETATM   16  C10 UNL     1      21.753   2.575  48.576  1.00  0.00     0.259 C 
HETATM   17 CL1  UNL     1      22.265   2.817  46.926  1.00  0.00    -0.251 Cl
ENDBRANCH  14  15
ENDBRANCH  11  13
ENDBRANCH   7  11
BRANCH  10  18
HETATM   18  O2  UNL     1      26.824   1.499  51.683  1.00  0.00    -0.353 OA
HETATM   19  C14 UNL     1      26.506   2.632  50.898  1.00  0.00     0.210 C 
ENDBRANCH  10  18
BRANCH   1  20
HETATM   20  O1  UNL     1      27.705  -0.328  53.469  1.00  0.00    -0.353 OA
HETATM   21  C1  UNL     1      28.449   0.118  54.592  1.00  0.00     0.210 C 
ENDBRANCH   1  20
TORSDOF 5
ENDMDL
MODEL 6
REMARK VINA RESULT:      -6.3      2.850      4.250
REMARK  5 active torsions:
REMARK  status: ('A' for Active; 'I' for Inactive)
REMARK    1  A    between atoms: O1_2  and  C2_3 
REMARK    2  A    between atoms: C6_9  and  N3_10 
REMARK    3  A    between atoms: N3_10  and  C7_11 
REMARK    4  A    between atoms: C8_12  and  C9_13 
REMARK    5  A    between atoms: C13_18  and  O2_19 
ROOT
HETATM    1  C2  UNL     1      23.479  -0.300  53.381  1.00  0.00     0.103 A 
HETATM    2  C3  UNL     1      24.706  -0.851  53.774  1.00  0.00     0.072 A 
HETATM    3  C4  UNL     1      25.877  -0.134  53.491  1.00  0.00     0.075 A 
HETATM    4  N1  UNL     1      27.032  -0.643  53.852  1.00  0.00    -0.241 NA
HETATM    5  C5  UNL     1      28.186  -0.013  53.607  1.00  0.00     0.236 A 
HETATM    6  N2  UNL     1      28.122   1.181  52.968  1.00  0.00    -0.224 NA
HETATM    7  C6  UNL     1      26.931   1.679  52.610  1.00  0.00     0.141 A 
HETATM    8  C11 UNL     1      25.723   1.068  52.839  1.00  0.00     0.042 A 
HETATM    9  C12 UNL     1      24.557   1.645  52.437  1.00  0.00     0.057 A 
HETATM   10  C13 UNL     1      23.420   0.929  52.723  1.00  0.00     0.102 A 
ENDROOT
BRANCH   7  11
HETATM   11  N3  UNL     1      27.060   2.954  51.942  1.00  0.00    -0.350 N 
HETATM   12  H6  UNL     1      27.182   3.875  51.562  1.00  0.00     0.166 HD
BRANCH  11  13
HETATM   13  C7  UNL     1      26.622   2.611  50.600  1.00  0.00     0.089 C 
HETATM   14  C8  UNL     1      26.627   3.270  49.429  1.00  0.00     0.014 C 
BRANCH  14  15
HETATM   15  C9  UNL     1      27.031   4.567  48.909  1.00  0.00    -0.004 C 
HETATM   16  C10 UNL     1      28.160   5.158  48.519  1.00  0.00     0.259 C 
HETATM   17 CL1  UNL     1      27.975   6.804  47.973  1.00  0.00    -0.251 Cl
ENDBRANCH  14  15
ENDBRANCH  11  13
ENDBRANCH   7  11
BRANCH  10  18
HETATM   18  O2  UNL     1      22.168   1.405  52.366  1.00  0.00    -0.353 OA
HETATM   19  C14 UNL     1      21.995   2.487  51.472  1.00  0.00     0.210 C 
ENDBRANCH  10  18
BRANCH   1  20
HETATM   20  O1  UNL     1      22.306  -0.973  53.642  1.00  0.00    -0.353 OA
HETATM   21  C1  UNL     1      21.731  -0.925  54.938  1.00  0.00     0.210 C 
ENDBRANCH   1  20
TORSDOF 5
ENDMDL
MODEL 7
REMARK VINA RESULT:      -6.2      1.890      2.490
REMARK  5 active torsions:
REMARK  status: ('A' for Active; 'I' for Inactive)
REMARK    1  A    between atoms: O1_2  and  C2_3 
REMARK    2  A    between atoms: C6_9  and  N3_10 
REMARK    3  A    between atoms: N3_10  and  C7_11 
REMARK    4  A    between atoms: C8_12  and  C9_13 
REMARK    5  A    between atoms: C13_18  and  O2_19 
ROOT
HETATM    1  C2  UNL     1      26.655   0.580  53.463  1.00  0.00     0.103 A 
HETATM    2  C3  UNL     1      25.882  -0.191  54.341  1.00  0.00     0.072 A 
HETATM    3  C4  UNL     1      24.517  -0.347  54.061  1.00  0.00     0.075 A 
HETATM    4  N1  UNL     1      23.783  -1.065  54.879  1.00  0.00    -0.241 NA
HETATM    5  C5  UNL     1      22.474  -1.248  54.673  1.00  0.00     0.236 A 
HETATM    6  N2  UNL     1      21.927  -0.663  53.579  1.00  0.00    -0.224 NA
HETATM    7  C6  UNL     1      22.697   0.065  52.760  1.00  0.00     0.141 A 
HETATM    8  C11 UNL     1      24.042   0.280  52.932  1.00  0.00     0.042 A 
HETATM    9  C12 UNL     1      24.751   1.038  52.050  1.00  0.00     0.057 A 
HETATM   10  C13 UNL     1      26.086   1.180  52.339  1.00  0.00     0.102 A 
ENDROOT
BRANCH   7  11
HETATM   11  N3  UNL     1      21.943   0.608  51.654  1.00  0.00    -0.350 N 
HETATM   12  H6  UNL     1      21.464   0.920  50.829  1.00  0.00     0.166 HD
BRANCH  11  13
HETATM   13  C7  UNL     1      21.154   1.624  52.327  1.00  0.00     0.089 C 
HETATM   14  C8  UNL     1      21.274   2.957  52.451  1.00  0.00     0.014 C 
BRANCH  14  15
HETATM   15  C9  UNL     1      22.174   4.016  52.023  1.00  0.00    -0.004 C 
HETATM   16  C10 UNL     1      23.236   4.657  52.512  1.00  0.00     0.259 C 
HETATM   17 CL1  UNL     1      23.897   5.884  51.465  1.00  0.00    -0.251 Cl
ENDBRANCH  14  15
ENDBRANCH  11  13
ENDBRANCH   7  11
BRANCH  10  18
HETATM   18  O2  UNL     1      26.918   1.926  51.521  1.00  0.00    -0.353 OA
HETATM   19  C14 UNL     1      26.437   2.983  50.713  1.00  0.00     0.210 C 
ENDBRANCH  10  18
BRANCH   1  20
HETATM   20  O1  UNL     1      28.000   0.755  53.703  1.00  0.00    -0.353 OA
HETATM   21  C1  UNL     1      28.604   0.162  54.841  1.00  0.00     0.210 C 
ENDBRANCH   1  20
TORSDOF 5
ENDMDL
MODEL 8
REMARK VINA RESULT:      -6.2      2.393      3.775
REMARK  5 active torsions:
REMARK  status: ('A' for Active; 'I' for Inactive)
REMARK    1  A    between atoms: O1_2  and  C2_3 
REMARK    2  A    between atoms: C6_9  and  N3_10 
REMARK    3  A    between atoms: N3_10  and  C7_11 
REMARK    4  A    between atoms: C8_12  and  C9_13 
REMARK    5  A    between atoms: C13_18  and  O2_19 
ROOT
HETATM    1  C2  UNL     1      22.905   0.025  53.070  1.00  0.00     0.103 A 
HETATM    2  C3  UNL     1      21.893   0.977  52.891  1.00  0.00     0.072 A 
HETATM    3  C4  UNL     1      22.254   2.249  52.425  1.00  0.00     0.075 A 
HETATM    4  N1  UNL     1      21.313   3.149  52.257  1.00  0.00    -0.241 NA
HETATM    5  C5  UNL     1      21.591   4.383  51.821  1.00  0.00     0.236 A 
HETATM    6  N2  UNL     1      22.888   4.674  51.554  1.00  0.00    -0.224 NA
HETATM    7  C6  UNL     1      23.828   3.738  51.733  1.00  0.00     0.141 A 
HETATM    8  C11 UNL     1      23.591   2.461  52.179  1.00  0.00     0.042 A 
HETATM    9  C12 UNL     1      24.609   1.571  52.337  1.00  0.00     0.057 A 
HETATM   10  C13 UNL     1      24.238   0.330  52.794  1.00  0.00     0.102 A 
ENDROOT
BRANCH   7  11
HETATM   11  N3  UNL     1      25.146   4.228  51.399  1.00  0.00    -0.350 N 
HETATM   12  H6  UNL     1      26.091   4.531  51.252  1.00  0.00     0.166 HD
BRANCH  11  13
HETATM   13  C7  UNL     1      24.902   4.813  50.093  1.00  0.00     0.089 C 
HETATM   14  C8  UNL     1      25.705   5.169  49.075  1.00  0.00     0.014 C 
BRANCH  14  15
HETATM   15  C9  UNL     1      27.122   5.167  48.751  1.00  0.00    -0.004 C 
HETATM   16  C10 UNL     1      28.025   6.038  48.300  1.00  0.00     0.259 C 
HETATM   17 CL1  UNL     1      29.634   5.392  48.111  1.00  0.00    -0.251 Cl
ENDBRANCH  14  15
ENDBRANCH  11  13
ENDBRANCH   7  11
BRANCH  10  18
HETATM   18  O2  UNL     1      25.179  -0.666  52.997  1.00  0.00    -0.353 OA
HETATM   19  C14 UNL     1      26.511  -0.558  52.532  1.00  0.00     0.210 C 
ENDBRANCH  10  18
BRANCH   1  20
HETATM   20  O1  UNL     1      22.591  -1.237  53.525  1.00  0.00    -0.353 OA
HETATM   21  C1  UNL     1      21.623  -1.405  54.548  1.00  0.00     0.210 C 
ENDBRANCH   1  20
TORSDOF 5
ENDMDL
MODEL 9
REMARK VINA RESULT:      -6.1      3.453      5.022
REMARK  5 active torsions:
REMARK  status: ('A' for Active; 'I' for Inactive)
REMARK    1  A    between atoms: O1_2  and  C2_3 
REMARK    2  A    between atoms: C6_9  and  N3_10 
REMARK    3  A    between atoms: N3_10  and  C7_11 
REMARK    4  A    between atoms: C8_12  and  C9_13 
REMARK    5  A    between atoms: C13_18  and  O2_19 
ROOT
HETATM    1  C2  UNL     1      26.488   1.113  53.669  1.00  0.00     0.103 A 
HETATM    2  C3  UNL     1      25.860   2.346  53.447  1.00  0.00     0.072 A 
HETATM    3  C4  UNL     1      24.524   2.343  53.021  1.00  0.00     0.075 A 
HETATM    4  N1  UNL     1      23.928   3.493  52.807  1.00  0.00    -0.241 NA
HETATM    5  C5  UNL     1      22.657   3.560  52.393  1.00  0.00     0.236 A 
HETATM    6  N2  UNL     1      22.000   2.390  52.203  1.00  0.00    -0.224 NA
HETATM    7  C6  UNL     1      22.631   1.230  52.429  1.00  0.00     0.141 A 
HETATM    8  C11 UNL     1      23.932   1.113  52.852  1.00  0.00     0.042 A 
HETATM    9  C12 UNL     1      24.498  -0.109  53.054  1.00  0.00     0.057 A 
HETATM   10  C13 UNL     1      25.806  -0.088  53.472  1.00  0.00     0.102 A 
ENDROOT
BRANCH   7  11
HETATM   11  N3  UNL     1      21.776   0.094  52.174  1.00  0.00    -0.350 N 
HETATM   12  H6  UNL     1      21.258  -0.752  52.017  1.00  0.00     0.166 HD
BRANCH  11  13
HETATM   13  C7  UNL     1      20.519   0.754  51.869  1.00  0.00     0.089 C 
HETATM   14  C8  UNL     1      19.232   0.374  51.946  1.00  0.00     0.014 C 
BRANCH  14  15
HETATM   15  C9  UNL     1      18.461  -0.795  52.336  1.00  0.00    -0.004 C 
HETATM   16  C10 UNL     1      18.138  -1.423  53.467  1.00  0.00     0.259 C 
HETATM   17 CL1  UNL     1      17.140  -2.838  53.259  1.00  0.00    -0.251 Cl
ENDBRANCH  14  15
ENDBRANCH  11  13
ENDBRANCH   7  11
BRANCH  10  18
HETATM   18  O2  UNL     1      26.497  -1.264  53.713  1.00  0.00    -0.353 OA
HETATM   19  C14 UNL     1      27.073  -2.031  52.673  1.00  0.00     0.210 C 
ENDBRANCH  10  18
BRANCH   1  20
HETATM   20  O1  UNL     1      27.799   1.074  54.090  1.00  0.00    -0.353 OA
HETATM   21  C1  UNL     1      28.673   2.152  53.797  1.00  0.00     0.210 C 
ENDBRANCH   1  20
TORSDOF 5
ENDMDL
