MODEL 1
REMARK VINA RESULT:      -8.2      0.000      0.000
REMARK  4 active torsions:
REMARK  status: ('A' for Active; 'I' for Inactive)
REMARK    1  A    between atoms: C6_8  and  N2_9 
REMARK    2  A    between atoms: N2_9  and  C7_10 
REMARK    3  A    between atoms: C7_10  and  C8_11 
REMARK    4  A    between atoms: C15_18  and  C16_19 
ROOT
HETATM    1  C1  UNL     1      23.156  -0.999  54.396  1.00  0.00     0.073 C 
HETATM    2  C2  UNL     1      24.345  -0.510  54.133  1.00  0.00     0.068 A 
HETATM    3  O1  UNL     1      25.462  -1.006  54.534  1.00  0.00    -0.295 OA
HETATM    4  C3  UNL     1      26.486  -0.321  54.131  1.00  0.00     0.182 A 
HETATM    5  N1  UNL     1      27.794  -0.539  54.354  1.00  0.00    -0.236 NA
HETATM    6  C4  UNL     1      28.708   0.308  53.835  1.00  0.00     0.122 A 
HETATM    7  C5  UNL     1      28.228   1.351  53.103  1.00  0.00     0.049 A 
HETATM    8  C6  UNL     1      26.872   1.595  52.859  1.00  0.00     0.045 A 
HETATM    9  C14 UNL     1      25.958   0.720  53.397  1.00  0.00     0.057 A 
HETATM   10  C15 UNL     1      24.583   0.645  53.368  1.00  0.00     0.021 A 
ENDROOT
BRANCH   8  11
HETATM   11  N2  UNL     1      26.543   2.729  52.077  1.00  0.00    -0.385 N 
HETATM   12  H5  UNL     1      26.316   3.681  52.324  1.00  0.00     0.160 HD
BRANCH  11  13
HETATM   13  C7  UNL     1      26.488   2.630  50.659  1.00  0.00     0.158 C 
BRANCH  13  14
HETATM   14  C8  UNL     1      26.284   3.860  49.906  1.00  0.00    -0.041 A 
HETATM   15  C9  UNL     1      25.029   4.477  49.874  1.00  0.00     0.009 A 
HETATM   16  C10 UNL     1      24.791   5.645  49.170  1.00  0.00     0.001 A 
HETATM   17  C11 UNL     1      25.861   6.207  48.478  1.00  0.00     0.000 A 
HETATM   18  C12 UNL     1      27.089   5.590  48.519  1.00  0.00     0.001 A 
HETATM   19  C13 UNL     1      27.331   4.444  49.205  1.00  0.00     0.009 A 
ENDBRANCH  13  14
ENDBRANCH  11  13
ENDBRANCH   8  11
BRANCH  10  20
HETATM   20  C16 UNL     1      23.757   1.503  52.739  1.00  0.00    -0.022 A 
HETATM   21  C17 UNL     1      22.873   2.554  52.179  1.00  0.00     0.013 A 
HETATM   22  C18 UNL     1      22.995   1.454  51.465  1.00  0.00     0.013 A 
ENDBRANCH  10  20
TORSDOF 4
ENDMDL
MODEL 2
REMARK VINA RESULT:      -7.8      2.507      5.665
REMARK  4 active torsions:
REMARK  status: ('A' for Active; 'I' for Inactive)
REMARK    1  A    between atoms: C6_8  and  N2_9 
REMARK    2  A    between atoms: N2_9  and  C7_10 
REMARK    3  A    between atoms: C7_10  and  C8_11 
REMARK    4  A    between atoms: C15_18  and  C16_19 
ROOT
HETATM    1  C1  UNL     1      20.016   0.610  50.968  1.00  0.00     0.073 C 
HETATM    2  C2  UNL     1      21.261   1.006  51.087  1.00  0.00     0.068 A 
HETATM    3  O1  UNL     1      21.849   1.864  50.329  1.00  0.00    -0.295 OA
HETATM    4  C3  UNL     1      23.081   2.072  50.670  1.00  0.00     0.182 A 
HETATM    5  N1  UNL     1      23.990   2.891  50.113  1.00  0.00    -0.236 NA
HETATM    6  C4  UNL     1      25.234   2.957  50.632  1.00  0.00     0.122 A 
HETATM    7  C5  UNL     1      25.488   2.167  51.711  1.00  0.00     0.049 A 
HETATM    8  C6  UNL     1      24.557   1.308  52.306  1.00  0.00     0.045 A 
HETATM    9  C14 UNL     1      23.296   1.256  51.762  1.00  0.00     0.057 A 
HETATM   10  C15 UNL     1      22.155   0.549  52.071  1.00  0.00     0.021 A 
ENDROOT
BRANCH   8  11
HETATM   11  N2  UNL     1      24.987   0.553  53.424  1.00  0.00    -0.385 N 
HETATM   12  H5  UNL     1      24.934   0.721  54.418  1.00  0.00     0.160 HD
BRANCH  11  13
HETATM   13  C7  UNL     1      25.631  -0.701  53.237  1.00  0.00     0.158 C 
BRANCH  13  14
HETATM   14  C8  UNL     1      27.075  -0.751  53.428  1.00  0.00    -0.041 A 
HETATM   15  C9  UNL     1      27.820  -1.835  52.952  1.00  0.00     0.009 A 
HETATM   16  C10 UNL     1      29.193  -1.922  53.113  1.00  0.00     0.001 A 
HETATM   17  C11 UNL     1      29.830  -0.877  53.776  1.00  0.00     0.000 A 
HETATM   18  C12 UNL     1      29.084   0.183  54.238  1.00  0.00     0.001 A 
HETATM   19  C13 UNL     1      27.739   0.276  54.085  1.00  0.00     0.009 A 
ENDBRANCH  13  14
ENDBRANCH  11  13
ENDBRANCH   8  11
BRANCH  10  20
HETATM   20  C16 UNL     1      22.020  -0.334  53.078  1.00  0.00    -0.022 A 
HETATM   21  C17 UNL     1      21.938  -1.423  54.082  1.00  0.00     0.013 A 
HETATM   22  C18 UNL     1      21.503  -0.242  54.468  1.00  0.00     0.013 A 
ENDBRANCH  10  20
TORSDOF 4
ENDMDL
MODEL 3
REMARK VINA RESULT:      -7.8      1.962      2.614
REMARK  4 active torsions:
REMARK  status: ('A' for Active; 'I' for Inactive)
REMARK    1  A    between atoms: C6_8  and  N2_9 
REMARK    2  A    between atoms: N2_9  and  C7_10 
REMARK    3  A    between atoms: C7_10  and  C8_11 
REMARK    4  A    between atoms: C15_18  and  C16_19 
ROOT
HETATM    1  C1  UNL     1      21.963  -1.317  54.854  1.00  0.00     0.073 C 
HETATM    2  C2  UNL     1      23.147  -0.883  54.494  1.00  0.00     0.068 A 
HETATM    3  O1  UNL     1      24.241  -1.063  55.148  1.00  0.00    -0.295 OA
HETATM    4  C3  UNL     1      25.266  -0.526  54.565  1.00  0.00     0.182 A 
HETATM    5  N1  UNL     1      26.553  -0.514  54.954  1.00  0.00    -0.236 NA
HETATM    6  C4  UNL     1      27.474   0.111  54.190  1.00  0.00     0.122 A 
HETATM    7  C5  UNL     1      27.021   0.701  53.049  1.00  0.00     0.049 A 
HETATM    8  C6  UNL     1      25.688   0.699  52.626  1.00  0.00     0.045 A 
HETATM    9  C14 UNL     1      24.766   0.057  53.420  1.00  0.00     0.057 A 
HETATM   10  C15 UNL     1      23.407  -0.143  53.326  1.00  0.00     0.021 A 
ENDROOT
BRANCH   8  11
HETATM   11  N2  UNL     1      25.386   1.363  51.412  1.00  0.00    -0.385 N 
HETATM   12  H5  UNL     1      25.090   1.024  50.509  1.00  0.00     0.160 HD
BRANCH  11  13
HETATM   13  C7  UNL     1      25.483   2.779  51.327  1.00  0.00     0.158 C 
BRANCH  13  14
HETATM   14  C8  UNL     1      24.248   3.547  51.430  1.00  0.00    -0.041 A 
HETATM   15  C9  UNL     1      23.507   3.861  50.287  1.00  0.00     0.009 A 
HETATM   16  C10 UNL     1      22.330   4.587  50.340  1.00  0.00     0.001 A 
HETATM   17  C11 UNL     1      21.890   5.008  51.592  1.00  0.00     0.000 A 
HETATM   18  C12 UNL     1      22.629   4.690  52.708  1.00  0.00     0.001 A 
HETATM   19  C13 UNL     1      23.784   3.980  52.665  1.00  0.00     0.009 A 
ENDBRANCH  13  14
ENDBRANCH  11  13
ENDBRANCH   8  11
BRANCH  10  20
HETATM   20  C16 UNL     1      22.609   0.293  52.334  1.00  0.00    -0.022 A 
HETATM   21  C17 UNL     1      21.827   0.681  51.134  1.00  0.00     0.013 A 
HETATM   22  C18 UNL     1      21.424   1.187  52.280  1.00  0.00     0.013 A 
ENDBRANCH  10  20
TORSDOF 4
ENDMDL
MODEL 4
REMARK VINA RESULT:      -7.7      3.121      5.230
REMARK  4 active torsions:
REMARK  status: ('A' for Active; 'I' for Inactive)
REMARK    1  A    between atoms: C6_8  and  N2_9 
REMARK    2  A    between atoms: N2_9  and  C7_10 
REMARK    3  A    between atoms: C7_10  and  C8_11 
REMARK    4  A    between atoms: C15_18  and  C16_19 
ROOT
HETATM    1  C1  UNL     1      19.271   0.538  51.588  1.00  0.00     0.073 C 
HETATM    2  C2  UNL     1      20.294   0.187  52.329  1.00  0.00     0.068 A 
HETATM    3  O1  UNL     1      20.235  -0.538  53.390  1.00  0.00    -0.295 OA
HETATM    4  C3  UNL     1      21.398  -0.732  53.929  1.00  0.00     0.182 A 
HETATM    5  N1  UNL     1      21.716  -1.430  55.033  1.00  0.00    -0.236 NA
HETATM    6  C4  UNL     1      23.006  -1.505  55.424  1.00  0.00     0.122 A 
HETATM    7  C5  UNL     1      23.917  -0.850  54.653  1.00  0.00     0.049 A 
HETATM    8  C6  UNL     1      23.607  -0.119  53.502  1.00  0.00     0.045 A 
HETATM    9  C14 UNL     1      22.287  -0.055  53.121  1.00  0.00     0.057 A 
HETATM   10  C15 UNL     1      21.628   0.554  52.076  1.00  0.00     0.021 A 
ENDROOT
BRANCH   8  11
HETATM   11  N2  UNL     1      24.677   0.505  52.816  1.00  0.00    -0.385 N 
HETATM   12  H5  UNL     1      24.874   1.471  52.600  1.00  0.00     0.160 HD
BRANCH  11  13
HETATM   13  C7  UNL     1      25.738  -0.277  52.281  1.00  0.00     0.158 C 
BRANCH  13  14
HETATM   14  C8  UNL     1      27.082  -0.024  52.784  1.00  0.00    -0.041 A 
HETATM   15  C9  UNL     1      27.958  -1.083  53.045  1.00  0.00     0.009 A 
HETATM   16  C10 UNL     1      29.241  -0.886  53.523  1.00  0.00     0.001 A 
HETATM   17  C11 UNL     1      29.651   0.427  53.744  1.00  0.00     0.000 A 
HETATM   18  C12 UNL     1      28.779   1.458  53.483  1.00  0.00     0.001 A 
HETATM   19  C13 UNL     1      27.519   1.274  53.014  1.00  0.00     0.009 A 
ENDBRANCH  13  14
ENDBRANCH  11  13
ENDBRANCH   8  11
BRANCH  10  20
HETATM   20  C16 UNL     1      22.196   1.293  51.105  1.00  0.00    -0.022 A 
HETATM   21  C17 UNL     1      22.842   1.961  49.948  1.00  0.00     0.013 A 
HETATM   22  C18 UNL     1      22.480   2.742  50.944  1.00  0.00     0.013 A 
ENDBRANCH  10  20
TORSDOF 4
ENDMDL
MODEL 5
REMARK VINA RESULT:      -7.7      2.110      3.840
REMARK  4 active torsions:
REMARK  status: ('A' for Active; 'I' for Inactive)
REMARK    1  A    between atoms: C6_8  and  N2_9 
REMARK    2  A    between atoms: N2_9  and  C7_10 
REMARK    3  A    between atoms: C7_10  and  C8_11 
REMARK    4  A    between atoms: C15_18  and  C16_19 
ROOT
HETATM    1  C1  UNL     1      27.710   0.003  54.832  1.00  0.00     0.073 C 
HETATM    2  C2  UNL     1      26.428  -0.198  54.645  1.00  0.00     0.068 A 
HETATM    3  O1  UNL     1      25.645  -0.826  55.451  1.00  0.00    -0.295 OA
HETATM    4  C3  UNL     1      24.424  -0.880  55.020  1.00  0.00     0.182 A 
HETATM    5  N1  UNL     1      23.347  -1.448  55.591  1.00  0.00    -0.236 NA
HETATM    6  C4  UNL     1      22.153  -1.389  54.965  1.00  0.00     0.122 A 
HETATM    7  C5  UNL     1      22.122  -0.741  53.768  1.00  0.00     0.049 A 
HETATM    8  C6  UNL     1      23.230  -0.143  53.157  1.00  0.00     0.045 A 
HETATM    9  C14 UNL     1      24.437  -0.215  53.812  1.00  0.00     0.057 A 
HETATM   10  C15 UNL     1      25.703   0.243  53.524  1.00  0.00     0.021 A 
ENDROOT
BRANCH   8  11
HETATM   11  N2  UNL     1      23.026   0.490  51.907  1.00  0.00    -0.385 N 
HETATM   12  H5  UNL     1      23.307   0.246  50.969  1.00  0.00     0.160 HD
BRANCH  11  13
HETATM   13  C7  UNL     1      22.300   1.710  51.833  1.00  0.00     0.158 C 
BRANCH  13  14
HETATM   14  C8  UNL     1      22.966   2.854  51.223  1.00  0.00    -0.041 A 
HETATM   15  C9  UNL     1      23.341   2.827  49.876  1.00  0.00     0.009 A 
HETATM   16  C10 UNL     1      23.976   3.891  49.259  1.00  0.00     0.001 A 
HETATM   17  C11 UNL     1      24.239   5.019  50.033  1.00  0.00     0.000 A 
HETATM   18  C12 UNL     1      23.864   5.031  51.356  1.00  0.00     0.001 A 
HETATM   19  C13 UNL     1      23.242   3.993  51.969  1.00  0.00     0.009 A 
ENDBRANCH  13  14
ENDBRANCH  11  13
ENDBRANCH   8  11
BRANCH  10  20
HETATM   20  C16 UNL     1      26.065   0.932  52.425  1.00  0.00    -0.022 A 
HETATM   21  C17 UNL     1      26.437   1.546  51.127  1.00  0.00     0.013 A 
HETATM   22  C18 UNL     1      26.499   2.331  52.181  1.00  0.00     0.013 A 
ENDBRANCH  10  20
TORSDOF 4
ENDMDL
MODEL 6
REMARK VINA RESULT:      -7.4      2.549      5.682
REMARK  4 active torsions:
REMARK  status: ('A' for Active; 'I' for Inactive)
REMARK    1  A    between atoms: C6_8  and  N2_9 
REMARK    2  A    between atoms: N2_9  and  C7_10 
REMARK    3  A    between atoms: C7_10  and  C8_11 
REMARK    4  A    between atoms: C15_18  and  C16_19 
ROOT
HETATM    1  C1  UNL     1      20.671   3.751  51.750  1.00  0.00     0.073 C 
HETATM    2  C2  UNL     1      21.161   2.687  52.341  1.00  0.00     0.068 A 
HETATM    3  O1  UNL     1      20.483   1.832  53.023  1.00  0.00    -0.295 OA
HETATM    4  C3  UNL     1      21.218   0.877  53.498  1.00  0.00     0.182 A 
HETATM    5  N1  UNL     1      20.857  -0.179  54.249  1.00  0.00    -0.236 NA
HETATM    6  C4  UNL     1      21.794  -1.068  54.642  1.00  0.00     0.122 A 
HETATM    7  C5  UNL     1      23.072  -0.826  54.241  1.00  0.00     0.049 A 
HETATM    8  C6  UNL     1      23.468   0.265  53.460  1.00  0.00     0.045 A 
HETATM    9  C14 UNL     1      22.499   1.159  53.070  1.00  0.00     0.057 A 
HETATM   10  C15 UNL     1      22.516   2.314  52.321  1.00  0.00     0.021 A 
ENDROOT
BRANCH   8  11
HETATM   11  N2  UNL     1      24.842   0.369  53.131  1.00  0.00    -0.385 N 
HETATM   12  H5  UNL     1      25.445   1.164  52.977  1.00  0.00     0.160 HD
BRANCH  11  13
HETATM   13  C7  UNL     1      25.628  -0.804  52.959  1.00  0.00     0.158 C 
BRANCH  13  14
HETATM   14  C8  UNL     1      27.066  -0.686  53.163  1.00  0.00    -0.041 A 
HETATM   15  C9  UNL     1      27.642   0.546  53.489  1.00  0.00     0.009 A 
HETATM   16  C10 UNL     1      29.003   0.700  53.691  1.00  0.00     0.001 A 
HETATM   17  C11 UNL     1      29.805  -0.430  53.558  1.00  0.00     0.000 A 
HETATM   18  C12 UNL     1      29.224  -1.635  53.237  1.00  0.00     0.001 A 
HETATM   19  C13 UNL     1      27.892  -1.796  53.037  1.00  0.00     0.009 A 
ENDBRANCH  13  14
ENDBRANCH  11  13
ENDBRANCH   8  11
BRANCH  10  20
HETATM   20  C16 UNL     1      23.601   2.872  51.752  1.00  0.00    -0.022 A 
HETATM   21  C17 UNL     1      24.824   3.563  51.275  1.00  0.00     0.013 A 
HETATM   22  C18 UNL     1      24.211   2.795  50.399  1.00  0.00     0.013 A 
ENDBRANCH  10  20
TORSDOF 4
ENDMDL
MODEL 7
REMARK VINA RESULT:      -7.4      2.652      3.922
REMARK  4 active torsions:
REMARK  status: ('A' for Active; 'I' for Inactive)
REMARK    1  A    between atoms: C6_8  and  N2_9 
REMARK    2  A    between atoms: N2_9  and  C7_10 
REMARK    3  A    between atoms: C7_10  and  C8_11 
REMARK    4  A    between atoms: C15_18  and  C16_19 
ROOT
HETATM    1  C1  UNL     1      18.774  -0.005  51.743  1.00  0.00     0.073 C 
HETATM    2  C2  UNL     1      19.898  -0.190  52.393  1.00  0.00     0.068 A 
HETATM    3  O1  UNL     1      20.021  -0.811  53.513  1.00  0.00    -0.295 OA
HETATM    4  C3  UNL     1      21.246  -0.847  53.933  1.00  0.00     0.182 A 
HETATM    5  N1  UNL     1      21.744  -1.404  55.051  1.00  0.00    -0.236 NA
HETATM    6  C4  UNL     1      23.068  -1.326  55.302  1.00  0.00     0.122 A 
HETATM    7  C5  UNL     1      23.826  -0.670  54.380  1.00  0.00     0.049 A 
HETATM    8  C6  UNL     1      23.328  -0.085  53.211  1.00  0.00     0.045 A 
HETATM    9  C14 UNL     1      21.976  -0.176  52.975  1.00  0.00     0.057 A 
HETATM   10  C15 UNL     1      21.156   0.267  51.962  1.00  0.00     0.021 A 
ENDROOT
BRANCH   8  11
HETATM   11  N2  UNL     1      24.255   0.562  52.358  1.00  0.00    -0.385 N 
HETATM   12  H5  UNL     1      24.681   0.287  51.485  1.00  0.00     0.160 HD
BRANCH  11  13
HETATM   13  C7  UNL     1      24.756   1.851  52.691  1.00  0.00     0.158 C 
BRANCH  13  14
HETATM   14  C8  UNL     1      25.151   2.725  51.592  1.00  0.00    -0.041 A 
HETATM   15  C9  UNL     1      24.403   3.866  51.285  1.00  0.00     0.009 A 
HETATM   16  C10 UNL     1      24.742   4.721  50.251  1.00  0.00     0.001 A 
HETATM   17  C11 UNL     1      25.876   4.410  49.505  1.00  0.00     0.000 A 
HETATM   18  C12 UNL     1      26.602   3.285  49.820  1.00  0.00     0.001 A 
HETATM   19  C13 UNL     1      26.277   2.440  50.831  1.00  0.00     0.009 A 
ENDBRANCH  13  14
ENDBRANCH  11  13
ENDBRANCH   8  11
BRANCH  10  20
HETATM   20  C16 UNL     1      21.545   0.956  50.872  1.00  0.00    -0.022 A 
HETATM   21  C17 UNL     1      22.048   1.570  49.619  1.00  0.00     0.013 A 
HETATM   22  C18 UNL     1      21.361   2.358  50.419  1.00  0.00     0.013 A 
ENDBRANCH  10  20
TORSDOF 4
ENDMDL
MODEL 8
REMARK VINA RESULT:      -7.3      1.919      3.876
REMARK  4 active torsions:
REMARK  status: ('A' for Active; 'I' for Inactive)
REMARK    1  A    between atoms: C6_8  and  N2_9 
REMARK    2  A    between atoms: N2_9  and  C7_10 
REMARK    3  A    between atoms: C7_10  and  C8_11 
REMARK    4  A    between atoms: C15_18  and  C16_19 
ROOT
HETATM    1  C1  UNL     1      22.970  -0.901  53.741  1.00  0.00     0.073 C 
HETATM    2  C2  UNL     1      22.945   0.301  53.216  1.00  0.00     0.068 A 
HETATM    3  O1  UNL     1      21.909   1.059  53.135  1.00  0.00    -0.295 OA
HETATM    4  C3  UNL     1      22.165   2.197  52.570  1.00  0.00     0.182 A 
HETATM    5  N1  UNL     1      21.337   3.225  52.318  1.00  0.00    -0.236 NA
HETATM    6  C4  UNL     1      21.815   4.333  51.712  1.00  0.00     0.122 A 
HETATM    7  C5  UNL     1      23.138   4.329  51.388  1.00  0.00     0.049 A 
HETATM    8  C6  UNL     1      24.016   3.270  51.641  1.00  0.00     0.045 A 
HETATM    9  C14 UNL     1      23.509   2.152  52.260  1.00  0.00     0.057 A 
HETATM   10  C15 UNL     1      24.058   0.952  52.655  1.00  0.00     0.021 A 
ENDROOT
BRANCH   8  11
HETATM   11  N2  UNL     1      25.364   3.428  51.238  1.00  0.00    -0.385 N 
HETATM   12  H5  UNL     1      26.213   3.601  51.757  1.00  0.00     0.160 HD
BRANCH  11  13
HETATM   13  C7  UNL     1      25.713   3.351  49.861  1.00  0.00     0.158 C 
BRANCH  13  14
HETATM   14  C8  UNL     1      26.272   4.545  49.240  1.00  0.00    -0.041 A 
HETATM   15  C9  UNL     1      27.624   4.599  48.886  1.00  0.00     0.009 A 
HETATM   16  C10 UNL     1      28.194   5.713  48.295  1.00  0.00     0.001 A 
HETATM   17  C11 UNL     1      27.367   6.808  48.054  1.00  0.00     0.000 A 
HETATM   18  C12 UNL     1      26.040   6.740  48.408  1.00  0.00     0.001 A 
HETATM   19  C13 UNL     1      25.472   5.652  48.988  1.00  0.00     0.009 A 
ENDBRANCH  13  14
ENDBRANCH  11  13
ENDBRANCH   8  11
BRANCH  10  20
HETATM   20  C16 UNL     1      25.343   0.582  52.504  1.00  0.00    -0.022 A 
HETATM   21  C17 UNL     1      26.724   0.152  52.172  1.00  0.00     0.013 A 
HETATM   22  C18 UNL     1      26.496   0.455  53.433  1.00  0.00     0.013 A 
ENDBRANCH  10  20
TORSDOF 4
ENDMDL
MODEL 9
REMARK VINA RESULT:      -7.3      2.606      5.585
REMARK  4 active torsions:
REMARK  status: ('A' for Active; 'I' for Inactive)
REMARK    1  A    between atoms: C6_8  and  N2_9 
REMARK    2  A    between atoms: N2_9  and  C7_10 
REMARK    3  A    between atoms: C7_10  and  C8_11 
REMARK    4  A    between atoms: C15_18  and  C16_19 
ROOT
HETATM    1  C1  UNL     1      26.147   3.988  49.969  1.00  0.00     0.073 C 
HETATM    2  C2  UNL     1      25.996   2.933  50.733  1.00  0.00     0.068 A 
HETATM    3  O1  UNL     1      26.872   2.008  50.911  1.00  0.00    -0.295 OA
HETATM    4  C3  UNL     1      26.462   1.080  51.717  1.00  0.00     0.182 A 
HETATM    5  N1  UNL     1      27.101  -0.029  52.130  1.00  0.00    -0.236 NA
HETATM    6  C4  UNL     1      26.483  -0.875  52.983  1.00  0.00     0.122 A 
HETATM    7  C5  UNL     1      25.224  -0.537  53.373  1.00  0.00     0.049 A 
HETATM    8  C6  UNL     1      24.542   0.611  52.955  1.00  0.00     0.045 A 
HETATM    9  C14 UNL     1      25.188   1.459  52.087  1.00  0.00     0.057 A 
HETATM   10  C15 UNL     1      24.841   2.646  51.481  1.00  0.00     0.021 A 
ENDROOT
BRANCH   8  11
HETATM   11  N2  UNL     1      23.232   0.812  53.456  1.00  0.00    -0.385 N 
HETATM   12  H5  UNL     1      22.781   1.612  53.874  1.00  0.00     0.160 HD
BRANCH  11  13
HETATM   13  C7  UNL     1      22.281  -0.244  53.417  1.00  0.00     0.158 C 
BRANCH  13  14
HETATM   14  C8  UNL     1      21.079  -0.039  52.618  1.00  0.00    -0.041 A 
HETATM   15  C9  UNL     1      21.167   0.445  51.309  1.00  0.00     0.009 A 
HETATM   16  C10 UNL     1      20.052   0.655  50.517  1.00  0.00     0.001 A 
HETATM   17  C11 UNL     1      18.807   0.363  51.069  1.00  0.00     0.000 A 
HETATM   18  C12 UNL     1      18.736  -0.113  52.357  1.00  0.00     0.001 A 
HETATM   19  C13 UNL     1      19.824  -0.320  53.141  1.00  0.00     0.009 A 
ENDBRANCH  13  14
ENDBRANCH  11  13
ENDBRANCH   8  11
BRANCH  10  20
HETATM   20  C16 UNL     1      23.670   3.295  51.626  1.00  0.00    -0.022 A 
HETATM   21  C17 UNL     1      22.319   3.905  51.666  1.00  0.00     0.013 A 
HETATM   22  C18 UNL     1      23.216   4.424  52.478  1.00  0.00     0.013 A 
ENDBRANCH  10  20
TORSDOF 4
ENDMDL
