MODEL 1
REMARK VINA RESULT:     -10.4      0.000      0.000
REMARK  4 active torsions:
REMARK  status: ('A' for Active; 'I' for Inactive)
REMARK    1  A    between atoms: N3_5  and  C3_6 
REMARK    2  A    between atoms: C4_7  and  C5_9 
REMARK    3  A    between atoms: C5_9  and  N4_10 
REMARK    4  A    between atoms: N4_10  and  C6_11 
ROOT
HETATM    1  C3  UNL     1      23.042   3.506  49.872  1.00  0.00     0.175 C 
HETATM    2  C4  UNL     1      22.441   2.411  50.363  1.00  0.00     0.129 C 
HETATM    3  F1  UNL     1      22.627   1.425  49.486  1.00  0.00    -0.207 F 
ENDROOT
BRANCH   1   4
HETATM    4  N3  UNL     1      22.969   4.664  50.643  1.00  0.00    -0.073 NA
HETATM    5  C2  UNL     1      23.830   5.341  51.192  1.00  0.00     0.719 C 
HETATM    6  N2  UNL     1      24.963   4.582  50.802  1.00  0.00    -0.126 N 
HETATM    7  N6  UNL     1      22.783   6.207  51.665  1.00  0.00    -0.189 N 
HETATM    8  N1  UNL     1      25.837   4.996  49.726  1.00  0.00    -0.249 N 
HETATM    9  H4  UNL     1      25.142   3.732  51.331  1.00  0.00     0.206 HD
HETATM   10  C1  UNL     1      26.803   3.986  49.397  1.00  0.00     0.181 C 
HETATM   11  C21 UNL     1      25.786   6.273  48.975  1.00  0.00     0.262 C 
HETATM   12  C20 UNL     1      25.724   7.505  48.263  1.00  0.00     0.280 C 
HETATM   13  O4  UNL     1      26.637   5.535  48.498  1.00  0.00    -0.269 OA
HETATM   14  O3  UNL     1      24.931   8.564  48.718  1.00  0.00    -0.342 OA
HETATM   15  C18 UNL     1      23.617   8.672  48.957  1.00  0.00     0.071 A 
HETATM   16  C17 UNL     1      22.379   9.190  48.740  1.00  0.00     0.037 A 
HETATM   17  C19 UNL     1      23.355   7.782  49.970  1.00  0.00     0.066 A 
HETATM   18  C16 UNL     1      21.227   8.842  49.415  1.00  0.00     0.005 A 
HETATM   19  C15 UNL     1      21.159   7.906  50.420  1.00  0.00     0.030 A 
HETATM   20  C14 UNL     1      22.302   7.272  50.783  1.00  0.00     0.052 A 
HETATM   21  H13 UNL     1      22.230   6.306  52.501  1.00  0.00     0.184 HD
ENDBRANCH   1   4
BRANCH   2  22
HETATM   22  C5  UNL     1      21.735   2.515  51.670  1.00  0.00     0.191 C 
BRANCH  22  23
HETATM   23  N4  UNL     1      22.573   2.308  52.807  1.00  0.00    -0.383 N 
HETATM   24  H8  UNL     1      22.189   2.723  53.708  1.00  0.00     0.160 HD
BRANCH  23  25
HETATM   25  C6  UNL     1      23.803   1.662  52.985  1.00  0.00     0.030 A 
HETATM   26  C7  UNL     1      23.940   0.308  52.732  1.00  0.00     0.032 A 
HETATM   27  C8  UNL     1      25.149  -0.327  52.909  1.00  0.00     0.041 A 
HETATM   28  C9  UNL     1      26.254   0.368  53.342  1.00  0.00     0.102 A 
HETATM   29  C10 UNL     1      26.138   1.712  53.599  1.00  0.00     0.071 A 
HETATM   30  O2  UNL     1      27.495  -0.252  53.530  1.00  0.00    -0.274 OA
HETATM   31  C11 UNL     1      24.923   2.316  53.412  1.00  0.00     0.061 A 
HETATM   32  N5  UNL     1      27.260   2.451  54.047  1.00  0.00    -0.317 N 
HETATM   33  C12 UNL     1      28.522   1.807  54.237  1.00  0.00     0.325 C 
HETATM   34  H12 UNL     1      27.166   3.469  54.238  1.00  0.00     0.169 HD
HETATM   35  O1  UNL     1      29.513   2.574  54.359  1.00  0.00    -0.263 OA
HETATM   36  C13 UNL     1      28.526   0.338  54.272  1.00  0.00     0.443 C 
HETATM   37  F2  UNL     1      29.756  -0.180  53.885  1.00  0.00    -0.165 F 
HETATM   38  F3  UNL     1      28.318  -0.056  55.596  1.00  0.00    -0.165 F 
ENDBRANCH  23  25
ENDBRANCH  22  23
ENDBRANCH   2  22
TORSDOF 4
ENDMDL
MODEL 2
REMARK VINA RESULT:      -9.9      3.210      7.776
REMARK  4 active torsions:
REMARK  status: ('A' for Active; 'I' for Inactive)
REMARK    1  A    between atoms: N3_5  and  C3_6 
REMARK    2  A    between atoms: C4_7  and  C5_9 
REMARK    3  A    between atoms: C5_9  and  N4_10 
REMARK    4  A    between atoms: N4_10  and  C6_11 
ROOT
HETATM    1  C3  UNL     1      24.119   3.617  52.913  1.00  0.00     0.175 C 
HETATM    2  C4  UNL     1      23.660   4.676  52.229  1.00  0.00     0.129 C 
HETATM    3  F1  UNL     1      24.079   5.773  52.860  1.00  0.00    -0.207 F 
ENDROOT
BRANCH   1   4
HETATM    4  N3  UNL     1      23.792   2.357  52.418  1.00  0.00    -0.073 NA
HETATM    5  C2  UNL     1      24.483   1.418  52.041  1.00  0.00     0.719 C 
HETATM    6  N2  UNL     1      25.756   2.001  52.265  1.00  0.00    -0.126 N 
HETATM    7  N6  UNL     1      23.269   0.697  51.762  1.00  0.00    -0.189 N 
HETATM    8  N1  UNL     1      26.568   1.666  53.414  1.00  0.00    -0.249 N 
HETATM    9  H4  UNL     1      26.081   2.662  51.562  1.00  0.00     0.206 HD
HETATM   10  C1  UNL     1      27.725   2.509  53.520  1.00  0.00     0.181 C 
HETATM   11  C21 UNL     1      26.293   0.622  54.429  1.00  0.00     0.262 C 
HETATM   12  C20 UNL     1      26.013  -0.386  55.396  1.00  0.00     0.280 C 
HETATM   13  O4  UNL     1      27.288   1.260  54.739  1.00  0.00    -0.269 OA
HETATM   14  O3  UNL     1      25.011  -1.338  55.179  1.00  0.00    -0.342 OA
HETATM   15  C18 UNL     1      23.694  -1.231  54.957  1.00  0.00     0.071 A 
HETATM   16  C17 UNL     1      22.387  -1.430  55.270  1.00  0.00     0.037 A 
HETATM   17  C19 UNL     1      23.578  -0.550  53.769  1.00  0.00     0.066 A 
HETATM   18  C16 UNL     1      21.303  -1.015  54.524  1.00  0.00     0.005 A 
HETATM   19  C15 UNL     1      21.386  -0.328  53.335  1.00  0.00     0.030 A 
HETATM   20  C14 UNL     1      22.618  -0.031  52.853  1.00  0.00     0.052 A 
HETATM   21  H13 UNL     1      22.679   0.530  50.962  1.00  0.00     0.184 HD
ENDBRANCH   1   4
BRANCH   2  22
HETATM   22  C5  UNL     1      22.831   4.432  51.016  1.00  0.00     0.191 C 
BRANCH  22  23
HETATM   23  N4  UNL     1      23.588   4.207  49.826  1.00  0.00    -0.383 N 
HETATM   24  H8  UNL     1      23.114   3.556  49.131  1.00  0.00     0.160 HD
BRANCH  23  25
HETATM   25  C6  UNL     1      24.831   4.671  49.379  1.00  0.00     0.030 A 
HETATM   26  C7  UNL     1      25.961   3.874  49.461  1.00  0.00     0.032 A 
HETATM   27  C8  UNL     1      27.183   4.332  49.023  1.00  0.00     0.041 A 
HETATM   28  C9  UNL     1      27.315   5.593  48.493  1.00  0.00     0.102 A 
HETATM   29  C10 UNL     1      26.207   6.400  48.403  1.00  0.00     0.071 A 
HETATM   30  O2  UNL     1      28.546   6.084  48.040  1.00  0.00    -0.274 OA
HETATM   31  C11 UNL     1      25.004   5.916  48.846  1.00  0.00     0.061 A 
HETATM   32  N5  UNL     1      26.316   7.703  47.862  1.00  0.00    -0.317 N 
HETATM   33  C12 UNL     1      27.578   8.194  47.404  1.00  0.00     0.325 C 
HETATM   34  H12 UNL     1      25.472   8.307  47.795  1.00  0.00     0.169 HD
HETATM   35  O1  UNL     1      27.534   9.230  46.691  1.00  0.00    -0.263 OA
HETATM   36  C13 UNL     1      28.776   7.447  47.813  1.00  0.00     0.443 C 
HETATM   37  F2  UNL     1      29.818   7.616  46.910  1.00  0.00    -0.165 F 
HETATM   38  F3  UNL     1      29.207   7.970  49.034  1.00  0.00    -0.165 F 
ENDBRANCH  23  25
ENDBRANCH  22  23
ENDBRANCH   2  22
TORSDOF 4
ENDMDL
MODEL 3
REMARK VINA RESULT:      -9.8      3.385      4.583
REMARK  4 active torsions:
REMARK  status: ('A' for Active; 'I' for Inactive)
REMARK    1  A    between atoms: N3_5  and  C3_6 
REMARK    2  A    between atoms: C4_7  and  C5_9 
REMARK    3  A    between atoms: C5_9  and  N4_10 
REMARK    4  A    between atoms: N4_10  and  C6_11 
ROOT
HETATM    1  C3  UNL     1      25.747   5.590  49.646  1.00  0.00     0.175 C 
HETATM    2  C4  UNL     1      26.287   4.363  49.576  1.00  0.00     0.129 C 
HETATM    3  F1  UNL     1      27.184   4.375  48.589  1.00  0.00    -0.207 F 
ENDROOT
BRANCH   1   4
HETATM    4  N3  UNL     1      24.777   5.797  50.623  1.00  0.00    -0.073 NA
HETATM    5  C2  UNL     1      24.446   6.794  51.253  1.00  0.00     0.719 C 
HETATM    6  N2  UNL     1      25.364   7.710  50.680  1.00  0.00    -0.126 N 
HETATM    7  N6  UNL     1      23.461   5.986  51.924  1.00  0.00    -0.189 N 
HETATM    8  N1  UNL     1      24.972   8.664  49.666  1.00  0.00    -0.249 N 
HETATM    9  H4  UNL     1      26.318   7.673  51.031  1.00  0.00     0.206 HD
HETATM   10  C1  UNL     1      26.101   9.357  49.113  1.00  0.00     0.181 C 
HETATM   11  C21 UNL     1      23.601   8.930  49.171  1.00  0.00     0.262 C 
HETATM   12  C20 UNL     1      22.275   9.173  48.707  1.00  0.00     0.280 C 
HETATM   13  O4  UNL     1      24.414   9.578  48.529  1.00  0.00    -0.269 OA
HETATM   14  O3  UNL     1      21.165   8.659  49.386  1.00  0.00    -0.342 OA
HETATM   15  C18 UNL     1      20.794   7.410  49.696  1.00  0.00     0.071 A 
HETATM   16  C17 UNL     1      19.962   6.337  49.633  1.00  0.00     0.037 A 
HETATM   17  C19 UNL     1      21.773   6.934  50.533  1.00  0.00     0.066 A 
HETATM   18  C16 UNL     1      20.147   5.130  50.278  1.00  0.00     0.005 A 
HETATM   19  C15 UNL     1      21.215   4.831  51.091  1.00  0.00     0.030 A 
HETATM   20  C14 UNL     1      22.162   5.784  51.279  1.00  0.00     0.052 A 
HETATM   21  H13 UNL     1      23.396   5.470  52.787  1.00  0.00     0.184 HD
ENDBRANCH   1   4
BRANCH   2  22
HETATM   22  C5  UNL     1      25.805   3.321  50.524  1.00  0.00     0.191 C 
BRANCH  22  23
HETATM   23  N4  UNL     1      24.545   2.748  50.173  1.00  0.00    -0.383 N 
HETATM   24  H8  UNL     1      24.218   2.992  49.191  1.00  0.00     0.160 HD
BRANCH  23  25
HETATM   25  C6  UNL     1      23.645   1.921  50.858  1.00  0.00     0.030 A 
HETATM   26  C7  UNL     1      22.389   1.653  50.340  1.00  0.00     0.032 A 
HETATM   27  C8  UNL     1      21.504   0.841  51.014  1.00  0.00     0.041 A 
HETATM   28  C9  UNL     1      21.844   0.275  52.220  1.00  0.00     0.102 A 
HETATM   29  C10 UNL     1      23.085   0.529  52.750  1.00  0.00     0.071 A 
HETATM   30  O2  UNL     1      20.964  -0.554  52.926  1.00  0.00    -0.274 OA
HETATM   31  C11 UNL     1      23.944   1.340  52.056  1.00  0.00     0.061 A 
HETATM   32  N5  UNL     1      23.460  -0.040  53.991  1.00  0.00    -0.317 N 
HETATM   33  C12 UNL     1      22.552  -0.884  54.705  1.00  0.00     0.325 C 
HETATM   34  H12 UNL     1      24.402   0.155  54.386  1.00  0.00     0.169 HD
HETATM   35  O1  UNL     1      23.057  -1.563  55.636  1.00  0.00    -0.263 OA
HETATM   36  C13 UNL     1      21.145  -0.865  54.280  1.00  0.00     0.443 C 
HETATM   37  F2  UNL     1      20.501  -2.055  54.592  1.00  0.00    -0.165 F 
HETATM   38  F3  UNL     1      20.500   0.147  54.994  1.00  0.00    -0.165 F 
ENDBRANCH  23  25
ENDBRANCH  22  23
ENDBRANCH   2  22
TORSDOF 4
ENDMDL
MODEL 4
REMARK VINA RESULT:      -9.8      3.661      8.135
REMARK  4 active torsions:
REMARK  status: ('A' for Active; 'I' for Inactive)
REMARK    1  A    between atoms: N3_5  and  C3_6 
REMARK    2  A    between atoms: C4_7  and  C5_9 
REMARK    3  A    between atoms: C5_9  and  N4_10 
REMARK    4  A    between atoms: N4_10  and  C6_11 
ROOT
HETATM    1  C3  UNL     1      23.690   2.030  50.726  1.00  0.00     0.175 C 
HETATM    2  C4  UNL     1      23.665   2.833  49.651  1.00  0.00     0.129 C 
HETATM    3  F1  UNL     1      22.991   2.199  48.692  1.00  0.00    -0.207 F 
ENDROOT
BRANCH   1   4
HETATM    4  N3  UNL     1      24.351   2.508  51.854  1.00  0.00    -0.073 NA
HETATM    5  C2  UNL     1      24.041   2.535  53.039  1.00  0.00     0.719 C 
HETATM    6  N2  UNL     1      22.771   1.915  52.929  1.00  0.00    -0.126 N 
HETATM    7  N6  UNL     1      25.302   3.174  53.308  1.00  0.00    -0.189 N 
HETATM    8  N1  UNL     1      22.555   0.527  53.277  1.00  0.00    -0.249 N 
HETATM    9  H4  UNL     1      22.006   2.503  52.604  1.00  0.00     0.206 HD
HETATM   10  C1  UNL     1      21.240   0.079  52.915  1.00  0.00     0.181 C 
HETATM   11  C21 UNL     1      23.530  -0.400  53.897  1.00  0.00     0.262 C 
HETATM   12  C20 UNL     1      24.480  -1.278  54.495  1.00  0.00     0.280 C 
HETATM   13  O4  UNL     1      22.501  -0.996  53.617  1.00  0.00    -0.269 OA
HETATM   14  O3  UNL     1      25.675  -0.791  55.036  1.00  0.00    -0.342 OA
HETATM   15  C18 UNL     1      26.693  -0.102  54.506  1.00  0.00     0.071 A 
HETATM   16  C17 UNL     1      27.992   0.062  54.139  1.00  0.00     0.037 A 
HETATM   17  C19 UNL     1      26.155   1.098  54.108  1.00  0.00     0.066 A 
HETATM   18  C16 UNL     1      28.526   1.179  53.529  1.00  0.00     0.005 A 
HETATM   19  C15 UNL     1      27.814   2.308  53.200  1.00  0.00     0.030 A 
HETATM   20  C14 UNL     1      26.489   2.337  53.488  1.00  0.00     0.052 A 
HETATM   21  H13 UNL     1      25.641   4.117  53.418  1.00  0.00     0.184 HD
ENDBRANCH   1   4
BRANCH   2  22
HETATM   22  C5  UNL     1      24.352   4.152  49.735  1.00  0.00     0.191 C 
BRANCH  22  23
HETATM   23  N4  UNL     1      25.726   4.123  49.346  1.00  0.00    -0.383 N 
HETATM   24  H8  UNL     1      26.167   3.156  49.392  1.00  0.00     0.160 HD
BRANCH  23  25
HETATM   25  C6  UNL     1      26.619   5.110  48.911  1.00  0.00     0.030 A 
HETATM   26  C7  UNL     1      26.203   6.419  48.734  1.00  0.00     0.032 A 
HETATM   27  C8  UNL     1      27.080   7.388  48.304  1.00  0.00     0.041 A 
HETATM   28  C9  UNL     1      28.394   7.083  48.038  1.00  0.00     0.102 A 
HETATM   29  C10 UNL     1      28.826   5.790  48.207  1.00  0.00     0.071 A 
HETATM   30  O2  UNL     1      29.308   8.049  47.600  1.00  0.00    -0.274 OA
HETATM   31  C11 UNL     1      27.930   4.848  48.637  1.00  0.00     0.061 A 
HETATM   32  N5  UNL     1      30.174   5.449  47.939  1.00  0.00    -0.317 N 
HETATM   33  C12 UNL     1      31.098   6.443  47.490  1.00  0.00     0.325 C 
HETATM   34  H12 UNL     1      30.495   4.468  48.071  1.00  0.00     0.169 HD
HETATM   35  O1  UNL     1      32.314   6.124  47.550  1.00  0.00    -0.263 OA
HETATM   36  C13 UNL     1      30.535   7.714  47.012  1.00  0.00     0.443 C 
HETATM   37  F2  UNL     1      31.439   8.759  47.153  1.00  0.00    -0.165 F 
HETATM   38  F3  UNL     1      30.279   7.578  45.646  1.00  0.00    -0.165 F 
ENDBRANCH  23  25
ENDBRANCH  22  23
ENDBRANCH   2  22
TORSDOF 4
ENDMDL
MODEL 5
REMARK VINA RESULT:      -9.7      3.813      8.254
REMARK  4 active torsions:
REMARK  status: ('A' for Active; 'I' for Inactive)
REMARK    1  A    between atoms: N3_5  and  C3_6 
REMARK    2  A    between atoms: C4_7  and  C5_9 
REMARK    3  A    between atoms: C5_9  and  N4_10 
REMARK    4  A    between atoms: N4_10  and  C6_11 
ROOT
HETATM    1  C3  UNL     1      23.167   3.051  50.299  1.00  0.00     0.175 C 
HETATM    2  C4  UNL     1      23.808   3.376  49.164  1.00  0.00     0.129 C 
HETATM    3  F1  UNL     1      22.936   3.253  48.163  1.00  0.00    -0.207 F 
ENDROOT
BRANCH   1   4
HETATM    4  N3  UNL     1      23.904   3.115  51.479  1.00  0.00    -0.073 NA
HETATM    5  C2  UNL     1      23.573   3.066  52.657  1.00  0.00     0.719 C 
HETATM    6  N2  UNL     1      22.176   2.918  52.468  1.00  0.00    -0.126 N 
HETATM    7  N6  UNL     1      24.962   3.212  53.006  1.00  0.00    -0.189 N 
HETATM    8  N1  UNL     1      21.509   1.641  52.604  1.00  0.00    -0.249 N 
HETATM    9  H4  UNL     1      21.657   3.764  52.246  1.00  0.00     0.206 HD
HETATM   10  C1  UNL     1      20.135   1.705  52.193  1.00  0.00     0.181 C 
HETATM   11  C21 UNL     1      22.106   0.366  53.065  1.00  0.00     0.262 C 
HETATM   12  C20 UNL     1      22.696  -0.852  53.511  1.00  0.00     0.280 C 
HETATM   13  O4  UNL     1      20.951   0.187  52.709  1.00  0.00    -0.269 OA
HETATM   14  O3  UNL     1      23.962  -0.867  54.106  1.00  0.00    -0.342 OA
HETATM   15  C18 UNL     1      25.169  -0.477  53.675  1.00  0.00     0.071 A 
HETATM   16  C17 UNL     1      26.463  -0.694  53.322  1.00  0.00     0.037 A 
HETATM   17  C19 UNL     1      25.065   0.877  53.470  1.00  0.00     0.066 A 
HETATM   18  C16 UNL     1      27.354   0.265  52.883  1.00  0.00     0.005 A 
HETATM   19  C15 UNL     1      27.060   1.600  52.737  1.00  0.00     0.030 A 
HETATM   20  C14 UNL     1      25.806   2.016  53.042  1.00  0.00     0.052 A 
HETATM   21  H13 UNL     1      25.583   3.965  53.254  1.00  0.00     0.184 HD
ENDBRANCH   1   4
BRANCH   2  22
HETATM   22  C5  UNL     1      25.244   3.759  49.246  1.00  0.00     0.191 C 
BRANCH  22  23
HETATM   23  N4  UNL     1      25.466   5.143  49.524  1.00  0.00    -0.383 N 
HETATM   24  H8  UNL     1      24.713   5.587  50.130  1.00  0.00     0.160 HD
BRANCH  23  25
HETATM   25  C6  UNL     1      26.479   6.041  49.165  1.00  0.00     0.030 A 
HETATM   26  C7  UNL     1      27.607   5.609  48.488  1.00  0.00     0.032 A 
HETATM   27  C8  UNL     1      28.603   6.492  48.138  1.00  0.00     0.041 A 
HETATM   28  C9  UNL     1      28.505   7.827  48.451  1.00  0.00     0.102 A 
HETATM   29  C10 UNL     1      27.394   8.275  49.123  1.00  0.00     0.071 A 
HETATM   30  O2  UNL     1      29.503   8.747  48.106  1.00  0.00    -0.274 OA
HETATM   31  C11 UNL     1      26.419   7.373  49.457  1.00  0.00     0.061 A 
HETATM   32  N5  UNL     1      27.269   9.644  49.459  1.00  0.00    -0.317 N 
HETATM   33  C12 UNL     1      28.295  10.575  49.104  1.00  0.00     0.325 C 
HETATM   34  H12 UNL     1      26.424   9.977  49.966  1.00  0.00     0.169 HD
HETATM   35  O1  UNL     1      27.981  11.791  49.184  1.00  0.00    -0.263 OA
HETATM   36  C13 UNL     1      29.591  10.017  48.691  1.00  0.00     0.443 C 
HETATM   37  F2  UNL     1      30.278  10.886  47.854  1.00  0.00    -0.165 F 
HETATM   38  F3  UNL     1      30.369   9.856  49.839  1.00  0.00    -0.165 F 
ENDBRANCH  23  25
ENDBRANCH  22  23
ENDBRANCH   2  22
TORSDOF 4
ENDMDL
MODEL 6
REMARK VINA RESULT:      -9.6      7.209     10.098
REMARK  4 active torsions:
REMARK  status: ('A' for Active; 'I' for Inactive)
REMARK    1  A    between atoms: N3_5  and  C3_6 
REMARK    2  A    between atoms: C4_7  and  C5_9 
REMARK    3  A    between atoms: C5_9  and  N4_10 
REMARK    4  A    between atoms: N4_10  and  C6_11 
ROOT
HETATM    1  C3  UNL     1      31.057  11.247  47.100  1.00  0.00     0.175 C 
HETATM    2  C4  UNL     1      32.260  11.558  46.592  1.00  0.00     0.129 C 
HETATM    3  F1  UNL     1      32.070  12.472  45.640  1.00  0.00    -0.207 F 
ENDROOT
BRANCH   1   4
HETATM    4  N3  UNL     1      31.029  10.301  48.121  1.00  0.00    -0.073 NA
HETATM    5  C2  UNL     1      30.537  10.318  49.242  1.00  0.00     0.719 C 
HETATM    6  N2  UNL     1      29.980  11.621  49.199  1.00  0.00    -0.126 N 
HETATM    7  N6  UNL     1      31.042   8.984  49.435  1.00  0.00    -0.189 N 
HETATM    8  N1  UNL     1      28.570  11.852  48.971  1.00  0.00    -0.249 N 
HETATM    9  H4  UNL     1      30.624  12.393  49.354  1.00  0.00     0.206 HD
HETATM   10  C1  UNL     1      28.274  13.245  48.792  1.00  0.00     0.181 C 
HETATM   11  C21 UNL     1      27.501  10.830  48.879  1.00  0.00     0.262 C 
HETATM   12  C20 UNL     1      26.485   9.835  48.794  1.00  0.00     0.280 C 
HETATM   13  O4  UNL     1      27.047  11.939  48.638  1.00  0.00    -0.269 OA
HETATM   14  O3  UNL     1      26.734   8.512  49.176  1.00  0.00    -0.342 OA
HETATM   15  C18 UNL     1      27.619   7.600  48.752  1.00  0.00     0.071 A 
HETATM   16  C17 UNL     1      27.968   6.418  48.179  1.00  0.00     0.037 A 
HETATM   17  C19 UNL     1      28.854   8.125  49.045  1.00  0.00     0.066 A 
HETATM   18  C16 UNL     1      29.257   5.961  47.987  1.00  0.00     0.005 A 
HETATM   19  C15 UNL     1      30.393   6.643  48.352  1.00  0.00     0.030 A 
HETATM   20  C14 UNL     1      30.250   7.855  48.944  1.00  0.00     0.052 A 
HETATM   21  H13 UNL     1      31.859   8.558  49.844  1.00  0.00     0.184 HD
ENDBRANCH   1   4
BRANCH   2  22
HETATM   22  C5  UNL     1      33.460  10.867  47.139  1.00  0.00     0.191 C 
BRANCH  22  23
HETATM   23  N4  UNL     1      33.772   9.633  46.492  1.00  0.00    -0.383 N 
HETATM   24  H8  UNL     1      33.800   9.698  45.430  1.00  0.00     0.160 HD
BRANCH  23  25
HETATM   25  C6  UNL     1      34.054   8.346  46.967  1.00  0.00     0.030 A 
HETATM   26  C7  UNL     1      34.998   8.146  47.961  1.00  0.00     0.032 A 
HETATM   27  C8  UNL     1      35.276   6.881  48.427  1.00  0.00     0.041 A 
HETATM   28  C9  UNL     1      34.624   5.782  47.919  1.00  0.00     0.102 A 
HETATM   29  C10 UNL     1      33.685   5.960  46.932  1.00  0.00     0.071 A 
HETATM   30  O2  UNL     1      34.888   4.484  48.374  1.00  0.00    -0.274 OA
HETATM   31  C11 UNL     1      33.429   7.231  46.490  1.00  0.00     0.061 A 
HETATM   32  N5  UNL     1      33.000   4.846  46.391  1.00  0.00    -0.317 N 
HETATM   33  C12 UNL     1      33.279   3.525  46.863  1.00  0.00     0.325 C 
HETATM   34  H12 UNL     1      32.289   4.988  45.646  1.00  0.00     0.169 HD
HETATM   35  O1  UNL     1      32.441   2.642  46.540  1.00  0.00    -0.263 OA
HETATM   36  C13 UNL     1      34.498   3.342  47.663  1.00  0.00     0.443 C 
HETATM   37  F2  UNL     1      34.391   2.254  48.519  1.00  0.00    -0.165 F 
HETATM   38  F3  UNL     1      35.546   3.066  46.782  1.00  0.00    -0.165 F 
ENDBRANCH  23  25
ENDBRANCH  22  23
ENDBRANCH   2  22
TORSDOF 4
ENDMDL
MODEL 7
REMARK VINA RESULT:      -9.5      3.079      4.829
REMARK  4 active torsions:
REMARK  status: ('A' for Active; 'I' for Inactive)
REMARK    1  A    between atoms: N3_5  and  C3_6 
REMARK    2  A    between atoms: C4_7  and  C5_9 
REMARK    3  A    between atoms: C5_9  and  N4_10 
REMARK    4  A    between atoms: N4_10  and  C6_11 
ROOT
HETATM    1  C3  UNL     1      26.425   5.874  48.983  1.00  0.00     0.175 C 
HETATM    2  C4  UNL     1      27.291   4.848  48.980  1.00  0.00     0.129 C 
HETATM    3  F1  UNL     1      28.470   5.320  48.576  1.00  0.00    -0.207 F 
ENDROOT
BRANCH   1   4
HETATM    4  N3  UNL     1      25.120   5.595  49.380  1.00  0.00    -0.073 NA
HETATM    5  C2  UNL     1      24.112   6.290  49.435  1.00  0.00     0.719 C 
HETATM    6  N2  UNL     1      24.676   7.501  48.959  1.00  0.00    -0.126 N 
HETATM    7  N6  UNL     1      23.402   5.140  49.930  1.00  0.00    -0.189 N 
HETATM    8  N1  UNL     1      24.481   7.963  47.602  1.00  0.00    -0.249 N 
HETATM    9  H4  UNL     1      25.216   8.043  49.630  1.00  0.00     0.206 HD
HETATM   10  C1  UNL     1      25.289   9.112  47.303  1.00  0.00     0.181 C 
HETATM   11  C21 UNL     1      23.605   7.361  46.570  1.00  0.00     0.262 C 
HETATM   12  C20 UNL     1      22.756   6.769  45.590  1.00  0.00     0.280 C 
HETATM   13  O4  UNL     1      24.245   8.286  46.093  1.00  0.00    -0.269 OA
HETATM   14  O3  UNL     1      21.820   5.791  45.940  1.00  0.00    -0.342 OA
HETATM   15  C18 UNL     1      21.941   4.587  46.515  1.00  0.00     0.071 A 
HETATM   16  C17 UNL     1      21.835   3.232  46.536  1.00  0.00     0.037 A 
HETATM   17  C19 UNL     1      22.447   4.830  47.769  1.00  0.00     0.066 A 
HETATM   18  C16 UNL     1      22.178   2.410  47.591  1.00  0.00     0.005 A 
HETATM   19  C15 UNL     1      22.683   2.846  48.793  1.00  0.00     0.030 A 
HETATM   20  C14 UNL     1      22.863   4.180  48.966  1.00  0.00     0.052 A 
HETATM   21  H13 UNL     1      23.143   4.766  50.829  1.00  0.00     0.184 HD
ENDBRANCH   1   4
BRANCH   2  22
HETATM   22  C5  UNL     1      26.796   3.501  49.379  1.00  0.00     0.191 C 
BRANCH  22  23
HETATM   23  N4  UNL     1      26.685   3.313  50.791  1.00  0.00    -0.383 N 
HETATM   24  H8  UNL     1      27.173   4.064  51.366  1.00  0.00     0.160 HD
BRANCH  23  25
HETATM   25  C6  UNL     1      26.061   2.340  51.581  1.00  0.00     0.030 A 
HETATM   26  C7  UNL     1      26.792   1.315  52.159  1.00  0.00     0.032 A 
HETATM   27  C8  UNL     1      26.177   0.357  52.934  1.00  0.00     0.041 A 
HETATM   28  C9  UNL     1      24.820   0.393  53.155  1.00  0.00     0.102 A 
HETATM   29  C10 UNL     1      24.078   1.401  52.590  1.00  0.00     0.071 A 
HETATM   30  O2  UNL     1      24.169  -0.567  53.939  1.00  0.00    -0.274 OA
HETATM   31  C11 UNL     1      24.718   2.340  51.825  1.00  0.00     0.061 A 
HETATM   32  N5  UNL     1      22.680   1.460  52.801  1.00  0.00    -0.317 N 
HETATM   33  C12 UNL     1      22.025   0.472  53.602  1.00  0.00     0.325 C 
HETATM   34  H12 UNL     1      22.124   2.227  52.372  1.00  0.00     0.169 HD
HETATM   35  O1  UNL     1      20.854   0.754  53.966  1.00  0.00    -0.263 OA
HETATM   36  C13 UNL     1      22.781  -0.750  53.908  1.00  0.00     0.443 C 
HETATM   37  F2  UNL     1      22.346  -1.339  55.088  1.00  0.00    -0.165 F 
HETATM   38  F3  UNL     1      22.539  -1.667  52.883  1.00  0.00    -0.165 F 
ENDBRANCH  23  25
ENDBRANCH  22  23
ENDBRANCH   2  22
TORSDOF 4
ENDMDL
MODEL 8
REMARK VINA RESULT:      -9.2      3.851      6.070
REMARK  4 active torsions:
REMARK  status: ('A' for Active; 'I' for Inactive)
REMARK    1  A    between atoms: N3_5  and  C3_6 
REMARK    2  A    between atoms: C4_7  and  C5_9 
REMARK    3  A    between atoms: C5_9  and  N4_10 
REMARK    4  A    between atoms: N4_10  and  C6_11 
ROOT
HETATM    1  C3  UNL     1      26.220   7.268  49.751  1.00  0.00     0.175 C 
HETATM    2  C4  UNL     1      25.450   6.229  50.111  1.00  0.00     0.129 C 
HETATM    3  F1  UNL     1      24.574   6.673  51.013  1.00  0.00    -0.207 F 
ENDROOT
BRANCH   1   4
HETATM    4  N3  UNL     1      27.211   7.019  48.805  1.00  0.00    -0.073 NA
HETATM    5  C2  UNL     1      27.549   7.620  47.792  1.00  0.00     0.719 C 
HETATM    6  N2  UNL     1      26.610   8.680  47.863  1.00  0.00    -0.126 N 
HETATM    7  N6  UNL     1      28.556   6.612  47.586  1.00  0.00    -0.189 N 
HETATM    8  N1  UNL     1      26.970  10.001  48.330  1.00  0.00    -0.249 N 
HETATM    9  H4  UNL     1      25.664   8.469  47.552  1.00  0.00     0.206 HD
HETATM   10  C1  UNL     1      25.822  10.850  48.482  1.00  0.00     0.181 C 
HETATM   11  C21 UNL     1      28.327  10.489  48.670  1.00  0.00     0.262 C 
HETATM   12  C20 UNL     1      29.639  10.943  48.992  1.00  0.00     0.280 C 
HETATM   13  O4  UNL     1      27.494  11.345  48.927  1.00  0.00    -0.269 OA
HETATM   14  O3  UNL     1      30.769  10.194  48.645  1.00  0.00    -0.342 OA
HETATM   15  C18 UNL     1      31.158   8.950  48.952  1.00  0.00     0.071 A 
HETATM   16  C17 UNL     1      31.997   8.041  49.516  1.00  0.00     0.037 A 
HETATM   17  C19 UNL     1      30.202   8.124  48.412  1.00  0.00     0.066 A 
HETATM   18  C16 UNL     1      31.837   6.670  49.497  1.00  0.00     0.005 A 
HETATM   19  C15 UNL     1      30.791   6.011  48.895  1.00  0.00     0.030 A 
HETATM   20  C14 UNL     1      29.840   6.753  48.273  1.00  0.00     0.052 A 
HETATM   21  H13 UNL     1      28.645   5.758  47.059  1.00  0.00     0.184 HD
ENDBRANCH   1   4
BRANCH   2  22
HETATM   22  C5  UNL     1      25.717   4.901  49.494  1.00  0.00     0.191 C 
BRANCH  22  23
HETATM   23  N4  UNL     1      26.368   3.972  50.362  1.00  0.00    -0.383 N 
HETATM   24  H8  UNL     1      27.425   4.082  50.397  1.00  0.00     0.160 HD
BRANCH  23  25
HETATM   25  C6  UNL     1      25.899   2.941  51.187  1.00  0.00     0.030 A 
HETATM   26  C7  UNL     1      26.767   1.999  51.711  1.00  0.00     0.032 A 
HETATM   27  C8  UNL     1      26.306   0.985  52.520  1.00  0.00     0.041 A 
HETATM   28  C9  UNL     1      24.970   0.880  52.829  1.00  0.00     0.102 A 
HETATM   29  C10 UNL     1      24.093   1.805  52.317  1.00  0.00     0.071 A 
HETATM   30  O2  UNL     1      24.474  -0.140  53.649  1.00  0.00    -0.274 OA
HETATM   31  C11 UNL     1      24.582   2.804  51.517  1.00  0.00     0.061 A 
HETATM   32  N5  UNL     1      22.713   1.720  52.618  1.00  0.00    -0.317 N 
HETATM   33  C12 UNL     1      22.217   0.672  53.455  1.00  0.00     0.325 C 
HETATM   34  H12 UNL     1      22.054   2.425  52.229  1.00  0.00     0.169 HD
HETATM   35  O1  UNL     1      21.048   0.833  53.896  1.00  0.00    -0.263 OA
HETATM   36  C13 UNL     1      23.112  -0.465  53.707  1.00  0.00     0.443 C 
HETATM   37  F2  UNL     1      22.817  -1.093  54.909  1.00  0.00    -0.165 F 
HETATM   38  F3  UNL     1      22.901  -1.404  52.695  1.00  0.00    -0.165 F 
ENDBRANCH  23  25
ENDBRANCH  22  23
ENDBRANCH   2  22
TORSDOF 4
ENDMDL
MODEL 9
REMARK VINA RESULT:      -8.8      4.016      6.240
REMARK  4 active torsions:
REMARK  status: ('A' for Active; 'I' for Inactive)
REMARK    1  A    between atoms: N3_5  and  C3_6 
REMARK    2  A    between atoms: C4_7  and  C5_9 
REMARK    3  A    between atoms: C5_9  and  N4_10 
REMARK    4  A    between atoms: N4_10  and  C6_11 
ROOT
HETATM    1  C3  UNL     1      20.685   3.562  48.547  1.00  0.00     0.175 C 
HETATM    2  C4  UNL     1      21.714   2.743  48.281  1.00  0.00     0.129 C 
HETATM    3  F1  UNL     1      21.958   2.819  46.973  1.00  0.00    -0.207 F 
ENDROOT
BRANCH   1   4
HETATM    4  N3  UNL     1      20.264   3.635  49.873  1.00  0.00    -0.073 NA
HETATM    5  C2  UNL     1      19.187   3.925  50.378  1.00  0.00     0.719 C 
HETATM    6  N2  UNL     1      18.464   4.171  49.184  1.00  0.00    -0.126 N 
HETATM    7  N6  UNL     1      19.786   3.711  51.669  1.00  0.00    -0.189 N 
HETATM    8  N1  UNL     1      17.535   3.210  48.630  1.00  0.00    -0.249 N 
HETATM    9  H4  UNL     1      18.619   5.073  48.738  1.00  0.00     0.206 HD
HETATM   10  C1  UNL     1      17.062   3.602  47.333  1.00  0.00     0.181 C 
HETATM   11  C21 UNL     1      17.101   1.932  49.243  1.00  0.00     0.262 C 
HETATM   12  C20 UNL     1      16.693   0.708  49.847  1.00  0.00     0.280 C 
HETATM   13  O4  UNL     1      16.631   2.044  48.121  1.00  0.00    -0.269 OA
HETATM   14  O3  UNL     1      16.984   0.430  51.187  1.00  0.00    -0.342 OA
HETATM   15  C18 UNL     1      18.136   0.343  51.863  1.00  0.00     0.071 A 
HETATM   16  C17 UNL     1      19.073  -0.320  52.591  1.00  0.00     0.037 A 
HETATM   17  C19 UNL     1      18.695   1.596  51.797  1.00  0.00     0.066 A 
HETATM   18  C16 UNL     1      20.245   0.217  53.085  1.00  0.00     0.005 A 
HETATM   19  C15 UNL     1      20.644   1.521  52.911  1.00  0.00     0.030 A 
HETATM   20  C14 UNL     1      19.835   2.349  52.203  1.00  0.00     0.052 A 
HETATM   21  H13 UNL     1      20.224   4.275  52.380  1.00  0.00     0.184 HD
ENDBRANCH   1   4
BRANCH   2  22
HETATM   22  C5  UNL     1      22.313   1.969  49.403  1.00  0.00     0.191 C 
BRANCH  22  23
HETATM   23  N4  UNL     1      23.254   2.705  50.186  1.00  0.00    -0.383 N 
HETATM   24  H8  UNL     1      23.092   3.756  50.179  1.00  0.00     0.160 HD
BRANCH  23  25
HETATM   25  C6  UNL     1      24.352   2.327  50.969  1.00  0.00     0.030 A 
HETATM   26  C7  UNL     1      25.619   2.822  50.707  1.00  0.00     0.032 A 
HETATM   27  C8  UNL     1      26.697   2.449  51.476  1.00  0.00     0.041 A 
HETATM   28  C9  UNL     1      26.547   1.573  52.525  1.00  0.00     0.102 A 
HETATM   29  C10 UNL     1      25.299   1.070  52.801  1.00  0.00     0.071 A 
HETATM   30  O2  UNL     1      27.627   1.177  53.324  1.00  0.00    -0.274 OA
HETATM   31  C11 UNL     1      24.244   1.462  52.019  1.00  0.00     0.061 A 
HETATM   32  N5  UNL     1      25.116   0.167  53.875  1.00  0.00    -0.317 N 
HETATM   33  C12 UNL     1      26.227  -0.233  54.683  1.00  0.00     0.325 C 
HETATM   34  H12 UNL     1      24.168  -0.209  54.080  1.00  0.00     0.169 HD
HETATM   35  O1  UNL     1      25.936  -0.801  55.768  1.00  0.00    -0.263 OA
HETATM   36  C13 UNL     1      27.571   0.058  54.164  1.00  0.00     0.443 C 
HETATM   37  F2  UNL     1      28.500   0.178  55.189  1.00  0.00    -0.165 F 
HETATM   38  F3  UNL     1      27.968  -1.028  53.381  1.00  0.00    -0.165 F 
ENDBRANCH  23  25
ENDBRANCH  22  23
ENDBRANCH   2  22
TORSDOF 4
ENDMDL
