MODEL 1
REMARK VINA RESULT:      -8.0      0.000      0.000
REMARK  6 active torsions:
REMARK  status: ('A' for Active; 'I' for Inactive)
REMARK    1  A    between atoms: C1_2  and  C2_3 
REMARK       I    between atoms: C1_2  and  N1_11 
REMARK    2  A    between atoms: C2_3  and  S1_4 
REMARK    3  A    between atoms: S1_4  and  C3_5 
REMARK    4  A    between atoms: N1_11  and  C9_12 
REMARK    5  A    between atoms: C13_16  and  N2_17 
REMARK    6  A    between atoms: N2_17  and  C14_18 
ROOT
HETATM    1  C9  UNL     1      22.477   0.332  52.402  1.00  0.00     0.036 A 
HETATM    2  C10 UNL     1      21.385  -0.199  53.033  1.00  0.00     0.029 A 
HETATM    3  C11 UNL     1      21.530  -0.913  54.208  1.00  0.00     0.004 A 
HETATM    4  C12 UNL     1      22.804  -1.070  54.720  1.00  0.00     0.030 A 
HETATM    5  C13 UNL     1      23.919  -0.534  54.086  1.00  0.00     0.051 A 
HETATM    6  C16 UNL     1      23.755   0.174  52.915  1.00  0.00     0.059 A 
ENDROOT
BRANCH   1   7
HETATM    7  N1  UNL     1      22.478   1.097  51.163  1.00  0.00    -0.326 N 
HETATM    8  C1  UNL     1      21.953   2.421  51.417  1.00  0.00     0.231 C 
HETATM    9  O1  UNL     1      21.659   2.513  52.660  1.00  0.00    -0.272 OA
HETATM   10  H8  UNL     1      22.791   0.763  50.211  1.00  0.00     0.169 HD
BRANCH   8  11
HETATM   11  C2  UNL     1      21.847   3.365  50.273  1.00  0.00     0.177 C 
BRANCH  11  12
HETATM   12  S1  UNL     1      23.065   4.679  50.498  1.00  0.00    -0.147 SA
BRANCH  12  13
HETATM   13  C3  UNL     1      24.445   4.521  49.336  1.00  0.00     0.093 C 
HETATM   14  C4  UNL     1      25.376   5.702  49.472  1.00  0.00     0.004 C 
HETATM   15  C5  UNL     1      26.476   5.571  48.751  1.00  0.00    -0.029 C 
HETATM   16  C6  UNL     1      27.235   4.553  49.142  1.00  0.00     0.012 C 
HETATM   17  C7  UNL     1      26.561   3.272  49.440  1.00  0.00    -0.002 C 
HETATM   18  C8  UNL     1      25.228   3.277  49.529  1.00  0.00    -0.008 C 
ENDBRANCH  12  13
ENDBRANCH  11  12
ENDBRANCH   8  11
ENDBRANCH   1   7
BRANCH   5  19
HETATM   19  N2  UNL     1      25.239  -0.638  54.594  1.00  0.00    -0.186 N 
HETATM   20  H12 UNL     1      25.491  -1.550  55.088  1.00  0.00     0.184 HD
BRANCH  19  21
HETATM   21  C14 UNL     1      26.387   0.222  54.634  1.00  0.00     0.751 A 
HETATM   22  N3  UNL     1      27.476  -0.523  54.775  1.00  0.00    -0.047 NA
HETATM   23  C15 UNL     1      28.534   0.300  54.809  1.00  0.00     0.306 A 
HETATM   24  O2  UNL     1      28.051   1.507  54.689  1.00  0.00    -0.192 OA
HETATM   25  N4  UNL     1      26.769   1.508  54.582  1.00  0.00     0.070 NA
ENDBRANCH  19  21
ENDBRANCH   5  19
TORSDOF 6
ENDMDL
MODEL 2
REMARK VINA RESULT:      -7.9      0.910      1.357
REMARK  6 active torsions:
REMARK  status: ('A' for Active; 'I' for Inactive)
REMARK    1  A    between atoms: C1_2  and  C2_3 
REMARK       I    between atoms: C1_2  and  N1_11 
REMARK    2  A    between atoms: C2_3  and  S1_4 
REMARK    3  A    between atoms: S1_4  and  C3_5 
REMARK    4  A    between atoms: N1_11  and  C9_12 
REMARK    5  A    between atoms: C13_16  and  N2_17 
REMARK    6  A    between atoms: N2_17  and  C14_18 
ROOT
HETATM    1  C9  UNL     1      22.476   1.316  52.859  1.00  0.00     0.036 A 
HETATM    2  C10 UNL     1      21.392   0.628  53.333  1.00  0.00     0.029 A 
HETATM    3  C11 UNL     1      21.560  -0.536  54.058  1.00  0.00     0.004 A 
HETATM    4  C12 UNL     1      22.850  -0.979  54.287  1.00  0.00     0.030 A 
HETATM    5  C13 UNL     1      23.957  -0.286  53.809  1.00  0.00     0.051 A 
HETATM    6  C16 UNL     1      23.769   0.873  53.087  1.00  0.00     0.059 A 
ENDROOT
BRANCH   1   7
HETATM    7  N1  UNL     1      22.451   2.546  52.080  1.00  0.00    -0.326 N 
HETATM    8  C1  UNL     1      22.366   2.220  50.673  1.00  0.00     0.231 C 
HETATM    9  O1  UNL     1      22.328   0.946  50.550  1.00  0.00    -0.272 OA
HETATM   10  H8  UNL     1      22.501   3.534  52.452  1.00  0.00     0.169 HD
BRANCH   8  11
HETATM   11  C2  UNL     1      22.349   3.339  49.694  1.00  0.00     0.177 C 
BRANCH  11  12
HETATM   12  S1  UNL     1      23.001   4.819  50.499  1.00  0.00    -0.147 SA
BRANCH  12  13
HETATM   13  C3  UNL     1      24.811   4.835  50.506  1.00  0.00     0.093 C 
HETATM   14  C4  UNL     1      25.345   3.579  49.859  1.00  0.00     0.004 C 
HETATM   15  C5  UNL     1      26.657   3.601  49.707  1.00  0.00    -0.029 C 
HETATM   16  C6  UNL     1      27.068   4.555  48.878  1.00  0.00     0.012 C 
HETATM   17  C7  UNL     1      26.462   5.894  49.022  1.00  0.00    -0.002 C 
HETATM   18  C8  UNL     1      25.384   6.009  49.804  1.00  0.00    -0.008 C 
ENDBRANCH  12  13
ENDBRANCH  11  12
ENDBRANCH   8  11
ENDBRANCH   1   7
BRANCH   5  19
HETATM   19  N2  UNL     1      25.298  -0.682  54.050  1.00  0.00    -0.186 N 
HETATM   20  H12 UNL     1      25.514  -1.723  53.953  1.00  0.00     0.184 HD
BRANCH  19  21
HETATM   21  C14 UNL     1      26.506  -0.010  54.431  1.00  0.00     0.751 A 
HETATM   22  N3  UNL     1      27.539  -0.797  54.158  1.00  0.00    -0.047 NA
HETATM   23  C15 UNL     1      28.655  -0.149  54.521  1.00  0.00     0.306 A 
HETATM   24  O2  UNL     1      28.261   1.000  54.999  1.00  0.00    -0.192 OA
HETATM   25  N4  UNL     1      26.981   1.127  54.965  1.00  0.00     0.070 NA
ENDBRANCH  19  21
ENDBRANCH   5  19
TORSDOF 6
ENDMDL
MODEL 3
REMARK VINA RESULT:      -7.7      1.833      5.382
REMARK  6 active torsions:
REMARK  status: ('A' for Active; 'I' for Inactive)
REMARK    1  A    between atoms: C1_2  and  C2_3 
REMARK       I    between atoms: C1_2  and  N1_11 
REMARK    2  A    between atoms: C2_3  and  S1_4 
REMARK    3  A    between atoms: S1_4  and  C3_5 
REMARK    4  A    between atoms: N1_11  and  C9_12 
REMARK    5  A    between atoms: C13_16  and  N2_17 
REMARK    6  A    between atoms: N2_17  and  C14_18 
ROOT
HETATM    1  C9  UNL     1      24.124   3.628  50.813  1.00  0.00     0.036 A 
HETATM    2  C10 UNL     1      24.586   4.379  49.766  1.00  0.00     0.029 A 
HETATM    3  C11 UNL     1      25.907   4.296  49.369  1.00  0.00     0.004 A 
HETATM    4  C12 UNL     1      26.740   3.434  50.060  1.00  0.00     0.030 A 
HETATM    5  C13 UNL     1      26.280   2.668  51.124  1.00  0.00     0.051 A 
HETATM    6  C16 UNL     1      24.959   2.765  51.505  1.00  0.00     0.059 A 
ENDROOT
BRANCH   1   7
HETATM    7  N1  UNL     1      22.768   3.617  51.343  1.00  0.00    -0.326 N 
HETATM    8  C1  UNL     1      21.939   2.767  50.517  1.00  0.00     0.231 C 
HETATM    9  O1  UNL     1      22.660   2.277  49.579  1.00  0.00    -0.272 OA
HETATM   10  H8  UNL     1      22.412   4.146  52.184  1.00  0.00     0.169 HD
BRANCH   8  11
HETATM   11  C2  UNL     1      20.501   2.630  50.873  1.00  0.00     0.177 C 
BRANCH  11  12
HETATM   12  S1  UNL     1      20.385   2.006  52.564  1.00  0.00    -0.147 SA
BRANCH  12  13
HETATM   13  C3  UNL     1      21.251   0.428  52.758  1.00  0.00     0.093 C 
HETATM   14  C4  UNL     1      22.589   0.648  53.421  1.00  0.00     0.004 C 
HETATM   15  C5  UNL     1      23.205  -0.483  53.718  1.00  0.00    -0.029 C 
HETATM   16  C6  UNL     1      22.549  -1.211  54.616  1.00  0.00     0.012 C 
HETATM   17  C7  UNL     1      21.088  -1.354  54.445  1.00  0.00    -0.002 C 
HETATM   18  C8  UNL     1      20.485  -0.562  53.554  1.00  0.00    -0.008 C 
ENDBRANCH  12  13
ENDBRANCH  11  12
ENDBRANCH   8  11
ENDBRANCH   1   7
BRANCH   5  19
HETATM   19  N2  UNL     1      27.088   1.745  51.837  1.00  0.00    -0.186 N 
HETATM   20  H12 UNL     1      27.180   0.767  51.418  1.00  0.00     0.184 HD
BRANCH  19  21
HETATM   21  C14 UNL     1      27.843   1.781  53.056  1.00  0.00     0.751 A 
HETATM   22  N3  UNL     1      27.984   0.541  53.510  1.00  0.00    -0.047 NA
HETATM   23  C15 UNL     1      28.692   0.599  54.646  1.00  0.00     0.306 A 
HETATM   24  O2  UNL     1      28.953   1.864  54.840  1.00  0.00    -0.192 OA
HETATM   25  N4  UNL     1      28.463   2.608  53.912  1.00  0.00     0.070 NA
ENDBRANCH  19  21
ENDBRANCH   5  19
TORSDOF 6
ENDMDL
MODEL 4
REMARK VINA RESULT:      -7.7      1.422      1.876
REMARK  6 active torsions:
REMARK  status: ('A' for Active; 'I' for Inactive)
REMARK    1  A    between atoms: C1_2  and  C2_3 
REMARK       I    between atoms: C1_2  and  N1_11 
REMARK    2  A    between atoms: C2_3  and  S1_4 
REMARK    3  A    between atoms: S1_4  and  C3_5 
REMARK    4  A    between atoms: N1_11  and  C9_12 
REMARK    5  A    between atoms: C13_16  and  N2_17 
REMARK    6  A    between atoms: N2_17  and  C14_18 
ROOT
HETATM    1  C9  UNL     1      23.519   1.947  51.413  1.00  0.00     0.036 A 
HETATM    2  C10 UNL     1      22.422   1.140  51.281  1.00  0.00     0.029 A 
HETATM    3  C11 UNL     1      22.257   0.038  52.097  1.00  0.00     0.004 A 
HETATM    4  C12 UNL     1      23.229  -0.220  53.047  1.00  0.00     0.030 A 
HETATM    5  C13 UNL     1      24.346   0.595  53.188  1.00  0.00     0.051 A 
HETATM    6  C16 UNL     1      24.494   1.689  52.363  1.00  0.00     0.059 A 
ENDROOT
BRANCH   1   7
HETATM    7  N1  UNL     1      23.828   3.131  50.623  1.00  0.00    -0.326 N 
HETATM    8  C1  UNL     1      22.974   4.221  51.041  1.00  0.00     0.231 C 
HETATM    9  O1  UNL     1      22.216   3.808  51.987  1.00  0.00    -0.272 OA
HETATM   10  H8  UNL     1      24.545   3.210  49.851  1.00  0.00     0.169 HD
BRANCH   8  11
HETATM   11  C2  UNL     1      23.112   5.527  50.344  1.00  0.00     0.177 C 
BRANCH  11  12
HETATM   12  S1  UNL     1      24.783   6.153  50.620  1.00  0.00    -0.147 SA
BRANCH  12  13
HETATM   13  C3  UNL     1      25.788   6.068  49.115  1.00  0.00     0.093 C 
HETATM   14  C4  UNL     1      26.697   7.271  49.030  1.00  0.00     0.004 C 
HETATM   15  C5  UNL     1      27.555   7.193  48.028  1.00  0.00    -0.029 C 
HETATM   16  C6  UNL     1      28.412   6.186  48.155  1.00  0.00     0.012 C 
HETATM   17  C7  UNL     1      27.873   4.878  48.581  1.00  0.00    -0.002 C 
HETATM   18  C8  UNL     1      26.617   4.842  49.038  1.00  0.00    -0.008 C 
ENDBRANCH  12  13
ENDBRANCH  11  12
ENDBRANCH   8  11
ENDBRANCH   1   7
BRANCH   5  19
HETATM   19  N2  UNL     1      25.349   0.391  54.171  1.00  0.00    -0.186 N 
HETATM   20  H12 UNL     1      25.076  -0.199  55.017  1.00  0.00     0.184 HD
BRANCH  19  21
HETATM   21  C14 UNL     1      26.710   0.812  54.341  1.00  0.00     0.751 A 
HETATM   22  N3  UNL     1      27.458  -0.252  54.604  1.00  0.00    -0.047 NA
HETATM   23  C15 UNL     1      28.723   0.164  54.758  1.00  0.00     0.306 A 
HETATM   24  O2  UNL     1      28.696   1.458  54.584  1.00  0.00    -0.192 OA
HETATM   25  N4  UNL     1      27.511   1.889  54.332  1.00  0.00     0.070 NA
ENDBRANCH  19  21
ENDBRANCH   5  19
TORSDOF 6
ENDMDL
MODEL 5
REMARK VINA RESULT:      -7.1      1.985      2.476
REMARK  6 active torsions:
REMARK  status: ('A' for Active; 'I' for Inactive)
REMARK    1  A    between atoms: C1_2  and  C2_3 
REMARK       I    between atoms: C1_2  and  N1_11 
REMARK    2  A    between atoms: C2_3  and  S1_4 
REMARK    3  A    between atoms: S1_4  and  C3_5 
REMARK    4  A    between atoms: N1_11  and  C9_12 
REMARK    5  A    between atoms: C13_16  and  N2_17 
REMARK    6  A    between atoms: N2_17  and  C14_18 
ROOT
HETATM    1  C9  UNL     1      21.381   0.926  53.367  1.00  0.00     0.036 A 
HETATM    2  C10 UNL     1      20.931  -0.006  54.263  1.00  0.00     0.029 A 
HETATM    3  C11 UNL     1      21.791  -0.953  54.785  1.00  0.00     0.004 A 
HETATM    4  C12 UNL     1      23.112  -0.927  54.377  1.00  0.00     0.030 A 
HETATM    5  C13 UNL     1      23.578   0.016  53.468  1.00  0.00     0.051 A 
HETATM    6  C16 UNL     1      22.704   0.952  52.957  1.00  0.00     0.059 A 
ENDROOT
BRANCH   1   7
HETATM    7  N1  UNL     1      20.593   1.973  52.732  1.00  0.00    -0.326 N 
HETATM    8  C1  UNL     1      20.047   1.474  51.489  1.00  0.00     0.231 C 
HETATM    9  O1  UNL     1      20.419   0.258  51.337  1.00  0.00    -0.272 OA
HETATM   10  H8  UNL     1      20.438   2.955  53.089  1.00  0.00     0.169 HD
BRANCH   8  11
HETATM   11  C2  UNL     1      19.220   2.396  50.666  1.00  0.00     0.177 C 
BRANCH  11  12
HETATM   12  S1  UNL     1      19.903   4.062  50.808  1.00  0.00    -0.147 SA
BRANCH  12  13
HETATM   13  C3  UNL     1      21.444   4.237  49.873  1.00  0.00     0.093 C 
HETATM   14  C4  UNL     1      22.629   4.148  50.805  1.00  0.00     0.004 C 
HETATM   15  C5  UNL     1      23.784   4.125  50.163  1.00  0.00    -0.029 C 
HETATM   16  C6  UNL     1      23.931   3.049  49.397  1.00  0.00     0.012 C 
HETATM   17  C7  UNL     1      22.780   2.636  48.570  1.00  0.00    -0.002 C 
HETATM   18  C8  UNL     1      21.599   3.213  48.812  1.00  0.00    -0.008 C 
ENDBRANCH  12  13
ENDBRANCH  11  12
ENDBRANCH   8  11
ENDBRANCH   1   7
BRANCH   5  19
HETATM   19  N2  UNL     1      24.930   0.104  53.049  1.00  0.00    -0.186 N 
HETATM   20  H12 UNL     1      25.102   0.469  52.061  1.00  0.00     0.184 HD
BRANCH  19  21
HETATM   21  C14 UNL     1      26.202  -0.205  53.637  1.00  0.00     0.751 A 
HETATM   22  N3  UNL     1      27.048  -0.548  52.673  1.00  0.00    -0.047 NA
HETATM   23  C15 UNL     1      28.227  -0.831  53.244  1.00  0.00     0.306 A 
HETATM   24  O2  UNL     1      28.054  -0.652  54.525  1.00  0.00    -0.192 OA
HETATM   25  N4  UNL     1      26.856  -0.277  54.807  1.00  0.00     0.070 NA
ENDBRANCH  19  21
ENDBRANCH   5  19
TORSDOF 6
ENDMDL
MODEL 6
REMARK VINA RESULT:      -7.0      2.400      4.073
REMARK  6 active torsions:
REMARK  status: ('A' for Active; 'I' for Inactive)
REMARK    1  A    between atoms: C1_2  and  C2_3 
REMARK       I    between atoms: C1_2  and  N1_11 
REMARK    2  A    between atoms: C2_3  and  S1_4 
REMARK    3  A    between atoms: S1_4  and  C3_5 
REMARK    4  A    between atoms: N1_11  and  C9_12 
REMARK    5  A    between atoms: C13_16  and  N2_17 
REMARK    6  A    between atoms: N2_17  and  C14_18 
ROOT
HETATM    1  C9  UNL     1      25.333   2.267  52.440  1.00  0.00     0.036 A 
HETATM    2  C10 UNL     1      26.615   1.910  52.122  1.00  0.00     0.029 A 
HETATM    3  C11 UNL     1      27.046   0.608  52.294  1.00  0.00     0.004 A 
HETATM    4  C12 UNL     1      26.145  -0.314  52.792  1.00  0.00     0.030 A 
HETATM    5  C13 UNL     1      24.840   0.039  53.117  1.00  0.00     0.051 A 
HETATM    6  C16 UNL     1      24.430   1.343  52.940  1.00  0.00     0.059 A 
ENDROOT
BRANCH   1   7
HETATM    7  N1  UNL     1      24.745   3.594  52.319  1.00  0.00    -0.326 N 
HETATM    8  C1  UNL     1      24.023   3.685  51.069  1.00  0.00     0.231 C 
HETATM    9  O1  UNL     1      24.117   2.563  50.459  1.00  0.00    -0.272 OA
HETATM   10  H8  UNL     1      24.827   4.390  53.009  1.00  0.00     0.169 HD
BRANCH   8  11
HETATM   11  C2  UNL     1      23.358   4.973  50.735  1.00  0.00     0.177 C 
BRANCH  11  12
HETATM   12  S1  UNL     1      24.620   6.260  50.627  1.00  0.00    -0.147 SA
BRANCH  12  13
HETATM   13  C3  UNL     1      25.618   6.096  49.124  1.00  0.00     0.093 C 
HETATM   14  C4  UNL     1      26.529   7.290  48.973  1.00  0.00     0.004 C 
HETATM   15  C5  UNL     1      27.383   7.159  47.973  1.00  0.00    -0.029 C 
HETATM   16  C6  UNL     1      28.239   6.158  48.148  1.00  0.00     0.012 C 
HETATM   17  C7  UNL     1      27.699   4.875  48.645  1.00  0.00    -0.002 C 
HETATM   18  C8  UNL     1      26.445   4.865  49.108  1.00  0.00    -0.008 C 
ENDBRANCH  12  13
ENDBRANCH  11  12
ENDBRANCH   8  11
ENDBRANCH   1   7
BRANCH   5  19
HETATM   19  N2  UNL     1      23.872  -0.879  53.596  1.00  0.00    -0.186 N 
HETATM   20  H12 UNL     1      24.175  -1.900  53.669  1.00  0.00     0.184 HD
BRANCH  19  21
HETATM   21  C14 UNL     1      22.503  -0.791  54.016  1.00  0.00     0.751 A 
HETATM   22  N3  UNL     1      21.746  -0.524  52.959  1.00  0.00    -0.047 NA
HETATM   23  C15 UNL     1      20.474  -0.447  53.374  1.00  0.00     0.306 A 
HETATM   24  O2  UNL     1      20.505  -0.668  54.660  1.00  0.00    -0.192 OA
HETATM   25  N4  UNL     1      21.699  -0.879  55.088  1.00  0.00     0.070 NA
ENDBRANCH  19  21
ENDBRANCH   5  19
TORSDOF 6
ENDMDL
MODEL 7
REMARK VINA RESULT:      -6.8      2.503      3.152
REMARK  6 active torsions:
REMARK  status: ('A' for Active; 'I' for Inactive)
REMARK    1  A    between atoms: C1_2  and  C2_3 
REMARK       I    between atoms: C1_2  and  N1_11 
REMARK    2  A    between atoms: C2_3  and  S1_4 
REMARK    3  A    between atoms: S1_4  and  C3_5 
REMARK    4  A    between atoms: N1_11  and  C9_12 
REMARK    5  A    between atoms: C13_16  and  N2_17 
REMARK    6  A    between atoms: N2_17  and  C14_18 
ROOT
HETATM    1  C9  UNL     1      22.598  -0.690  53.541  1.00  0.00     0.036 A 
HETATM    2  C10 UNL     1      22.363  -1.285  54.751  1.00  0.00     0.029 A 
HETATM    3  C11 UNL     1      23.392  -1.479  55.652  1.00  0.00     0.004 A 
HETATM    4  C12 UNL     1      24.658  -1.054  55.295  1.00  0.00     0.030 A 
HETATM    5  C13 UNL     1      24.907  -0.448  54.069  1.00  0.00     0.051 A 
HETATM    6  C16 UNL     1      23.867  -0.264  53.182  1.00  0.00     0.059 A 
ENDROOT
BRANCH   1   7
HETATM    7  N1  UNL     1      21.620  -0.428  52.496  1.00  0.00    -0.326 N 
HETATM    8  C1  UNL     1      20.647   0.527  52.979  1.00  0.00     0.231 C 
HETATM    9  O1  UNL     1      20.956   0.856  54.178  1.00  0.00    -0.272 OA
HETATM   10  H8  UNL     1      21.588  -0.861  51.533  1.00  0.00     0.169 HD
BRANCH   8  11
HETATM   11  C2  UNL     1      19.539   0.922  52.069  1.00  0.00     0.177 C 
BRANCH  11  12
HETATM   12  S1  UNL     1      20.234   1.297  50.445  1.00  0.00    -0.147 SA
BRANCH  12  13
HETATM   13  C3  UNL     1      21.319   2.747  50.500  1.00  0.00     0.093 C 
HETATM   14  C4  UNL     1      20.968   3.614  51.685  1.00  0.00     0.004 C 
HETATM   15  C5  UNL     1      21.818   4.611  51.859  1.00  0.00    -0.029 C 
HETATM   16  C6  UNL     1      23.048   4.200  52.150  1.00  0.00     0.012 C 
HETATM   17  C7  UNL     1      23.598   3.077  51.363  1.00  0.00    -0.002 C 
HETATM   18  C8  UNL     1      22.757   2.394  50.581  1.00  0.00    -0.008 C 
ENDBRANCH  12  13
ENDBRANCH  11  12
ENDBRANCH   8  11
ENDBRANCH   1   7
BRANCH   5  19
HETATM   19  N2  UNL     1      26.180   0.037  53.675  1.00  0.00    -0.186 N 
HETATM   20  H12 UNL     1      26.226   1.053  53.350  1.00  0.00     0.184 HD
BRANCH  19  21
HETATM   21  C14 UNL     1      27.498  -0.521  53.576  1.00  0.00     0.751 A 
HETATM   22  N3  UNL     1      28.388   0.440  53.786  1.00  0.00    -0.047 NA
HETATM   23  C15 UNL     1      29.609  -0.104  53.690  1.00  0.00     0.306 A 
HETATM   24  O2  UNL     1      29.417  -1.367  53.426  1.00  0.00    -0.192 OA
HETATM   25  N4  UNL     1      28.167  -1.662  53.348  1.00  0.00     0.070 NA
ENDBRANCH  19  21
ENDBRANCH   5  19
TORSDOF 6
ENDMDL
MODEL 8
REMARK VINA RESULT:      -6.7      2.148      2.708
REMARK  6 active torsions:
REMARK  status: ('A' for Active; 'I' for Inactive)
REMARK    1  A    between atoms: C1_2  and  C2_3 
REMARK       I    between atoms: C1_2  and  N1_11 
REMARK    2  A    between atoms: C2_3  and  S1_4 
REMARK    3  A    between atoms: S1_4  and  C3_5 
REMARK    4  A    between atoms: N1_11  and  C9_12 
REMARK    5  A    between atoms: C13_16  and  N2_17 
REMARK    6  A    between atoms: N2_17  and  C14_18 
ROOT
HETATM    1  C9  UNL     1      23.247   2.637  51.682  1.00  0.00     0.036 A 
HETATM    2  C10 UNL     1      22.626   1.543  52.220  1.00  0.00     0.029 A 
HETATM    3  C11 UNL     1      23.365   0.508  52.759  1.00  0.00     0.004 A 
HETATM    4  C12 UNL     1      24.744   0.614  52.736  1.00  0.00     0.030 A 
HETATM    5  C13 UNL     1      25.384   1.721  52.191  1.00  0.00     0.051 A 
HETATM    6  C16 UNL     1      24.628   2.743  51.658  1.00  0.00     0.059 A 
ENDROOT
BRANCH   1   7
HETATM    7  N1  UNL     1      22.601   3.793  51.077  1.00  0.00    -0.326 N 
HETATM    8  C1  UNL     1      22.112   3.436  49.763  1.00  0.00     0.231 C 
HETATM    9  O1  UNL     1      22.390   2.205  49.543  1.00  0.00    -0.272 OA
HETATM   10  H8  UNL     1      22.502   4.757  51.497  1.00  0.00     0.169 HD
BRANCH   8  11
HETATM   11  C2  UNL     1      21.431   4.485  48.959  1.00  0.00     0.177 C 
BRANCH  11  12
HETATM   12  S1  UNL     1      22.574   5.066  47.686  1.00  0.00    -0.147 SA
BRANCH  12  13
HETATM   13  C3  UNL     1      23.779   6.241  48.354  1.00  0.00     0.093 C 
HETATM   14  C4  UNL     1      23.156   7.046  49.469  1.00  0.00     0.004 C 
HETATM   15  C5  UNL     1      24.030   7.819  50.090  1.00  0.00    -0.029 C 
HETATM   16  C6  UNL     1      24.978   7.132  50.719  1.00  0.00     0.012 C 
HETATM   17  C7  UNL     1      25.592   5.998  49.998  1.00  0.00    -0.002 C 
HETATM   18  C8  UNL     1      25.005   5.586  48.871  1.00  0.00    -0.008 C 
ENDBRANCH  12  13
ENDBRANCH  11  12
ENDBRANCH   8  11
ENDBRANCH   1   7
BRANCH   5  19
HETATM   19  N2  UNL     1      26.792   1.890  52.179  1.00  0.00    -0.186 N 
HETATM   20  H12 UNL     1      27.244   2.065  51.228  1.00  0.00     0.184 HD
BRANCH  19  21
HETATM   21  C14 UNL     1      27.830   1.867  53.169  1.00  0.00     0.751 A 
HETATM   22  N3  UNL     1      28.369   0.654  53.197  1.00  0.00    -0.047 NA
HETATM   23  C15 UNL     1      29.335   0.657  54.126  1.00  0.00     0.306 A 
HETATM   24  O2  UNL     1      29.347   1.863  54.625  1.00  0.00    -0.192 OA
HETATM   25  N4  UNL     1      28.461   2.621  54.082  1.00  0.00     0.070 NA
ENDBRANCH  19  21
ENDBRANCH   5  19
TORSDOF 6
ENDMDL
MODEL 9
REMARK VINA RESULT:      -6.7      5.218      8.027
REMARK  6 active torsions:
REMARK  status: ('A' for Active; 'I' for Inactive)
REMARK    1  A    between atoms: C1_2  and  C2_3 
REMARK       I    between atoms: C1_2  and  N1_11 
REMARK    2  A    between atoms: C2_3  and  S1_4 
REMARK    3  A    between atoms: S1_4  and  C3_5 
REMARK    4  A    between atoms: N1_11  and  C9_12 
REMARK    5  A    between atoms: C13_16  and  N2_17 
REMARK    6  A    between atoms: N2_17  and  C14_18 
ROOT
HETATM    1  C9  UNL     1      27.910   6.155  48.102  1.00  0.00     0.036 A 
HETATM    2  C10 UNL     1      26.864   7.028  47.970  1.00  0.00     0.029 A 
HETATM    3  C11 UNL     1      25.604   6.691  48.426  1.00  0.00     0.004 A 
HETATM    4  C12 UNL     1      25.437   5.452  49.019  1.00  0.00     0.030 A 
HETATM    5  C13 UNL     1      26.493   4.560  49.158  1.00  0.00     0.051 A 
HETATM    6  C16 UNL     1      27.743   4.913  48.694  1.00  0.00     0.059 A 
ENDROOT
BRANCH   1   7
HETATM    7  N1  UNL     1      29.281   6.370  47.664  1.00  0.00    -0.326 N 
HETATM    8  C1  UNL     1      29.837   7.504  48.370  1.00  0.00     0.231 C 
HETATM    9  O1  UNL     1      28.950   7.962  49.171  1.00  0.00    -0.272 OA
HETATM   10  H8  UNL     1      29.811   5.814  46.938  1.00  0.00     0.169 HD
BRANCH   8  11
HETATM   11  C2  UNL     1      31.233   7.911  48.056  1.00  0.00     0.177 C 
BRANCH  11  12
HETATM   12  S1  UNL     1      32.364   6.814  48.939  1.00  0.00    -0.147 SA
BRANCH  12  13
HETATM   13  C3  UNL     1      33.119   5.597  47.831  1.00  0.00     0.093 C 
HETATM   14  C4  UNL     1      34.491   5.217  48.334  1.00  0.00     0.004 C 
HETATM   15  C5  UNL     1      35.032   4.227  47.646  1.00  0.00    -0.029 C 
HETATM   16  C6  UNL     1      34.354   3.089  47.754  1.00  0.00     0.012 C 
HETATM   17  C7  UNL     1      32.883   3.156  47.646  1.00  0.00    -0.002 C 
HETATM   18  C8  UNL     1      32.310   4.363  47.685  1.00  0.00    -0.008 C 
ENDBRANCH  12  13
ENDBRANCH  11  12
ENDBRANCH   8  11
ENDBRANCH   1   7
BRANCH   5  19
HETATM   19  N2  UNL     1      26.377   3.295  49.790  1.00  0.00    -0.186 N 
HETATM   20  H12 UNL     1      26.063   2.481  49.176  1.00  0.00     0.184 HD
BRANCH  19  21
HETATM   21  C14 UNL     1      26.567   2.801  51.123  1.00  0.00     0.751 A 
HETATM   22  N3  UNL     1      25.384   2.703  51.717  1.00  0.00    -0.047 NA
HETATM   23  C15 UNL     1      25.585   2.240  52.958  1.00  0.00     0.306 A 
HETATM   24  O2  UNL     1      26.875   2.075  53.072  1.00  0.00    -0.192 OA
HETATM   25  N4  UNL     1      27.503   2.399  51.997  1.00  0.00     0.070 NA
ENDBRANCH  19  21
ENDBRANCH   5  19
TORSDOF 6
ENDMDL
