MODEL 1
REMARK VINA RESULT:      -8.3      0.000      0.000
REMARK  3 active torsions:
REMARK  status: ('A' for Active; 'I' for Inactive)
REMARK    1  A    between atoms: S1_2  and  C2_3 
REMARK    2  A    between atoms: C8_10  and  C9_11 
REMARK    3  A    between atoms: C10_12  and  C12_15 
REMARK       I    between atoms: C12_15  and  N2_16 
ROOT
HETATM    1  C9  UNL     1      26.434  -1.124  52.608  1.00  0.00     0.039 C 
HETATM    2  C10 UNL     1      27.560  -0.952  53.306  1.00  0.00     0.107 C 
HETATM    3  C11 UNL     1      27.703   0.152  54.243  1.00  0.00     0.104 C 
HETATM    4  N1  UNL     1      27.821   1.016  55.002  1.00  0.00    -0.191 NA
ENDROOT
BRANCH   2   5
HETATM    5  C12 UNL     1      28.692  -1.850  53.157  1.00  0.00     0.239 C 
HETATM    6  N2  UNL     1      28.588  -3.262  53.020  1.00  0.00    -0.268 NA
HETATM    7  H11 UNL     1      28.099  -3.287  52.075  1.00  0.00     0.127 HD
HETATM    8  H12 UNL     1      28.120  -3.546  52.129  1.00  0.00     0.127 HD
HETATM    9  O1  UNL     1      29.865  -1.371  53.148  1.00  0.00    -0.273 OA
ENDBRANCH   2   5
BRANCH   1  10
HETATM   10  C8  UNL     1      25.285  -0.234  52.727  1.00  0.00    -0.034 A 
HETATM   11  C7  UNL     1      24.130  -0.413  53.458  1.00  0.00     0.022 A 
HETATM   12  C6  UNL     1      23.103   0.516  53.453  1.00  0.00    -0.014 A 
HETATM   13  C5  UNL     1      22.098  -0.076  54.362  1.00  0.00     0.120 C 
HETATM   14  C15 UNL     1      23.268   1.643  52.682  1.00  0.00     0.077 A 
HETATM   15  S2  UNL     1      20.723  -0.755  53.423  1.00  0.00    -0.137 SA
HETATM   16  C4  UNL     1      20.139   0.397  52.188  1.00  0.00     0.044 C 
HETATM   17  C3  UNL     1      20.324   1.681  51.919  1.00  0.00     0.023 C 
HETATM   18  C2  UNL     1      21.043   2.907  52.378  1.00  0.00     0.213 C 
HETATM   19  O2  UNL     1      22.444   2.729  52.470  1.00  0.00    -0.331 OA
HETATM   20  C14 UNL     1      24.411   1.890  51.915  1.00  0.00     0.038 A 
HETATM   21  C13 UNL     1      25.432   0.923  51.948  1.00  0.00     0.014 A 
BRANCH  18  22
HETATM   22  S1  UNL     1      20.762   4.249  51.193  1.00  0.00    -0.137 SA
HETATM   23  C1  UNL     1      22.002   5.561  51.362  1.00  0.00     0.093 C 
ENDBRANCH  18  22
ENDBRANCH   1  10
TORSDOF 3
ENDMDL
MODEL 2
REMARK VINA RESULT:      -7.3      2.145      3.527
REMARK  3 active torsions:
REMARK  status: ('A' for Active; 'I' for Inactive)
REMARK    1  A    between atoms: S1_2  and  C2_3 
REMARK    2  A    between atoms: C8_10  and  C9_11 
REMARK    3  A    between atoms: C10_12  and  C12_15 
REMARK       I    between atoms: C12_15  and  N2_16 
ROOT
HETATM    1  C9  UNL     1      25.818   0.341  54.056  1.00  0.00     0.039 C 
HETATM    2  C10 UNL     1      26.967   0.892  53.653  1.00  0.00     0.107 C 
HETATM    3  C11 UNL     1      27.039   1.668  52.425  1.00  0.00     0.104 C 
HETATM    4  N1  UNL     1      27.104   2.299  51.458  1.00  0.00    -0.191 NA
ENDROOT
BRANCH   2   5
HETATM    5  C12 UNL     1      28.192   0.738  54.417  1.00  0.00     0.239 C 
HETATM    6  N2  UNL     1      29.106   1.791  54.697  1.00  0.00    -0.268 NA
HETATM    7  H11 UNL     1      28.474   2.380  55.319  1.00  0.00     0.127 HD
HETATM    8  H12 UNL     1      28.696   2.526  55.318  1.00  0.00     0.127 HD
HETATM    9  O1  UNL     1      28.494  -0.404  54.877  1.00  0.00    -0.273 OA
ENDBRANCH   2   5
BRANCH   1  10
HETATM   10  C8  UNL     1      24.573   0.469  53.306  1.00  0.00    -0.034 A 
HETATM   11  C7  UNL     1      24.173   1.490  52.472  1.00  0.00     0.022 A 
HETATM   12  C6  UNL     1      22.938   1.488  51.844  1.00  0.00    -0.014 A 
HETATM   13  C5  UNL     1      22.947   2.744  51.063  1.00  0.00     0.120 C 
HETATM   14  C15 UNL     1      22.106   0.420  52.081  1.00  0.00     0.077 A 
HETATM   15  S2  UNL     1      21.905   3.981  51.850  1.00  0.00    -0.137 SA
HETATM   16  C4  UNL     1      20.316   3.306  52.308  1.00  0.00     0.044 C 
HETATM   17  C3  UNL     1      19.639   2.198  52.045  1.00  0.00     0.023 C 
HETATM   18  C2  UNL     1      19.701   0.909  51.292  1.00  0.00     0.213 C 
HETATM   19  O2  UNL     1      20.840   0.132  51.615  1.00  0.00    -0.331 OA
HETATM   20  C14 UNL     1      22.445  -0.650  52.915  1.00  0.00     0.038 A 
HETATM   21  C13 UNL     1      23.708  -0.611  53.534  1.00  0.00     0.014 A 
BRANCH  18  22
HETATM   22  S1  UNL     1      18.249  -0.096  51.697  1.00  0.00    -0.137 SA
HETATM   23  C1  UNL     1      18.504  -1.063  53.209  1.00  0.00     0.093 C 
ENDBRANCH  18  22
ENDBRANCH   1  10
TORSDOF 3
ENDMDL
MODEL 3
REMARK VINA RESULT:      -7.3      2.738      3.746
REMARK  3 active torsions:
REMARK  status: ('A' for Active; 'I' for Inactive)
REMARK    1  A    between atoms: S1_2  and  C2_3 
REMARK    2  A    between atoms: C8_10  and  C9_11 
REMARK    3  A    between atoms: C10_12  and  C12_15 
REMARK       I    between atoms: C12_15  and  N2_16 
ROOT
HETATM    1  C9  UNL     1      26.471   0.659  51.910  1.00  0.00     0.039 C 
HETATM    2  C10 UNL     1      27.440   0.525  52.821  1.00  0.00     0.107 C 
HETATM    3  C11 UNL     1      27.994   1.683  53.504  1.00  0.00     0.104 C 
HETATM    4  N1  UNL     1      28.431   2.596  54.064  1.00  0.00    -0.191 NA
ENDROOT
BRANCH   2   5
HETATM    5  C12 UNL     1      27.986  -0.776  53.165  1.00  0.00     0.239 C 
HETATM    6  N2  UNL     1      27.273  -2.002  53.065  1.00  0.00    -0.268 NA
HETATM    7  H11 UNL     1      27.163  -2.028  52.007  1.00  0.00     0.127 HD
HETATM    8  H12 UNL     1      27.039  -2.253  52.077  1.00  0.00     0.127 HD
HETATM    9  O1  UNL     1      29.178  -0.853  53.588  1.00  0.00    -0.273 OA
ENDBRANCH   2   5
BRANCH   1  10
HETATM   10  C8  UNL     1      25.909   1.951  51.535  1.00  0.00    -0.034 A 
HETATM   11  C7  UNL     1      24.845   2.622  52.098  1.00  0.00     0.022 A 
HETATM   12  C6  UNL     1      24.403   3.842  51.613  1.00  0.00    -0.014 A 
HETATM   13  C5  UNL     1      23.275   4.179  52.507  1.00  0.00     0.120 C 
HETATM   14  C15 UNL     1      25.066   4.375  50.533  1.00  0.00     0.077 A 
HETATM   15  S2  UNL     1      21.706   3.923  51.665  1.00  0.00    -0.137 SA
HETATM   16  C4  UNL     1      21.710   4.649  50.034  1.00  0.00     0.044 C 
HETATM   17  C3  UNL     1      22.488   5.489  49.365  1.00  0.00     0.023 C 
HETATM   18  C2  UNL     1      23.732   6.309  49.472  1.00  0.00     0.213 C 
HETATM   19  O2  UNL     1      24.870   5.548  49.833  1.00  0.00    -0.331 OA
HETATM   20  C14 UNL     1      26.152   3.751  49.911  1.00  0.00     0.038 A 
HETATM   21  C13 UNL     1      26.571   2.514  50.434  1.00  0.00     0.014 A 
BRANCH  18  22
HETATM   22  S1  UNL     1      24.095   7.065  47.867  1.00  0.00    -0.137 SA
HETATM   23  C1  UNL     1      25.844   7.519  47.721  1.00  0.00     0.093 C 
ENDBRANCH  18  22
ENDBRANCH   1  10
TORSDOF 3
ENDMDL
MODEL 4
REMARK VINA RESULT:      -7.2      4.151      7.221
REMARK  3 active torsions:
REMARK  status: ('A' for Active; 'I' for Inactive)
REMARK    1  A    between atoms: S1_2  and  C2_3 
REMARK    2  A    between atoms: C8_10  and  C9_11 
REMARK    3  A    between atoms: C10_12  and  C12_15 
REMARK       I    between atoms: C12_15  and  N2_16 
ROOT
HETATM    1  C9  UNL     1      20.257   0.306  52.464  1.00  0.00     0.039 C 
HETATM    2  C10 UNL     1      19.741   0.432  51.238  1.00  0.00     0.107 C 
HETATM    3  C11 UNL     1      20.577   0.802  50.105  1.00  0.00     0.104 C 
HETATM    4  N1  UNL     1      21.235   1.079  49.197  1.00  0.00    -0.191 NA
ENDROOT
BRANCH   2   5
HETATM    5  C12 UNL     1      18.329   0.214  50.980  1.00  0.00     0.239 C 
HETATM    6  N2  UNL     1      17.722   0.288  49.696  1.00  0.00    -0.268 NA
HETATM    7  H11 UNL     1      18.209  -0.547  49.250  1.00  0.00     0.127 HD
HETATM    8  H12 UNL     1      18.056  -0.463  49.049  1.00  0.00     0.127 HD
HETATM    9  O1  UNL     1      17.560  -0.061  51.949  1.00  0.00    -0.273 OA
ENDBRANCH   2   5
BRANCH   1  10
HETATM   10  C8  UNL     1      21.668   0.527  52.757  1.00  0.00    -0.034 A 
HETATM   11  C7  UNL     1      22.394   1.695  52.658  1.00  0.00     0.022 A 
HETATM   12  C6  UNL     1      23.748   1.747  52.946  1.00  0.00    -0.014 A 
HETATM   13  C5  UNL     1      24.094   3.166  52.715  1.00  0.00     0.120 C 
HETATM   14  C15 UNL     1      24.360   0.581  53.340  1.00  0.00     0.077 A 
HETATM   15  S2  UNL     1      24.998   3.350  51.171  1.00  0.00    -0.137 SA
HETATM   16  C4  UNL     1      26.312   2.148  51.033  1.00  0.00     0.044 C 
HETATM   17  C3  UNL     1      26.913   1.294  51.849  1.00  0.00     0.023 C 
HETATM   18  C2  UNL     1      26.928   0.793  53.256  1.00  0.00     0.213 C 
HETATM   19  O2  UNL     1      25.668   0.312  53.688  1.00  0.00    -0.331 OA
HETATM   20  C14 UNL     1      23.687  -0.639  53.461  1.00  0.00     0.038 A 
HETATM   21  C13 UNL     1      22.313  -0.651  53.161  1.00  0.00     0.014 A 
BRANCH  18  22
HETATM   22  S1  UNL     1      28.091  -0.589  53.392  1.00  0.00    -0.137 SA
HETATM   23  C1  UNL     1      29.798  -0.011  53.585  1.00  0.00     0.093 C 
ENDBRANCH  18  22
ENDBRANCH   1  10
TORSDOF 3
ENDMDL
MODEL 5
REMARK VINA RESULT:      -7.0      4.001      5.779
REMARK  3 active torsions:
REMARK  status: ('A' for Active; 'I' for Inactive)
REMARK    1  A    between atoms: S1_2  and  C2_3 
REMARK    2  A    between atoms: C8_10  and  C9_11 
REMARK    3  A    between atoms: C10_12  and  C12_15 
REMARK       I    between atoms: C12_15  and  N2_16 
ROOT
HETATM    1  C9  UNL     1      26.036   3.704  49.305  1.00  0.00     0.039 C 
HETATM    2  C10 UNL     1      26.187   5.029  49.398  1.00  0.00     0.107 C 
HETATM    3  C11 UNL     1      25.219   5.848  50.111  1.00  0.00     0.104 C 
HETATM    4  N1  UNL     1      24.465   6.506  50.689  1.00  0.00    -0.191 NA
ENDROOT
BRANCH   2   5
HETATM    5  C12 UNL     1      27.315   5.710  48.787  1.00  0.00     0.239 C 
HETATM    6  N2  UNL     1      28.672   5.308  48.927  1.00  0.00    -0.268 NA
HETATM    7  H11 UNL     1      28.609   4.379  48.412  1.00  0.00     0.127 HD
HETATM    8  H12 UNL     1      28.865   4.382  48.482  1.00  0.00     0.127 HD
HETATM    9  O1  UNL     1      27.105   6.739  48.077  1.00  0.00    -0.273 OA
ENDBRANCH   2   5
BRANCH   1  10
HETATM   10  C8  UNL     1      24.910   2.992  49.898  1.00  0.00    -0.034 A 
HETATM   11  C7  UNL     1      23.599   2.952  49.475  1.00  0.00     0.022 A 
HETATM   12  C6  UNL     1      22.624   2.249  50.163  1.00  0.00    -0.014 A 
HETATM   13  C5  UNL     1      21.404   2.478  49.360  1.00  0.00     0.120 C 
HETATM   14  C15 UNL     1      23.006   1.579  51.302  1.00  0.00     0.077 A 
HETATM   15  S2  UNL     1      20.323   3.657  50.182  1.00  0.00    -0.137 SA
HETATM   16  C4  UNL     1      20.109   3.260  51.910  1.00  0.00     0.044 C 
HETATM   17  C3  UNL     1      20.378   2.222  52.690  1.00  0.00     0.023 C 
HETATM   18  C2  UNL     1      20.963   0.848  52.692  1.00  0.00     0.213 C 
HETATM   19  O2  UNL     1      22.285   0.806  52.188  1.00  0.00    -0.331 OA
HETATM   20  C14 UNL     1      24.317   1.576  51.789  1.00  0.00     0.038 A 
HETATM   21  C13 UNL     1      25.278   2.302  51.062  1.00  0.00     0.014 A 
BRANCH  18  22
HETATM   22  S1  UNL     1      21.031   0.225  54.392  1.00  0.00    -0.137 SA
HETATM   23  C1  UNL     1      21.471  -1.533  54.444  1.00  0.00     0.093 C 
ENDBRANCH  18  22
ENDBRANCH   1  10
TORSDOF 3
ENDMDL
MODEL 6
REMARK VINA RESULT:      -7.0      2.575      3.075
REMARK  3 active torsions:
REMARK  status: ('A' for Active; 'I' for Inactive)
REMARK    1  A    between atoms: S1_2  and  C2_3 
REMARK    2  A    between atoms: C8_10  and  C9_11 
REMARK    3  A    between atoms: C10_12  and  C12_15 
REMARK       I    between atoms: C12_15  and  N2_16 
ROOT
HETATM    1  C9  UNL     1      27.316   1.977  52.862  1.00  0.00     0.039 C 
HETATM    2  C10 UNL     1      27.704   0.721  53.102  1.00  0.00     0.107 C 
HETATM    3  C11 UNL     1      26.924  -0.411  52.625  1.00  0.00     0.104 C 
HETATM    4  N1  UNL     1      26.321  -1.317  52.237  1.00  0.00    -0.191 NA
ENDROOT
BRANCH   2   5
HETATM    5  C12 UNL     1      28.913   0.428  53.852  1.00  0.00     0.239 C 
HETATM    6  N2  UNL     1      30.233   0.600  53.353  1.00  0.00    -0.268 NA
HETATM    7  H11 UNL     1      30.224   1.660  53.260  1.00  0.00     0.127 HD
HETATM    8  H12 UNL     1      30.469   1.604  53.175  1.00  0.00     0.127 HD
HETATM    9  O1  UNL     1      28.813  -0.013  55.036  1.00  0.00    -0.273 OA
ENDBRANCH   2   5
BRANCH   1  10
HETATM   10  C8  UNL     1      26.103   2.303  52.121  1.00  0.00    -0.034 A 
HETATM   11  C7  UNL     1      24.790   2.164  52.517  1.00  0.00     0.022 A 
HETATM   12  C6  UNL     1      23.731   2.493  51.686  1.00  0.00    -0.014 A 
HETATM   13  C5  UNL     1      22.541   2.195  52.511  1.00  0.00     0.120 C 
HETATM   14  C15 UNL     1      24.031   2.970  50.432  1.00  0.00     0.077 A 
HETATM   15  S2  UNL     1      21.757   0.674  51.958  1.00  0.00    -0.137 SA
HETATM   16  C4  UNL     1      21.556   0.645  50.184  1.00  0.00     0.044 C 
HETATM   17  C3  UNL     1      21.655   1.527  49.199  1.00  0.00     0.023 C 
HETATM   18  C2  UNL     1      21.957   2.959  48.902  1.00  0.00     0.213 C 
HETATM   19  O2  UNL     1      23.218   3.375  49.393  1.00  0.00    -0.331 OA
HETATM   20  C14 UNL     1      25.339   3.136  49.964  1.00  0.00     0.038 A 
HETATM   21  C13 UNL     1      26.385   2.792  50.837  1.00  0.00     0.014 A 
BRANCH  18  22
HETATM   22  S1  UNL     1      21.987   3.209  47.107  1.00  0.00    -0.137 SA
HETATM   23  C1  UNL     1      22.150   4.962  46.678  1.00  0.00     0.093 C 
ENDBRANCH  18  22
ENDBRANCH   1  10
TORSDOF 3
ENDMDL
MODEL 7
REMARK VINA RESULT:      -6.9      3.833      5.943
REMARK  3 active torsions:
REMARK  status: ('A' for Active; 'I' for Inactive)
REMARK    1  A    between atoms: S1_2  and  C2_3 
REMARK    2  A    between atoms: C8_10  and  C9_11 
REMARK    3  A    between atoms: C10_12  and  C12_15 
REMARK       I    between atoms: C12_15  and  N2_16 
ROOT
HETATM    1  C9  UNL     1      24.180   5.101  50.788  1.00  0.00     0.039 C 
HETATM    2  C10 UNL     1      25.327   5.325  50.139  1.00  0.00     0.107 C 
HETATM    3  C11 UNL     1      26.181   4.225  49.720  1.00  0.00     0.104 C 
HETATM    4  N1  UNL     1      26.859   3.357  49.369  1.00  0.00    -0.191 NA
ENDROOT
BRANCH   2   5
HETATM    5  C12 UNL     1      25.774   6.672  49.828  1.00  0.00     0.239 C 
HETATM    6  N2  UNL     1      26.229   7.613  50.792  1.00  0.00    -0.268 NA
HETATM    7  H11 UNL     1      27.109   7.101  51.101  1.00  0.00     0.127 HD
HETATM    8  H12 UNL     1      27.120   7.318  51.255  1.00  0.00     0.127 HD
HETATM    9  O1  UNL     1      25.769   7.062  48.623  1.00  0.00    -0.273 OA
ENDBRANCH   2   5
BRANCH   1  10
HETATM   10  C8  UNL     1      23.708   3.763  51.122  1.00  0.00    -0.034 A 
HETATM   11  C7  UNL     1      22.932   2.910  50.366  1.00  0.00     0.022 A 
HETATM   12  C6  UNL     1      22.535   1.668  50.832  1.00  0.00    -0.014 A 
HETATM   13  C5  UNL     1      21.746   1.116  49.710  1.00  0.00     0.120 C 
HETATM   14  C15 UNL     1      22.942   1.300  52.093  1.00  0.00     0.077 A 
HETATM   15  S2  UNL     1      19.988   1.183  50.085  1.00  0.00    -0.137 SA
HETATM   16  C4  UNL     1      19.641   0.558  51.721  1.00  0.00     0.044 C 
HETATM   17  C3  UNL     1      20.309  -0.117  52.645  1.00  0.00     0.023 C 
HETATM   18  C2  UNL     1      21.630  -0.747  52.945  1.00  0.00     0.213 C 
HETATM   19  O2  UNL     1      22.715   0.153  52.824  1.00  0.00    -0.331 OA
HETATM   20  C14 UNL     1      23.729   2.114  52.915  1.00  0.00     0.038 A 
HETATM   21  C13 UNL     1      24.112   3.367  52.406  1.00  0.00     0.014 A 
BRANCH  18  22
HETATM   22  S1  UNL     1      21.637  -1.350  54.654  1.00  0.00    -0.137 SA
HETATM   23  C1  UNL     1      23.281  -1.216  55.404  1.00  0.00     0.093 C 
ENDBRANCH  18  22
ENDBRANCH   1  10
TORSDOF 3
ENDMDL
MODEL 8
REMARK VINA RESULT:      -6.8      2.500      3.497
REMARK  3 active torsions:
REMARK  status: ('A' for Active; 'I' for Inactive)
REMARK    1  A    between atoms: S1_2  and  C2_3 
REMARK    2  A    between atoms: C8_10  and  C9_11 
REMARK    3  A    between atoms: C10_12  and  C12_15 
REMARK       I    between atoms: C12_15  and  N2_16 
ROOT
HETATM    1  C9  UNL     1      24.946   0.511  53.156  1.00  0.00     0.039 C 
HETATM    2  C10 UNL     1      26.280   0.545  53.079  1.00  0.00     0.107 C 
HETATM    3  C11 UNL     1      26.965   1.615  52.371  1.00  0.00     0.104 C 
HETATM    4  N1  UNL     1      27.520   2.469  51.824  1.00  0.00    -0.191 NA
ENDROOT
BRANCH   2   5
HETATM    5  C12 UNL     1      27.103  -0.483  53.692  1.00  0.00     0.239 C 
HETATM    6  N2  UNL     1      27.492  -1.692  53.052  1.00  0.00    -0.268 NA
HETATM    7  H11 UNL     1      28.108  -1.271  52.293  1.00  0.00     0.127 HD
HETATM    8  H12 UNL     1      28.128  -1.530  52.238  1.00  0.00     0.127 HD
HETATM    9  O1  UNL     1      27.516  -0.318  54.878  1.00  0.00    -0.273 OA
ENDBRANCH   2   5
BRANCH   1  10
HETATM   10  C8  UNL     1      24.092   1.522  52.544  1.00  0.00    -0.034 A 
HETATM   11  C7  UNL     1      23.272   1.403  51.442  1.00  0.00     0.022 A 
HETATM   12  C6  UNL     1      22.533   2.469  50.955  1.00  0.00    -0.014 A 
HETATM   13  C5  UNL     1      21.815   1.890  49.799  1.00  0.00     0.120 C 
HETATM   14  C15 UNL     1      22.644   3.673  51.611  1.00  0.00     0.077 A 
HETATM   15  S2  UNL     1      22.560   2.441  48.257  1.00  0.00    -0.137 SA
HETATM   16  C4  UNL     1      22.837   4.205  48.254  1.00  0.00     0.044 C 
HETATM   17  C3  UNL     1      22.462   5.230  49.005  1.00  0.00     0.023 C 
HETATM   18  C2  UNL     1      21.661   5.600  50.210  1.00  0.00     0.213 C 
HETATM   19  O2  UNL     1      22.050   4.896  51.374  1.00  0.00    -0.331 OA
HETATM   20  C14 UNL     1      23.456   3.866  52.733  1.00  0.00     0.038 A 
HETATM   21  C13 UNL     1      24.189   2.759  53.197  1.00  0.00     0.014 A 
BRANCH  18  22
HETATM   22  S1  UNL     1      21.883   7.363  50.565  1.00  0.00    -0.137 SA
HETATM   23  C1  UNL     1      22.316   8.297  49.072  1.00  0.00     0.093 C 
ENDBRANCH  18  22
ENDBRANCH   1  10
TORSDOF 3
ENDMDL
MODEL 9
REMARK VINA RESULT:      -6.7      3.611      5.377
REMARK  3 active torsions:
REMARK  status: ('A' for Active; 'I' for Inactive)
REMARK    1  A    between atoms: S1_2  and  C2_3 
REMARK    2  A    between atoms: C8_10  and  C9_11 
REMARK    3  A    between atoms: C10_12  and  C12_15 
REMARK       I    between atoms: C12_15  and  N2_16 
ROOT
HETATM    1  C9  UNL     1      21.483   0.132  52.726  1.00  0.00     0.039 C 
HETATM    2  C10 UNL     1      22.379  -0.466  53.517  1.00  0.00     0.107 C 
HETATM    3  C11 UNL     1      23.807  -0.317  53.282  1.00  0.00     0.104 C 
HETATM    4  N1  UNL     1      24.944  -0.192  53.113  1.00  0.00    -0.191 NA
ENDROOT
BRANCH   2   5
HETATM    5  C12 UNL     1      21.972  -1.294  54.638  1.00  0.00     0.239 C 
HETATM    6  N2  UNL     1      20.661  -1.812  54.824  1.00  0.00    -0.268 NA
HETATM    7  H11 UNL     1      20.635  -2.465  53.984  1.00  0.00     0.127 HD
HETATM    8  H12 UNL     1      20.394  -2.506  54.088  1.00  0.00     0.127 HD
HETATM    9  O1  UNL     1      22.823  -1.589  55.530  1.00  0.00    -0.273 OA
ENDBRANCH   2   5
BRANCH   1  10
HETATM   10  C8  UNL     1      21.860   0.961  51.587  1.00  0.00    -0.034 A 
HETATM   11  C7  UNL     1      22.594   2.128  51.578  1.00  0.00     0.022 A 
HETATM   12  C6  UNL     1      22.852   2.827  50.410  1.00  0.00    -0.014 A 
HETATM   13  C5  UNL     1      23.658   3.978  50.869  1.00  0.00     0.120 C 
HETATM   14  C15 UNL     1      22.345   2.317  49.238  1.00  0.00     0.077 A 
HETATM   15  S2  UNL     1      22.666   5.479  50.873  1.00  0.00    -0.137 SA
HETATM   16  C4  UNL     1      21.754   5.668  49.350  1.00  0.00     0.044 C 
HETATM   17  C3  UNL     1      21.770   5.099  48.152  1.00  0.00     0.023 C 
HETATM   18  C2  UNL     1      22.452   4.052  47.335  1.00  0.00     0.213 C 
HETATM   19  O2  UNL     1      22.426   2.771  47.938  1.00  0.00    -0.331 OA
HETATM   20  C14 UNL     1      21.592   1.140  49.172  1.00  0.00     0.038 A 
HETATM   21  C13 UNL     1      21.353   0.459  50.380  1.00  0.00     0.014 A 
BRANCH  18  22
HETATM   22  S1  UNL     1      21.614   3.895  45.736  1.00  0.00    -0.137 SA
HETATM   23  C1  UNL     1      20.173   4.988  45.625  1.00  0.00     0.093 C 
ENDBRANCH  18  22
ENDBRANCH   1  10
TORSDOF 3
ENDMDL
