MODEL 1
REMARK VINA RESULT:      -9.1      0.000      0.000
REMARK  4 active torsions:
REMARK  status: ('A' for Active; 'I' for Inactive)
REMARK    1  A    between atoms: N2_2  and  C1_3 
REMARK    2  A    between atoms: C6_8  and  C7_9 
REMARK    3  A    between atoms: C8_10  and  C9_11 
REMARK    4  A    between atoms: C12_14  and  C13_15 
ROOT
HETATM    1  C9  UNL     1      25.609   1.988  51.248  1.00  0.00    -0.036 A 
HETATM    2  C10 UNL     1      26.525   2.740  50.549  1.00  0.00     0.012 A 
HETATM    3  C11 UNL     1      26.089   3.825  49.818  1.00  0.00     0.010 A 
HETATM    4  C12 UNL     1      24.739   4.159  49.786  1.00  0.00    -0.035 A 
HETATM    5  C18 UNL     1      23.848   3.369  50.510  1.00  0.00     0.010 A 
HETATM    6  C19 UNL     1      24.263   2.270  51.253  1.00  0.00     0.012 A 
ENDROOT
BRANCH   1   7
HETATM    7  C8  UNL     1      26.082   0.842  52.017  1.00  0.00     0.008 C 
HETATM    8  C7  UNL     1      26.880   0.932  53.052  1.00  0.00    -0.011 C 
BRANCH   8   9
HETATM    9  C6  UNL     1      27.392  -0.218  53.872  1.00  0.00     0.085 C 
HETATM   10  C1  UNL     1      28.815   0.135  54.192  1.00  0.00     0.067 C 
HETATM   11  C2  UNL     1      29.888  -0.570  53.845  1.00  0.00     0.031 C 
HETATM   12  C3  UNL     1      29.681  -1.800  53.084  1.00  0.00     0.014 C 
HETATM   13  C4  UNL     1      28.454  -2.282  53.149  1.00  0.00    -0.029 C 
HETATM   14  C5  UNL     1      27.444  -1.440  53.018  1.00  0.00     0.000 C 
BRANCH  10  15
HETATM   15  N2  UNL     1      28.787   1.352  54.927  1.00  0.00    -0.162 NA
HETATM   16  N1  UNL     1      29.613   2.285  54.695  1.00  0.00    -0.203 NA
HETATM   17  H1  UNL     1      30.353   2.253  53.985  1.00  0.00     0.212 HD
ENDBRANCH  10  15
ENDBRANCH   8   9
ENDBRANCH   1   7
BRANCH   4  18
HETATM   18  C13 UNL     1      24.168   5.297  49.038  1.00  0.00     0.119 C 
HETATM   19  C14 UNL     1      24.911   6.593  49.293  1.00  0.00     0.060 C 
HETATM   20  C15 UNL     1      24.872   6.851  50.766  1.00  0.00     0.272 C 
HETATM   21  N3  UNL     1      23.963   7.899  51.145  1.00  0.00     0.092 N 
HETATM   22  C16 UNL     1      22.725   7.917  50.434  1.00  0.00     0.371 C 
HETATM   23  H15 UNL     1      23.794   7.849  52.174  1.00  0.00     0.316 HD
HETATM   24  C17 UNL     1      22.125   6.569  50.218  1.00  0.00     0.246 C 
HETATM   25  O1  UNL     1      21.024   6.146  50.655  1.00  0.00    -0.272 OA
HETATM   26  N4  UNL     1      22.786   5.552  49.441  1.00  0.00    -0.351 N 
HETATM   27  H18 UNL     1      22.155   4.804  49.062  1.00  0.00     0.163 HD
ENDBRANCH   4  18
TORSDOF 4
ENDMDL
MODEL 2
REMARK VINA RESULT:      -8.5      4.340      6.780
REMARK  4 active torsions:
REMARK  status: ('A' for Active; 'I' for Inactive)
REMARK    1  A    between atoms: N2_2  and  C1_3 
REMARK    2  A    between atoms: C6_8  and  C7_9 
REMARK    3  A    between atoms: C8_10  and  C9_11 
REMARK    4  A    between atoms: C12_14  and  C13_15 
ROOT
HETATM    1  C9  UNL     1      27.158   5.695  48.548  1.00  0.00    -0.036 A 
HETATM    2  C10 UNL     1      25.989   6.408  48.411  1.00  0.00     0.012 A 
HETATM    3  C11 UNL     1      24.794   5.819  48.763  1.00  0.00     0.010 A 
HETATM    4  C12 UNL     1      24.764   4.518  49.253  1.00  0.00    -0.035 A 
HETATM    5  C18 UNL     1      25.973   3.834  49.376  1.00  0.00     0.010 A 
HETATM    6  C19 UNL     1      27.190   4.406  49.026  1.00  0.00     0.012 A 
ENDROOT
BRANCH   1   7
HETATM    7  C8  UNL     1      28.417   6.329  48.171  1.00  0.00     0.008 C 
HETATM    8  C7  UNL     1      29.571   5.710  48.146  1.00  0.00    -0.011 C 
BRANCH   8   9
HETATM    9  C6  UNL     1      30.889   6.322  47.766  1.00  0.00     0.085 C 
HETATM   10  C1  UNL     1      31.536   6.692  49.069  1.00  0.00     0.067 C 
HETATM   11  C2  UNL     1      31.890   7.919  49.441  1.00  0.00     0.031 C 
HETATM   12  C3  UNL     1      31.633   9.016  48.511  1.00  0.00     0.014 C 
HETATM   13  C4  UNL     1      31.433   8.637  47.263  1.00  0.00    -0.029 C 
HETATM   14  C5  UNL     1      30.642   7.601  47.042  1.00  0.00     0.000 C 
BRANCH  10  15
HETATM   15  N2  UNL     1      31.692   5.489  49.813  1.00  0.00    -0.162 NA
HETATM   16  N1  UNL     1      31.595   5.474  51.076  1.00  0.00    -0.203 NA
HETATM   17  H1  UNL     1      31.403   6.295  51.661  1.00  0.00     0.212 HD
ENDBRANCH  10  15
ENDBRANCH   8   9
ENDBRANCH   1   7
BRANCH   4  18
HETATM   18  C13 UNL     1      23.543   3.795  49.659  1.00  0.00     0.119 C 
HETATM   19  C14 UNL     1      22.729   4.558  50.685  1.00  0.00     0.060 C 
HETATM   20  C15 UNL     1      23.614   4.810  51.864  1.00  0.00     0.272 C 
HETATM   21  N3  UNL     1      23.313   3.983  53.001  1.00  0.00     0.092 N 
HETATM   22  C16 UNL     1      22.983   2.627  52.697  1.00  0.00     0.371 C 
HETATM   23  H15 UNL     1      24.110   4.024  53.674  1.00  0.00     0.316 HD
HETATM   24  C17 UNL     1      23.839   2.013  51.641  1.00  0.00     0.246 C 
HETATM   25  O1  UNL     1      24.609   1.027  51.763  1.00  0.00    -0.272 OA
HETATM   26  N4  UNL     1      23.872   2.518  50.292  1.00  0.00    -0.351 N 
HETATM   27  H18 UNL     1      24.207   1.833  49.571  1.00  0.00     0.163 HD
ENDBRANCH   4  18
TORSDOF 4
ENDMDL
MODEL 3
REMARK VINA RESULT:      -8.4      4.175      5.782
REMARK  4 active torsions:
REMARK  status: ('A' for Active; 'I' for Inactive)
REMARK    1  A    between atoms: N2_2  and  C1_3 
REMARK    2  A    between atoms: C6_8  and  C7_9 
REMARK    3  A    between atoms: C8_10  and  C9_11 
REMARK    4  A    between atoms: C12_14  and  C13_15 
ROOT
HETATM    1  C9  UNL     1      27.296   5.100  48.776  1.00  0.00    -0.036 A 
HETATM    2  C10 UNL     1      28.607   5.044  48.359  1.00  0.00     0.012 A 
HETATM    3  C11 UNL     1      29.206   6.182  47.864  1.00  0.00     0.010 A 
HETATM    4  C12 UNL     1      28.499   7.377  47.786  1.00  0.00    -0.035 A 
HETATM    5  C18 UNL     1      27.175   7.388  48.220  1.00  0.00     0.010 A 
HETATM    6  C19 UNL     1      26.548   6.253  48.722  1.00  0.00     0.012 A 
ENDROOT
BRANCH   1   7
HETATM    7  C8  UNL     1      26.671   3.889  49.297  1.00  0.00     0.008 C 
HETATM    8  C7  UNL     1      25.945   3.849  50.386  1.00  0.00    -0.011 C 
BRANCH   8   9
HETATM    9  C6  UNL     1      25.285   2.627  50.959  1.00  0.00     0.085 C 
HETATM   10  C1  UNL     1      24.745   3.064  52.289  1.00  0.00     0.067 C 
HETATM   11  C2  UNL     1      25.083   2.555  53.470  1.00  0.00     0.031 C 
HETATM   12  C3  UNL     1      26.065   1.474  53.494  1.00  0.00     0.014 C 
HETATM   13  C4  UNL     1      26.228   0.861  52.336  1.00  0.00    -0.029 C 
HETATM   14  C5  UNL     1      26.326   1.599  51.245  1.00  0.00     0.000 C 
BRANCH  10  15
HETATM   15  N2  UNL     1      23.818   4.113  52.038  1.00  0.00    -0.162 NA
HETATM   16  N1  UNL     1      23.689   5.088  52.836  1.00  0.00    -0.203 NA
HETATM   17  H1  UNL     1      24.218   5.211  53.706  1.00  0.00     0.212 HD
ENDBRANCH  10  15
ENDBRANCH   8   9
ENDBRANCH   1   7
BRANCH   4  18
HETATM   18  C13 UNL     1      29.045   8.650  47.275  1.00  0.00     0.119 C 
HETATM   19  C14 UNL     1      30.447   8.927  47.779  1.00  0.00     0.060 C 
HETATM   20  C15 UNL     1      30.394   8.933  49.274  1.00  0.00     0.272 C 
HETATM   21  N3  UNL     1      30.484  10.248  49.850  1.00  0.00     0.092 N 
HETATM   22  C16 UNL     1      29.764  11.267  49.156  1.00  0.00     0.371 C 
HETATM   23  H15 UNL     1      30.185  10.204  50.850  1.00  0.00     0.316 HD
HETATM   24  C17 UNL     1      28.415  10.845  48.680  1.00  0.00     0.246 C 
HETATM   25  O1  UNL     1      27.303  11.319  49.025  1.00  0.00    -0.272 OA
HETATM   26  N4  UNL     1      28.238   9.786  47.719  1.00  0.00    -0.351 N 
HETATM   27  H18 UNL     1      27.326   9.806  47.201  1.00  0.00     0.163 HD
ENDBRANCH   4  18
TORSDOF 4
ENDMDL
MODEL 4
REMARK VINA RESULT:      -8.3      3.659      4.921
REMARK  4 active torsions:
REMARK  status: ('A' for Active; 'I' for Inactive)
REMARK    1  A    between atoms: N2_2  and  C1_3 
REMARK    2  A    between atoms: C6_8  and  C7_9 
REMARK    3  A    between atoms: C8_10  and  C9_11 
REMARK    4  A    between atoms: C12_14  and  C13_15 
ROOT
HETATM    1  C9  UNL     1      23.689   1.287  52.662  1.00  0.00    -0.036 A 
HETATM    2  C10 UNL     1      23.006   0.103  52.819  1.00  0.00     0.012 A 
HETATM    3  C11 UNL     1      21.633   0.097  52.697  1.00  0.00     0.010 A 
HETATM    4  C12 UNL     1      20.941   1.271  52.419  1.00  0.00    -0.035 A 
HETATM    5  C18 UNL     1      21.675   2.446  52.268  1.00  0.00     0.010 A 
HETATM    6  C19 UNL     1      23.060   2.478  52.387  1.00  0.00     0.012 A 
ENDROOT
BRANCH   1   7
HETATM    7  C8  UNL     1      25.143   1.282  52.793  1.00  0.00     0.008 C 
HETATM    8  C7  UNL     1      25.923   0.366  52.276  1.00  0.00    -0.011 C 
BRANCH   8   9
HETATM    9  C6  UNL     1      27.420   0.321  52.386  1.00  0.00     0.085 C 
HETATM   10  C1  UNL     1      27.698  -0.597  53.540  1.00  0.00     0.067 C 
HETATM   11  C2  UNL     1      28.344  -0.270  54.656  1.00  0.00     0.031 C 
HETATM   12  C3  UNL     1      28.834   1.100  54.786  1.00  0.00     0.014 C 
HETATM   13  C4  UNL     1      28.923   1.758  53.645  1.00  0.00    -0.029 C 
HETATM   14  C5  UNL     1      27.920   1.666  52.789  1.00  0.00     0.000 C 
BRANCH  10  15
HETATM   15  N2  UNL     1      27.142  -1.863  53.208  1.00  0.00    -0.162 NA
HETATM   16  N1  UNL     1      27.865  -2.815  52.789  1.00  0.00    -0.203 NA
HETATM   17  H1  UNL     1      28.881  -2.767  52.653  1.00  0.00     0.212 HD
ENDBRANCH  10  15
ENDBRANCH   8   9
ENDBRANCH   1   7
BRANCH   4  18
HETATM   18  C13 UNL     1      19.476   1.374  52.269  1.00  0.00     0.119 C 
HETATM   19  C14 UNL     1      18.941   0.487  51.164  1.00  0.00     0.060 C 
HETATM   20  C15 UNL     1      19.634   0.878  49.897  1.00  0.00     0.272 C 
HETATM   21  N3  UNL     1      18.805   1.628  48.992  1.00  0.00     0.092 N 
HETATM   22  C16 UNL     1      17.950   2.592  49.607  1.00  0.00     0.371 C 
HETATM   23  H15 UNL     1      19.409   2.080  48.270  1.00  0.00     0.316 HD
HETATM   24  C17 UNL     1      18.595   3.366  50.706  1.00  0.00     0.246 C 
HETATM   25  O1  UNL     1      18.800   4.606  50.747  1.00  0.00    -0.272 OA
HETATM   26  N4  UNL     1      19.078   2.734  51.908  1.00  0.00    -0.351 N 
HETATM   27  H18 UNL     1      19.180   3.372  52.734  1.00  0.00     0.163 HD
ENDBRANCH   4  18
TORSDOF 4
ENDMDL
MODEL 5
REMARK VINA RESULT:      -8.2      4.207      6.588
REMARK  4 active torsions:
REMARK  status: ('A' for Active; 'I' for Inactive)
REMARK    1  A    between atoms: N2_2  and  C1_3 
REMARK    2  A    between atoms: C6_8  and  C7_9 
REMARK    3  A    between atoms: C8_10  and  C9_11 
REMARK    4  A    between atoms: C12_14  and  C13_15 
ROOT
HETATM    1  C9  UNL     1      26.888   5.424  48.736  1.00  0.00    -0.036 A 
HETATM    2  C10 UNL     1      25.718   6.144  48.808  1.00  0.00     0.012 A 
HETATM    3  C11 UNL     1      24.580   5.535  49.292  1.00  0.00     0.010 A 
HETATM    4  C12 UNL     1      24.610   4.208  49.707  1.00  0.00    -0.035 A 
HETATM    5  C18 UNL     1      25.817   3.518  49.617  1.00  0.00     0.010 A 
HETATM    6  C19 UNL     1      26.978   4.109  49.131  1.00  0.00     0.012 A 
ENDROOT
BRANCH   1   7
HETATM    7  C8  UNL     1      28.086   6.078  48.221  1.00  0.00     0.008 C 
HETATM    8  C7  UNL     1      29.290   5.565  48.290  1.00  0.00    -0.011 C 
BRANCH   8   9
HETATM    9  C6  UNL     1      30.549   6.202  47.774  1.00  0.00     0.085 C 
HETATM   10  C1  UNL     1      31.302   6.624  49.002  1.00  0.00     0.067 C 
HETATM   11  C2  UNL     1      31.651   7.870  49.310  1.00  0.00     0.031 C 
HETATM   12  C3  UNL     1      31.278   8.934  48.382  1.00  0.00     0.014 C 
HETATM   13  C4  UNL     1      30.975   8.517  47.167  1.00  0.00    -0.029 C 
HETATM   14  C5  UNL     1      30.198   7.454  47.046  1.00  0.00     0.000 C 
BRANCH  10  15
HETATM   15  N2  UNL     1      31.561   5.447  49.757  1.00  0.00    -0.162 NA
HETATM   16  N1  UNL     1      31.602   5.467  51.023  1.00  0.00    -0.203 NA
HETATM   17  H1  UNL     1      31.459   6.301  51.604  1.00  0.00     0.212 HD
ENDBRANCH  10  15
ENDBRANCH   8   9
ENDBRANCH   1   7
BRANCH   4  18
HETATM   18  C13 UNL     1      23.452   3.463  50.240  1.00  0.00     0.119 C 
HETATM   19  C14 UNL     1      22.916   2.441  49.257  1.00  0.00     0.060 C 
HETATM   20  C15 UNL     1      22.547   3.171  48.005  1.00  0.00     0.272 C 
HETATM   21  N3  UNL     1      21.129   3.328  47.823  1.00  0.00     0.092 N 
HETATM   22  C16 UNL     1      20.393   3.629  49.009  1.00  0.00     0.371 C 
HETATM   23  H15 UNL     1      20.956   4.051  47.091  1.00  0.00     0.316 HD
HETATM   24  C17 UNL     1      21.057   4.620  49.905  1.00  0.00     0.246 C 
HETATM   25  O1  UNL     1      20.631   5.756  50.233  1.00  0.00    -0.272 OA
HETATM   26  N4  UNL     1      22.333   4.360  50.522  1.00  0.00    -0.351 N 
HETATM   27  H18 UNL     1      22.536   4.933  51.377  1.00  0.00     0.163 HD
ENDBRANCH   4  18
TORSDOF 4
ENDMDL
MODEL 6
REMARK VINA RESULT:      -8.0      2.789      8.378
REMARK  4 active torsions:
REMARK  status: ('A' for Active; 'I' for Inactive)
REMARK    1  A    between atoms: N2_2  and  C1_3 
REMARK    2  A    between atoms: C6_8  and  C7_9 
REMARK    3  A    between atoms: C8_10  and  C9_11 
REMARK    4  A    between atoms: C12_14  and  C13_15 
ROOT
HETATM    1  C9  UNL     1      24.954   2.529  51.801  1.00  0.00    -0.036 A 
HETATM    2  C10 UNL     1      25.558   1.420  51.254  1.00  0.00     0.012 A 
HETATM    3  C11 UNL     1      26.274   0.571  52.070  1.00  0.00     0.010 A 
HETATM    4  C12 UNL     1      26.388   0.827  53.432  1.00  0.00    -0.035 A 
HETATM    5  C18 UNL     1      25.760   1.961  53.942  1.00  0.00     0.010 A 
HETATM    6  C19 UNL     1      25.033   2.833  53.140  1.00  0.00     0.012 A 
ENDROOT
BRANCH   1   7
HETATM    7  C8  UNL     1      24.199   3.421  50.928  1.00  0.00     0.008 C 
HETATM    8  C7  UNL     1      24.629   4.591  50.526  1.00  0.00    -0.011 C 
BRANCH   8   9
HETATM    9  C6  UNL     1      23.887   5.541  49.629  1.00  0.00     0.085 C 
HETATM   10  C1  UNL     1      24.263   6.910  50.117  1.00  0.00     0.067 C 
HETATM   11  C2  UNL     1      23.422   7.826  50.585  1.00  0.00     0.031 C 
HETATM   12  C3  UNL     1      22.001   7.488  50.637  1.00  0.00     0.014 C 
HETATM   13  C4  UNL     1      21.655   6.471  49.871  1.00  0.00    -0.029 C 
HETATM   14  C5  UNL     1      22.423   5.396  49.871  1.00  0.00     0.000 C 
BRANCH  10  15
HETATM   15  N2  UNL     1      25.674   7.027  49.980  1.00  0.00    -0.162 NA
HETATM   16  N1  UNL     1      26.352   7.786  50.735  1.00  0.00    -0.203 NA
HETATM   17  H1  UNL     1      25.965   8.366  51.487  1.00  0.00     0.212 HD
ENDBRANCH  10  15
ENDBRANCH   8   9
ENDBRANCH   1   7
BRANCH   4  18
HETATM   18  C13 UNL     1      27.129  -0.015  54.392  1.00  0.00     0.119 C 
HETATM   19  C14 UNL     1      28.428   0.622  54.843  1.00  0.00     0.060 C 
HETATM   20  C15 UNL     1      29.249   0.884  53.620  1.00  0.00     0.272 C 
HETATM   21  N3  UNL     1      30.352  -0.025  53.459  1.00  0.00     0.092 N 
HETATM   22  C16 UNL     1      30.073  -1.385  53.794  1.00  0.00     0.371 C 
HETATM   23  H15 UNL     1      30.713   0.045  52.482  1.00  0.00     0.316 HD
HETATM   24  C17 UNL     1      28.744  -1.870  53.323  1.00  0.00     0.246 C 
HETATM   25  O1  UNL     1      28.517  -2.794  52.501  1.00  0.00    -0.272 OA
HETATM   26  N4  UNL     1      27.508  -1.292  53.789  1.00  0.00    -0.351 N 
HETATM   27  H18 UNL     1      26.665  -1.908  53.685  1.00  0.00     0.163 HD
ENDBRANCH   4  18
TORSDOF 4
ENDMDL
MODEL 7
REMARK VINA RESULT:      -7.9      5.375      6.430
REMARK  4 active torsions:
REMARK  status: ('A' for Active; 'I' for Inactive)
REMARK    1  A    between atoms: N2_2  and  C1_3 
REMARK    2  A    between atoms: C6_8  and  C7_9 
REMARK    3  A    between atoms: C8_10  and  C9_11 
REMARK    4  A    between atoms: C12_14  and  C13_15 
ROOT
HETATM    1  C9  UNL     1      21.497   0.223  52.195  1.00  0.00    -0.036 A 
HETATM    2  C10 UNL     1      20.454  -0.165  53.005  1.00  0.00     0.012 A 
HETATM    3  C11 UNL     1      19.167  -0.120  52.514  1.00  0.00     0.010 A 
HETATM    4  C12 UNL     1      18.919   0.311  51.215  1.00  0.00    -0.035 A 
HETATM    5  C18 UNL     1      20.006   0.693  50.431  1.00  0.00     0.010 A 
HETATM    6  C19 UNL     1      21.313   0.658  50.903  1.00  0.00     0.012 A 
ENDROOT
BRANCH   1   7
HETATM    7  C8  UNL     1      22.855   0.171  52.725  1.00  0.00     0.008 C 
HETATM    8  C7  UNL     1      23.665   1.200  52.769  1.00  0.00    -0.011 C 
BRANCH   8   9
HETATM    9  C6  UNL     1      25.068   1.193  53.304  1.00  0.00     0.085 C 
HETATM   10  C1  UNL     1      25.948   1.195  52.088  1.00  0.00     0.067 C 
HETATM   11  C2  UNL     1      26.832   0.255  51.766  1.00  0.00     0.031 C 
HETATM   12  C3  UNL     1      26.973  -0.888  52.665  1.00  0.00     0.014 C 
HETATM   13  C4  UNL     1      26.495  -0.689  53.879  1.00  0.00    -0.029 C 
HETATM   14  C5  UNL     1      25.318  -0.101  54.001  1.00  0.00     0.000 C 
BRANCH  10  15
HETATM   15  N2  UNL     1      25.652   2.382  51.362  1.00  0.00    -0.162 NA
HETATM   16  N1  UNL     1      26.513   3.300  51.215  1.00  0.00    -0.203 NA
HETATM   17  H1  UNL     1      27.467   3.278  51.590  1.00  0.00     0.212 HD
ENDBRANCH  10  15
ENDBRANCH   8   9
ENDBRANCH   1   7
BRANCH   4  18
HETATM   18  C13 UNL     1      17.583   0.397  50.593  1.00  0.00     0.119 C 
HETATM   19  C14 UNL     1      17.251   1.798  50.121  1.00  0.00     0.060 C 
HETATM   20  C15 UNL     1      17.346   2.707  51.305  1.00  0.00     0.272 C 
HETATM   21  N3  UNL     1      16.068   3.131  51.812  1.00  0.00     0.092 N 
HETATM   22  C16 UNL     1      15.054   2.126  51.825  1.00  0.00     0.371 C 
HETATM   23  H15 UNL     1      16.196   3.536  52.766  1.00  0.00     0.316 HD
HETATM   24  C17 UNL     1      15.530   0.785  52.273  1.00  0.00     0.246 C 
HETATM   25  O1  UNL     1      15.151   0.141  53.284  1.00  0.00    -0.272 OA
HETATM   26  N4  UNL     1      16.533   0.047  51.549  1.00  0.00    -0.351 N 
HETATM   27  H18 UNL     1      16.538  -0.987  51.728  1.00  0.00     0.163 HD
ENDBRANCH   4  18
TORSDOF 4
ENDMDL
MODEL 8
REMARK VINA RESULT:      -7.7      3.946      5.196
REMARK  4 active torsions:
REMARK  status: ('A' for Active; 'I' for Inactive)
REMARK    1  A    between atoms: N2_2  and  C1_3 
REMARK    2  A    between atoms: C6_8  and  C7_9 
REMARK    3  A    between atoms: C8_10  and  C9_11 
REMARK    4  A    between atoms: C12_14  and  C13_15 
ROOT
HETATM    1  C9  UNL     1      22.393   1.279  52.380  1.00  0.00    -0.036 A 
HETATM    2  C10 UNL     1      21.397   0.331  52.429  1.00  0.00     0.012 A 
HETATM    3  C11 UNL     1      20.088   0.717  52.238  1.00  0.00     0.010 A 
HETATM    4  C12 UNL     1      19.772   2.050  51.996  1.00  0.00    -0.035 A 
HETATM    5  C18 UNL     1      20.813   2.975  51.953  1.00  0.00     0.010 A 
HETATM    6  C19 UNL     1      22.140   2.610  52.144  1.00  0.00     0.012 A 
ENDROOT
BRANCH   1   7
HETATM    7  C8  UNL     1      23.775   0.858  52.584  1.00  0.00     0.008 C 
HETATM    8  C7  UNL     1      24.126  -0.342  52.975  1.00  0.00    -0.011 C 
BRANCH   8   9
HETATM    9  C6  UNL     1      25.533  -0.817  53.199  1.00  0.00     0.085 C 
HETATM   10  C1  UNL     1      25.847  -0.449  54.619  1.00  0.00     0.067 C 
HETATM   11  C2  UNL     1      26.823   0.364  55.015  1.00  0.00     0.031 C 
HETATM   12  C3  UNL     1      27.675   0.959  53.989  1.00  0.00     0.014 C 
HETATM   13  C4  UNL     1      27.637   0.342  52.823  1.00  0.00    -0.029 C 
HETATM   14  C5  UNL     1      26.459  -0.020  52.344  1.00  0.00     0.000 C 
BRANCH  10  15
HETATM   15  N2  UNL     1      24.908  -1.130  55.443  1.00  0.00    -0.162 NA
HETATM   16  N1  UNL     1      25.156  -1.383  56.659  1.00  0.00    -0.203 NA
HETATM   17  H1  UNL     1      26.021  -1.132  57.149  1.00  0.00     0.212 HD
ENDBRANCH  10  15
ENDBRANCH   8   9
ENDBRANCH   1   7
BRANCH   4  18
HETATM   18  C13 UNL     1      18.407   2.569  51.777  1.00  0.00     0.119 C 
HETATM   19  C14 UNL     1      17.603   1.708  50.823  1.00  0.00     0.060 C 
HETATM   20  C15 UNL     1      18.359   1.639  49.534  1.00  0.00     0.272 C 
HETATM   21  N3  UNL     1      17.783   2.435  48.484  1.00  0.00     0.092 N 
HETATM   22  C16 UNL     1      17.279   3.707  48.891  1.00  0.00     0.371 C 
HETATM   23  H15 UNL     1      18.483   2.546  47.717  1.00  0.00     0.316 HD
HETATM   24  C17 UNL     1      18.152   4.428  49.862  1.00  0.00     0.246 C 
HETATM   25  O1  UNL     1      18.730   5.532  49.695  1.00  0.00    -0.272 OA
HETATM   26  N4  UNL     1      18.440   3.899  51.172  1.00  0.00    -0.351 N 
HETATM   27  H18 UNL     1      18.749   4.611  51.878  1.00  0.00     0.163 HD
ENDBRANCH   4  18
TORSDOF 4
ENDMDL
MODEL 9
REMARK VINA RESULT:      -7.6      3.279      4.310
REMARK  4 active torsions:
REMARK  status: ('A' for Active; 'I' for Inactive)
REMARK    1  A    between atoms: N2_2  and  C1_3 
REMARK    2  A    between atoms: C6_8  and  C7_9 
REMARK    3  A    between atoms: C8_10  and  C9_11 
REMARK    4  A    between atoms: C12_14  and  C13_15 
ROOT
HETATM    1  C9  UNL     1      23.246   2.693  50.628  1.00  0.00    -0.036 A 
HETATM    2  C10 UNL     1      23.524   2.481  49.297  1.00  0.00     0.012 A 
HETATM    3  C11 UNL     1      22.842   3.205  48.343  1.00  0.00     0.010 A 
HETATM    4  C12 UNL     1      21.882   4.140  48.716  1.00  0.00    -0.035 A 
HETATM    5  C18 UNL     1      21.635   4.322  50.075  1.00  0.00     0.010 A 
HETATM    6  C19 UNL     1      22.308   3.604  51.056  1.00  0.00     0.012 A 
ENDROOT
BRANCH   1   7
HETATM    7  C8  UNL     1      23.974   1.921  51.630  1.00  0.00     0.008 C 
HETATM    8  C7  UNL     1      24.978   2.389  52.329  1.00  0.00    -0.011 C 
BRANCH   8   9
HETATM    9  C6  UNL     1      25.755   1.632  53.368  1.00  0.00     0.085 C 
HETATM   10  C1  UNL     1      27.014   1.200  52.674  1.00  0.00     0.067 C 
HETATM   11  C2  UNL     1      27.412  -0.056  52.495  1.00  0.00     0.031 C 
HETATM   12  C3  UNL     1      26.561  -1.124  53.015  1.00  0.00     0.014 C 
HETATM   13  C4  UNL     1      25.692  -0.733  53.929  1.00  0.00    -0.029 C 
HETATM   14  C5  UNL     1      25.017   0.383  53.714  1.00  0.00     0.000 C 
BRANCH  10  15
HETATM   15  N2  UNL     1      27.683   2.382  52.253  1.00  0.00    -0.162 NA
HETATM   16  N1  UNL     1      28.696   2.826  52.871  1.00  0.00    -0.203 NA
HETATM   17  H1  UNL     1      29.115   2.393  53.702  1.00  0.00     0.212 HD
ENDBRANCH  10  15
ENDBRANCH   8   9
ENDBRANCH   1   7
BRANCH   4  18
HETATM   18  C13 UNL     1      21.097   4.966  47.777  1.00  0.00     0.119 C 
HETATM   19  C14 UNL     1      19.606   4.724  47.897  1.00  0.00     0.060 C 
HETATM   20  C15 UNL     1      19.365   3.268  47.654  1.00  0.00     0.272 C 
HETATM   21  N3  UNL     1      18.785   2.984  46.369  1.00  0.00     0.092 N 
HETATM   22  C16 UNL     1      19.294   3.764  45.286  1.00  0.00     0.371 C 
HETATM   23  H15 UNL     1      18.885   1.965  46.167  1.00  0.00     0.316 HD
HETATM   24  C17 UNL     1      20.772   3.956  45.315  1.00  0.00     0.246 C 
HETATM   25  O1  UNL     1      21.608   3.565  44.461  1.00  0.00    -0.272 OA
HETATM   26  N4  UNL     1      21.434   4.651  46.390  1.00  0.00    -0.351 N 
HETATM   27  H18 UNL     1      22.382   5.033  46.152  1.00  0.00     0.163 HD
ENDBRANCH   4  18
TORSDOF 4
ENDMDL
