MODEL 1
REMARK VINA RESULT:      -8.4      0.000      0.000
REMARK  1 active torsions:
REMARK  status: ('A' for Active; 'I' for Inactive)
REMARK    1  A    between atoms: C8_12  and  O3_14 
ROOT
HETATM    1  C1  UNL     1      19.504   3.945  47.460  1.00  0.00     0.048 C 
HETATM    2  C2  UNL     1      20.297   3.967  48.542  1.00  0.00     0.063 C 
HETATM    3  C3  UNL     1      21.577   4.749  48.580  1.00  0.00     0.236 C 
HETATM    4  O1  UNL     1      22.629   3.894  48.810  1.00  0.00    -0.356 OA
HETATM    5  P1  UNL     1      24.077   4.869  48.922  1.00  0.00     0.036 P 
HETATM    6  C4  UNL     1      24.768   4.543  50.616  1.00  0.00     0.034 C 
HETATM    7  C5  UNL     1      25.257   3.465  51.215  1.00  0.00     0.034 C 
HETATM    8  C6  UNL     1      25.830   2.455  52.095  1.00  0.00     0.054 C 
HETATM    9  N1  UNL     1      27.141   2.430  52.025  1.00  0.00    -0.264 NA
HETATM   10  C7  UNL     1      28.015   1.434  52.669  1.00  0.00     0.321 C 
HETATM   11  O2  UNL     1      27.511   0.978  53.860  1.00  0.00    -0.331 OA
HETATM   12  C8  UNL     1      26.631  -0.073  53.783  1.00  0.00     0.185 C 
HETATM   13  C9  UNL     1      27.120  -1.237  52.948  1.00  0.00     0.084 C 
HETATM   14  C10 UNL     1      25.264   0.387  53.346  1.00  0.00    -0.013 C 
HETATM   15  C11 UNL     1      24.952   1.606  52.931  1.00  0.00     0.040 C 
HETATM   16  C12 UNL     1      24.249  -0.663  53.419  1.00  0.00     0.067 C 
HETATM   17  C13 UNL     1      22.981  -0.274  54.057  1.00  0.00    -0.020 C 
HETATM   18  C14 UNL     1      21.704  -0.217  53.697  1.00  0.00    -0.083 C 
HETATM   19  C15 UNL     1      20.634   0.245  54.633  1.00  0.00     0.043 C 
HETATM   20  C16 UNL     1      21.146  -0.587  52.367  1.00  0.00     0.079 C 
HETATM   21  C17 UNL     1      20.475   0.595  51.769  1.00  0.00     0.254 C 
HETATM   22  N2  UNL     1      19.884   1.613  51.318  1.00  0.00    -0.403 NA
HETATM   23  C18 UNL     1      19.866   2.031  49.942  1.00  0.00     0.286 C 
HETATM   24  O4  UNL     1      20.233   3.381  49.796  1.00  0.00    -0.336 OA
HETATM   25  H5  UNL     1      25.048   4.260  47.996  1.00  0.00     0.092 HD
ENDROOT
BRANCH  12  26
HETATM   26  O3  UNL     1      26.439  -0.567  55.084  1.00  0.00    -0.362 OA
HETATM   27  H13 UNL     1      25.621  -1.115  55.169  1.00  0.00     0.213 HD
ENDBRANCH  12  26
TORSDOF 1
ENDMDL
MODEL 2
REMARK VINA RESULT:      -7.7      2.215      5.379
REMARK  1 active torsions:
REMARK  status: ('A' for Active; 'I' for Inactive)
REMARK    1  A    between atoms: C8_12  and  O3_14 
ROOT
HETATM    1  C1  UNL     1      24.674   7.034  48.224  1.00  0.00     0.048 C 
HETATM    2  C2  UNL     1      24.251   5.771  48.386  1.00  0.00     0.063 C 
HETATM    3  C3  UNL     1      22.870   5.333  47.993  1.00  0.00     0.236 C 
HETATM    4  O1  UNL     1      22.209   4.854  49.100  1.00  0.00    -0.356 OA
HETATM    5  P1  UNL     1      20.642   4.288  48.566  1.00  0.00     0.036 P 
HETATM    6  C4  UNL     1      20.585   2.485  49.011  1.00  0.00     0.034 C 
HETATM    7  C5  UNL     1      20.608   1.824  50.161  1.00  0.00     0.034 C 
HETATM    8  C6  UNL     1      20.616   0.866  51.260  1.00  0.00     0.054 C 
HETATM    9  N1  UNL     1      19.400   0.561  51.653  1.00  0.00    -0.264 NA
HETATM   10  C7  UNL     1      19.061  -0.256  52.831  1.00  0.00     0.321 C 
HETATM   11  O2  UNL     1      19.991  -1.232  53.084  1.00  0.00    -0.331 OA
HETATM   12  C8  UNL     1      21.067  -0.858  53.849  1.00  0.00     0.185 C 
HETATM   13  C9  UNL     1      20.704  -0.142  55.132  1.00  0.00     0.084 C 
HETATM   14  C10 UNL     1      22.068  -0.073  53.040  1.00  0.00    -0.013 C 
HETATM   15  C11 UNL     1      21.896   0.356  51.799  1.00  0.00     0.040 C 
HETATM   16  C12 UNL     1      23.311   0.197  53.761  1.00  0.00     0.067 C 
HETATM   17  C13 UNL     1      24.549  -0.072  53.009  1.00  0.00    -0.020 C 
HETATM   18  C14 UNL     1      25.600   0.634  52.611  1.00  0.00    -0.083 C 
HETATM   19  C15 UNL     1      26.721   0.020  51.834  1.00  0.00     0.043 C 
HETATM   20  C16 UNL     1      25.834   2.083  52.857  1.00  0.00     0.079 C 
HETATM   21  C17 UNL     1      25.949   2.791  51.556  1.00  0.00     0.254 C 
HETATM   22  N2  UNL     1      26.079   3.342  50.430  1.00  0.00    -0.403 NA
HETATM   23  C18 UNL     1      25.585   4.645  50.073  1.00  0.00     0.286 C 
HETATM   24  O4  UNL     1      24.831   4.616  48.886  1.00  0.00    -0.336 OA
HETATM   25  H5  UNL     1      19.657   4.927  49.455  1.00  0.00     0.092 HD
ENDROOT
BRANCH  12  26
HETATM   26  O3  UNL     1      21.753  -2.025  54.223  1.00  0.00    -0.362 OA
HETATM   27  H13 UNL     1      21.707  -2.203  55.194  1.00  0.00     0.213 HD
ENDBRANCH  12  26
TORSDOF 1
ENDMDL
MODEL 3
REMARK VINA RESULT:      -7.4      2.414      7.982
REMARK  1 active torsions:
REMARK  status: ('A' for Active; 'I' for Inactive)
REMARK    1  A    between atoms: C8_12  and  O3_14 
ROOT
HETATM    1  C1  UNL     1      26.716  -1.238  52.933  1.00  0.00     0.048 C 
HETATM    2  C2  UNL     1      25.755  -0.325  53.134  1.00  0.00     0.063 C 
HETATM    3  C3  UNL     1      24.460  -0.660  53.814  1.00  0.00     0.236 C 
HETATM    4  O1  UNL     1      23.414  -0.408  52.958  1.00  0.00    -0.356 OA
HETATM    5  P1  UNL     1      21.935  -0.742  53.831  1.00  0.00     0.036 P 
HETATM    6  C4  UNL     1      20.985   0.855  53.833  1.00  0.00     0.034 C 
HETATM    7  C5  UNL     1      20.441   1.598  52.878  1.00  0.00     0.034 C 
HETATM    8  C6  UNL     1      19.765   2.585  52.045  1.00  0.00     0.054 C 
HETATM    9  N1  UNL     1      18.485   2.322  51.914  1.00  0.00    -0.264 NA
HETATM   10  C7  UNL     1      17.552   3.031  51.022  1.00  0.00     0.321 C 
HETATM   11  O2  UNL     1      17.867   4.358  50.872  1.00  0.00    -0.331 OA
HETATM   12  C8  UNL     1      18.782   4.655  49.893  1.00  0.00     0.185 C 
HETATM   13  C9  UNL     1      18.478   4.038  48.545  1.00  0.00     0.084 C 
HETATM   14  C10 UNL     1      20.186   4.341  50.342  1.00  0.00    -0.013 C 
HETATM   15  C11 UNL     1      20.521   3.715  51.461  1.00  0.00     0.040 C 
HETATM   16  C12 UNL     1      21.210   4.803  49.406  1.00  0.00     0.067 C 
HETATM   17  C13 UNL     1      22.342   5.525  50.013  1.00  0.00    -0.020 C 
HETATM   18  C14 UNL     1      23.658   5.361  50.079  1.00  0.00    -0.083 C 
HETATM   19  C15 UNL     1      24.542   6.322  50.806  1.00  0.00     0.043 C 
HETATM   20  C16 UNL     1      24.440   4.251  49.469  1.00  0.00     0.079 C 
HETATM   21  C17 UNL     1      25.160   3.512  50.537  1.00  0.00     0.254 C 
HETATM   22  N2  UNL     1      25.783   2.940  51.473  1.00  0.00    -0.403 NA
HETATM   23  C18 UNL     1      26.013   1.525  51.582  1.00  0.00     0.286 C 
HETATM   24  O4  UNL     1      25.630   1.024  52.840  1.00  0.00    -0.336 OA
HETATM   25  H5  UNL     1      21.152  -1.645  52.969  1.00  0.00     0.092 HD
ENDROOT
BRANCH  12  26
HETATM   26  O3  UNL     1      18.773   6.047  49.707  1.00  0.00    -0.362 OA
HETATM   27  H13 UNL     1      18.277   6.525  50.416  1.00  0.00     0.213 HD
ENDBRANCH  12  26
TORSDOF 1
ENDMDL
MODEL 4
REMARK VINA RESULT:      -7.3      2.310      6.547
REMARK  1 active torsions:
REMARK  status: ('A' for Active; 'I' for Inactive)
REMARK    1  A    between atoms: C8_12  and  O3_14 
ROOT
HETATM    1  C1  UNL     1      24.539  -1.264  55.768  1.00  0.00     0.048 C 
HETATM    2  C2  UNL     1      24.580  -0.752  54.529  1.00  0.00     0.063 C 
HETATM    3  C3  UNL     1      25.851  -0.239  53.916  1.00  0.00     0.236 C 
HETATM    4  O1  UNL     1      25.704   1.092  53.602  1.00  0.00    -0.356 OA
HETATM    5  P1  UNL     1      27.182   1.609  52.823  1.00  0.00     0.036 P 
HETATM    6  C4  UNL     1      26.675   2.203  51.137  1.00  0.00     0.034 C 
HETATM    7  C5  UNL     1      25.914   3.201  50.708  1.00  0.00     0.034 C 
HETATM    8  C6  UNL     1      25.141   4.197  49.977  1.00  0.00     0.054 C 
HETATM    9  N1  UNL     1      25.869   5.242  49.655  1.00  0.00    -0.264 NA
HETATM   10  C7  UNL     1      25.362   6.486  49.049  1.00  0.00     0.321 C 
HETATM   11  O2  UNL     1      24.294   6.272  48.216  1.00  0.00    -0.331 OA
HETATM   12  C8  UNL     1      23.057   6.243  48.811  1.00  0.00     0.185 C 
HETATM   13  C9  UNL     1      22.776   7.416  49.725  1.00  0.00     0.084 C 
HETATM   14  C10 UNL     1      22.816   4.927  49.508  1.00  0.00    -0.013 C 
HETATM   15  C11 UNL     1      23.710   3.966  49.681  1.00  0.00     0.040 C 
HETATM   16  C12 UNL     1      21.449   4.779  50.006  1.00  0.00     0.067 C 
HETATM   17  C13 UNL     1      20.801   3.493  49.700  1.00  0.00    -0.020 C 
HETATM   18  C14 UNL     1      20.279   2.492  50.400  1.00  0.00    -0.083 C 
HETATM   19  C15 UNL     1      19.681   1.289  49.743  1.00  0.00     0.043 C 
HETATM   20  C16 UNL     1      20.202   2.400  51.884  1.00  0.00     0.079 C 
HETATM   21  C17 UNL     1      20.941   1.197  52.342  1.00  0.00     0.254 C 
HETATM   22  N2  UNL     1      21.546   0.143  52.680  1.00  0.00    -0.403 NA
HETATM   23  C18 UNL     1      22.370  -0.010  53.849  1.00  0.00     0.286 C 
HETATM   24  O4  UNL     1      23.632  -0.547  53.538  1.00  0.00    -0.336 OA
HETATM   25  H5  UNL     1      27.612   2.823  53.537  1.00  0.00     0.092 HD
ENDROOT
BRANCH  12  26
HETATM   26  O3  UNL     1      22.091   6.286  47.794  1.00  0.00    -0.362 OA
HETATM   27  H13 UNL     1      21.390   6.963  47.959  1.00  0.00     0.213 HD
ENDBRANCH  12  26
TORSDOF 1
ENDMDL
MODEL 5
REMARK VINA RESULT:      -7.2      2.907      7.788
REMARK  1 active torsions:
REMARK  status: ('A' for Active; 'I' for Inactive)
REMARK    1  A    between atoms: C8_12  and  O3_14 
ROOT
HETATM    1  C1  UNL     1      27.649   0.060  53.130  1.00  0.00     0.048 C 
HETATM    2  C2  UNL     1      26.396   0.449  53.412  1.00  0.00     0.063 C 
HETATM    3  C3  UNL     1      25.530  -0.286  54.392  1.00  0.00     0.236 C 
HETATM    4  O1  UNL     1      24.398  -0.737  53.755  1.00  0.00    -0.356 OA
HETATM    5  P1  UNL     1      23.396  -1.513  54.961  1.00  0.00     0.036 P 
HETATM    6  C4  UNL     1      21.793  -0.574  54.957  1.00  0.00     0.034 C 
HETATM    7  C5  UNL     1      20.839  -0.393  54.053  1.00  0.00     0.034 C 
HETATM    8  C6  UNL     1      19.668  -0.036  53.263  1.00  0.00     0.054 C 
HETATM    9  N1  UNL     1      18.678  -0.879  53.446  1.00  0.00    -0.264 NA
HETATM   10  C7  UNL     1      17.413  -0.893  52.690  1.00  0.00     0.321 C 
HETATM   11  O2  UNL     1      17.014   0.361  52.303  1.00  0.00    -0.331 OA
HETATM   12  C8  UNL     1      17.534   0.823  51.120  1.00  0.00     0.185 C 
HETATM   13  C9  UNL     1      17.408  -0.142  49.962  1.00  0.00     0.084 C 
HETATM   14  C10 UNL     1      18.955   1.297  51.294  1.00  0.00    -0.013 C 
HETATM   15  C11 UNL     1      19.691   1.156  52.386  1.00  0.00     0.040 C 
HETATM   16  C12 UNL     1      19.494   1.960  50.107  1.00  0.00     0.067 C 
HETATM   17  C13 UNL     1      20.190   3.234  50.356  1.00  0.00    -0.020 C 
HETATM   18  C14 UNL     1      21.412   3.712  50.159  1.00  0.00    -0.083 C 
HETATM   19  C15 UNL     1      21.793   5.105  50.547  1.00  0.00     0.043 C 
HETATM   20  C16 UNL     1      22.557   2.982  49.547  1.00  0.00     0.079 C 
HETATM   21  C17 UNL     1      23.673   2.911  50.522  1.00  0.00     0.254 C 
HETATM   22  N2  UNL     1      24.608   2.909  51.369  1.00  0.00    -0.403 NA
HETATM   23  C18 UNL     1      25.516   1.820  51.611  1.00  0.00     0.286 C 
HETATM   24  O4  UNL     1      25.589   1.488  52.976  1.00  0.00    -0.336 OA
HETATM   25  H5  UNL     1      23.058  -2.839  54.414  1.00  0.00     0.092 HD
ENDROOT
BRANCH  12  26
HETATM   26  O3  UNL     1      16.819   1.977  50.759  1.00  0.00    -0.362 OA
HETATM   27  H13 UNL     1      17.036   2.756  51.329  1.00  0.00     0.213 HD
ENDBRANCH  12  26
TORSDOF 1
ENDMDL
MODEL 6
REMARK VINA RESULT:      -7.2      3.633      5.689
REMARK  1 active torsions:
REMARK  status: ('A' for Active; 'I' for Inactive)
REMARK    1  A    between atoms: C8_12  and  O3_14 
ROOT
HETATM    1  C1  UNL     1      14.865  -1.591  52.207  1.00  0.00     0.048 C 
HETATM    2  C2  UNL     1      15.738  -0.628  52.538  1.00  0.00     0.063 C 
HETATM    3  C3  UNL     1      15.536   0.806  52.144  1.00  0.00     0.236 C 
HETATM    4  O1  UNL     1      16.592   1.221  51.367  1.00  0.00    -0.356 OA
HETATM    5  P1  UNL     1      16.340   2.914  51.008  1.00  0.00     0.036 P 
HETATM    6  C4  UNL     1      17.822   3.797  51.697  1.00  0.00     0.034 C 
HETATM    7  C5  UNL     1      19.118   3.768  51.417  1.00  0.00     0.034 C 
HETATM    8  C6  UNL     1      20.564   3.928  51.318  1.00  0.00     0.054 C 
HETATM    9  N1  UNL     1      20.894   4.908  50.509  1.00  0.00    -0.264 NA
HETATM   10  C7  UNL     1      22.263   5.235  50.073  1.00  0.00     0.321 C 
HETATM   11  O2  UNL     1      23.203   4.965  51.034  1.00  0.00    -0.331 OA
HETATM   12  C8  UNL     1      23.687   3.681  51.063  1.00  0.00     0.185 C 
HETATM   13  C9  UNL     1      24.152   3.158  49.721  1.00  0.00     0.084 C 
HETATM   14  C10 UNL     1      22.706   2.740  51.715  1.00  0.00    -0.013 C 
HETATM   15  C11 UNL     1      21.469   3.041  52.081  1.00  0.00     0.040 C 
HETATM   16  C12 UNL     1      23.246   1.398  51.929  1.00  0.00     0.067 C 
HETATM   17  C13 UNL     1      23.015   0.830  53.268  1.00  0.00    -0.020 C 
HETATM   18  C14 UNL     1      22.403  -0.239  53.762  1.00  0.00    -0.083 C 
HETATM   19  C15 UNL     1      22.357  -0.522  55.230  1.00  0.00     0.043 C 
HETATM   20  C16 UNL     1      21.693  -1.289  52.980  1.00  0.00     0.079 C 
HETATM   21  C17 UNL     1      20.272  -1.344  53.406  1.00  0.00     0.254 C 
HETATM   22  N2  UNL     1      19.084  -1.381  53.827  1.00  0.00    -0.403 NA
HETATM   23  C18 UNL     1      17.914  -1.592  53.017  1.00  0.00     0.286 C 
HETATM   24  O4  UNL     1      16.933  -0.610  53.240  1.00  0.00    -0.336 OA
HETATM   25  H5  UNL     1      16.472   3.042  49.546  1.00  0.00     0.092 HD
ENDROOT
BRANCH  12  26
HETATM   26  O3  UNL     1      24.808   3.665  51.909  1.00  0.00    -0.362 OA
HETATM   27  H13 UNL     1      24.677   3.100  52.709  1.00  0.00     0.213 HD
ENDBRANCH  12  26
TORSDOF 1
ENDMDL
MODEL 7
REMARK VINA RESULT:      -7.1      2.347      4.541
REMARK  1 active torsions:
REMARK  status: ('A' for Active; 'I' for Inactive)
REMARK    1  A    between atoms: C8_12  and  O3_14 
ROOT
HETATM    1  C1  UNL     1      18.913   5.539  49.566  1.00  0.00     0.048 C 
HETATM    2  C2  UNL     1      19.707   4.464  49.676  1.00  0.00     0.063 C 
HETATM    3  C3  UNL     1      19.228   3.172  50.272  1.00  0.00     0.236 C 
HETATM    4  O1  UNL     1      19.995   2.862  51.370  1.00  0.00    -0.356 OA
HETATM    5  P1  UNL     1      19.443   1.315  51.970  1.00  0.00     0.036 P 
HETATM    6  C4  UNL     1      20.921   0.192  51.890  1.00  0.00     0.034 C 
HETATM    7  C5  UNL     1      22.100   0.185  52.497  1.00  0.00     0.034 C 
HETATM    8  C6  UNL     1      23.442  -0.059  53.010  1.00  0.00     0.054 C 
HETATM    9  N1  UNL     1      23.431  -0.856  54.054  1.00  0.00    -0.264 NA
HETATM   10  C7  UNL     1      24.595  -1.181  54.897  1.00  0.00     0.321 C 
HETATM   11  O2  UNL     1      25.771  -1.203  54.191  1.00  0.00    -0.331 OA
HETATM   12  C8  UNL     1      26.411   0.003  54.044  1.00  0.00     0.185 C 
HETATM   13  C9  UNL     1      26.594   0.774  55.333  1.00  0.00     0.084 C 
HETATM   14  C10 UNL     1      25.753   0.846  52.981  1.00  0.00    -0.013 C 
HETATM   15  C11 UNL     1      24.617   0.566  52.362  1.00  0.00     0.040 C 
HETATM   16  C12 UNL     1      26.500   2.062  52.663  1.00  0.00     0.067 C 
HETATM   17  C13 UNL     1      26.683   2.335  51.228  1.00  0.00    -0.020 C 
HETATM   18  C14 UNL     1      26.357   3.311  50.389  1.00  0.00    -0.083 C 
HETATM   19  C15 UNL     1      26.713   3.263  48.937  1.00  0.00     0.043 C 
HETATM   20  C16 UNL     1      25.620   4.559  50.731  1.00  0.00     0.079 C 
HETATM   21  C17 UNL     1      24.368   4.624  49.937  1.00  0.00     0.254 C 
HETATM   22  N2  UNL     1      23.336   4.656  49.213  1.00  0.00    -0.403 NA
HETATM   23  C18 UNL     1      22.041   5.130  49.622  1.00  0.00     0.286 C 
HETATM   24  O4  UNL     1      21.025   4.200  49.338  1.00  0.00    -0.336 OA
HETATM   25  H5  UNL     1      19.192   1.506  53.410  1.00  0.00     0.092 HD
ENDROOT
BRANCH  12  26
HETATM   26  O3  UNL     1      27.698  -0.254  53.544  1.00  0.00    -0.362 OA
HETATM   27  H13 UNL     1      27.925   0.306  52.762  1.00  0.00     0.213 HD
ENDBRANCH  12  26
TORSDOF 1
ENDMDL
MODEL 8
REMARK VINA RESULT:      -7.0      7.657      9.724
REMARK  1 active torsions:
REMARK  status: ('A' for Active; 'I' for Inactive)
REMARK    1  A    between atoms: C8_12  and  O3_14 
ROOT
HETATM    1  C1  UNL     1      23.566  14.193  46.272  1.00  0.00     0.048 C 
HETATM    2  C2  UNL     1      24.350  13.508  47.117  1.00  0.00     0.063 C 
HETATM    3  C3  UNL     1      25.662  14.048  47.608  1.00  0.00     0.236 C 
HETATM    4  O1  UNL     1      26.676  13.196  47.235  1.00  0.00    -0.356 OA
HETATM    5  P1  UNL     1      28.162  13.835  47.901  1.00  0.00     0.036 P 
HETATM    6  C4  UNL     1      28.825  12.500  49.011  1.00  0.00     0.034 C 
HETATM    7  C5  UNL     1      29.264  11.267  48.800  1.00  0.00     0.034 C 
HETATM    8  C6  UNL     1      29.787   9.907  48.850  1.00  0.00     0.054 C 
HETATM    9  N1  UNL     1      31.097   9.882  48.754  1.00  0.00    -0.264 NA
HETATM   10  C7  UNL     1      31.923   8.669  48.621  1.00  0.00     0.321 C 
HETATM   11  O2  UNL     1      31.391   7.591  49.280  1.00  0.00    -0.331 OA
HETATM   12  C8  UNL     1      30.469   6.850  48.584  1.00  0.00     0.185 C 
HETATM   13  C9  UNL     1      30.915   6.441  47.196  1.00  0.00     0.084 C 
HETATM   14  C10 UNL     1      29.125   7.533  48.555  1.00  0.00    -0.013 C 
HETATM   15  C11 UNL     1      28.868   8.756  48.993  1.00  0.00     0.040 C 
HETATM   16  C12 UNL     1      28.067   6.705  47.979  1.00  0.00     0.067 C 
HETATM   17  C13 UNL     1      26.811   6.660  48.746  1.00  0.00    -0.020 C 
HETATM   18  C14 UNL     1      25.541   6.976  48.524  1.00  0.00    -0.083 C 
HETATM   19  C15 UNL     1      24.483   6.796  49.566  1.00  0.00     0.043 C 
HETATM   20  C16 UNL     1      24.979   7.535  47.264  1.00  0.00     0.079 C 
HETATM   21  C17 UNL     1      24.362   8.857  47.544  1.00  0.00     0.254 C 
HETATM   22  N2  UNL     1      23.817   9.956  47.836  1.00  0.00    -0.403 NA
HETATM   23  C18 UNL     1      23.828  11.139  47.018  1.00  0.00     0.286 C 
HETATM   24  O4  UNL     1      24.252  12.272  47.736  1.00  0.00    -0.336 OA
HETATM   25  H5  UNL     1      29.114  13.898  46.778  1.00  0.00     0.092 HD
ENDROOT
BRANCH  12  26
HETATM   26  O3  UNL     1      30.246   5.662  49.299  1.00  0.00    -0.362 OA
HETATM   27  H13 UNL     1      29.979   4.909  48.717  1.00  0.00     0.213 HD
ENDBRANCH  12  26
TORSDOF 1
ENDMDL
MODEL 9
REMARK VINA RESULT:      -6.9     10.321     12.956
REMARK  1 active torsions:
REMARK  status: ('A' for Active; 'I' for Inactive)
REMARK    1  A    between atoms: C8_12  and  O3_14 
ROOT
HETATM    1  C1  UNL     1      27.032   6.936  48.610  1.00  0.00     0.048 C 
HETATM    2  C2  UNL     1      28.276   7.291  48.255  1.00  0.00     0.063 C 
HETATM    3  C3  UNL     1      28.576   8.606  47.598  1.00  0.00     0.236 C 
HETATM    4  O1  UNL     1      29.143   8.384  46.365  1.00  0.00    -0.356 OA
HETATM    5  P1  UNL     1      29.541   9.946  45.686  1.00  0.00     0.036 P 
HETATM    6  C4  UNL     1      31.377   9.914  45.404  1.00  0.00     0.034 C 
HETATM    7  C5  UNL     1      32.172   9.195  44.623  1.00  0.00     0.034 C 
HETATM    8  C6  UNL     1      33.254   8.560  43.881  1.00  0.00     0.054 C 
HETATM    9  N1  UNL     1      33.527   9.201  42.768  1.00  0.00    -0.264 NA
HETATM   10  C7  UNL     1      34.458   8.743  41.721  1.00  0.00     0.321 C 
HETATM   11  O2  UNL     1      35.513   8.028  42.227  1.00  0.00    -0.331 OA
HETATM   12  C8  UNL     1      35.302   6.684  42.408  1.00  0.00     0.185 C 
HETATM   13  C9  UNL     1      34.724   5.974  41.203  1.00  0.00     0.084 C 
HETATM   14  C10 UNL     1      34.489   6.419  43.650  1.00  0.00    -0.013 C 
HETATM   15  C11 UNL     1      33.904   7.338  44.404  1.00  0.00     0.040 C 
HETATM   16  C12 UNL     1      34.387   4.999  43.983  1.00  0.00     0.067 C 
HETATM   17  C13 UNL     1      34.640   4.661  45.394  1.00  0.00    -0.020 C 
HETATM   18  C14 UNL     1      33.959   4.090  46.379  1.00  0.00    -0.083 C 
HETATM   19  C15 UNL     1      34.543   3.896  47.742  1.00  0.00     0.043 C 
HETATM   20  C16 UNL     1      32.567   3.567  46.302  1.00  0.00     0.079 C 
HETATM   21  C17 UNL     1      31.717   4.284  47.285  1.00  0.00     0.254 C 
HETATM   22  N2  UNL     1      31.043   4.892  48.161  1.00  0.00    -0.403 NA
HETATM   23  C18 UNL     1      29.678   5.323  48.018  1.00  0.00     0.286 C 
HETATM   24  O4  UNL     1      29.516   6.680  48.349  1.00  0.00    -0.336 OA
HETATM   25  H5  UNL     1      28.953   9.962  44.335  1.00  0.00     0.092 HD
ENDROOT
BRANCH  12  26
HETATM   26  O3  UNL     1      36.547   6.086  42.666  1.00  0.00    -0.362 OA
HETATM   27  H13 UNL     1      37.308   6.683  42.466  1.00  0.00     0.213 HD
ENDBRANCH  12  26
TORSDOF 1
ENDMDL
