MODEL 1
REMARK VINA RESULT:      -7.9      0.000      0.000
REMARK  6 active torsions:
REMARK  status: ('A' for Active; 'I' for Inactive)
REMARK    1  A    between atoms: O1_2  and  C2_3 
REMARK    2  A    between atoms: C2_3  and  C3_4 
REMARK    3  A    between atoms: C3_4  and  C4_5 
REMARK    4  A    between atoms: C4_5  and  C5_6 
REMARK    5  A    between atoms: N2_19  and  C16_20 
REMARK    6  A    between atoms: C17_22  and  O2_23 
ROOT
HETATM    1  C5  UNL     1      23.062   1.695  51.125  1.00  0.00     0.004 C 
HETATM    2  C6  UNL     1      21.743   1.169  51.090  1.00  0.00     0.023 C 
HETATM    3 BR1  UNL     1      20.532   1.797  49.749  1.00  0.00    -0.050 Br
HETATM    4  C7  UNL     1      21.045   0.298  51.796  1.00  0.00     0.027 C 
HETATM    5  C8  UNL     1      21.556  -0.426  52.939  1.00  0.00    -0.053 C 
HETATM    6  C9  UNL     1      21.302  -0.762  54.225  1.00  0.00     0.008 C 
HETATM    7  C10 UNL     1      22.666  -0.742  54.838  1.00  0.00     0.006 C 
HETATM    8  C11 UNL     1      23.543  -0.407  53.863  1.00  0.00    -0.051 C 
HETATM    9  C12 UNL     1      22.904  -1.088  52.693  1.00  0.00     0.075 C 
HETATM   10  C13 UNL     1      24.748   0.425  53.993  1.00  0.00     0.148 C 
HETATM   11  C14 UNL     1      24.456   1.860  53.477  1.00  0.00     0.094 C 
HETATM   12  C15 UNL     1      24.138   1.407  52.066  1.00  0.00     0.068 C 
HETATM   13  N1  UNL     1      25.101   0.618  51.706  1.00  0.00    -0.173 NA
HETATM   14  N2  UNL     1      25.654   0.067  52.894  1.00  0.00    -0.237 N 
ENDROOT
BRANCH  14  15
HETATM   15  C16 UNL     1      26.861  -0.681  53.072  1.00  0.00     0.192 A 
HETATM   16  N3  UNL     1      27.231  -1.827  53.105  1.00  0.00    -0.198 NA
HETATM   17  C17 UNL     1      28.520  -2.131  53.330  1.00  0.00     0.171 A 
HETATM   18  C18 UNL     1      29.451  -1.185  53.529  1.00  0.00     0.111 A 
HETATM   19  S1  UNL     1      28.434   0.353  53.389  1.00  0.00    -0.058 SA
BRANCH  17  20
HETATM   20  O2  UNL     1      28.837  -3.503  53.347  1.00  0.00    -0.344 OA
HETATM   21  H15 UNL     1      29.276  -3.978  52.589  1.00  0.00     0.219 HD
ENDBRANCH  17  20
ENDBRANCH  14  15
BRANCH   1  22
HETATM   22  C4  UNL     1      23.548   2.607  50.260  1.00  0.00    -0.004 C 
BRANCH  22  23
HETATM   23  C3  UNL     1      23.637   3.986  50.536  1.00  0.00     0.051 C 
BRANCH  23  24
HETATM   24  C2  UNL     1      23.708   5.183  51.034  1.00  0.00     0.158 C 
BRANCH  24  25
HETATM   25  O1  UNL     1      24.136   6.404  51.475  1.00  0.00    -0.387 OA
HETATM   26  C1  UNL     1      23.852   7.627  50.794  1.00  0.00     0.202 C 
ENDBRANCH  24  25
ENDBRANCH  23  24
ENDBRANCH  22  23
ENDBRANCH   1  22
TORSDOF 6
ENDMDL
MODEL 2
REMARK VINA RESULT:      -7.4      3.200      7.008
REMARK  6 active torsions:
REMARK  status: ('A' for Active; 'I' for Inactive)
REMARK    1  A    between atoms: O1_2  and  C2_3 
REMARK    2  A    between atoms: C2_3  and  C3_4 
REMARK    3  A    between atoms: C3_4  and  C4_5 
REMARK    4  A    between atoms: C4_5  and  C5_6 
REMARK    5  A    between atoms: N2_19  and  C16_20 
REMARK    6  A    between atoms: C17_22  and  O2_23 
ROOT
HETATM    1  C5  UNL     1      23.974   1.662  52.311  1.00  0.00     0.004 C 
HETATM    2  C6  UNL     1      22.849   0.829  52.069  1.00  0.00     0.023 C 
HETATM    3 BR1  UNL     1      22.392  -0.507  53.359  1.00  0.00    -0.050 Br
HETATM    4  C7  UNL     1      21.954   0.692  51.107  1.00  0.00     0.027 C 
HETATM    5  C8  UNL     1      21.919   1.490  49.902  1.00  0.00    -0.053 C 
HETATM    6  C9  UNL     1      21.838   1.432  48.552  1.00  0.00     0.008 C 
HETATM    7  C10 UNL     1      22.720   2.564  48.129  1.00  0.00     0.006 C 
HETATM    8  C11 UNL     1      23.203   3.142  49.252  1.00  0.00    -0.051 C 
HETATM    9  C12 UNL     1      22.019   2.988  50.155  1.00  0.00     0.075 C 
HETATM   10  C13 UNL     1      24.542   3.715  49.458  1.00  0.00     0.148 C 
HETATM   11  C14 UNL     1      25.430   2.710  50.242  1.00  0.00     0.094 C 
HETATM   12  C15 UNL     1      24.538   2.708  51.467  1.00  0.00     0.068 C 
HETATM   13  N1  UNL     1      24.305   3.950  51.756  1.00  0.00    -0.173 NA
HETATM   14  N2  UNL     1      24.444   4.691  50.550  1.00  0.00    -0.237 N 
ENDROOT
BRANCH  14  15
HETATM   15  C16 UNL     1      24.507   6.107  50.358  1.00  0.00     0.192 A 
HETATM   16  N3  UNL     1      25.243   7.031  50.595  1.00  0.00    -0.198 NA
HETATM   17  C17 UNL     1      24.911   8.286  50.250  1.00  0.00     0.171 A 
HETATM   18  C18 UNL     1      23.754   8.573  49.631  1.00  0.00     0.111 A 
HETATM   19  S1  UNL     1      22.997   6.891  49.492  1.00  0.00    -0.058 SA
BRANCH  17  20
HETATM   20  O2  UNL     1      25.848   9.285  50.576  1.00  0.00    -0.344 OA
HETATM   21  H15 UNL     1      25.702   9.969  51.287  1.00  0.00     0.219 HD
ENDBRANCH  17  20
ENDBRANCH  14  15
BRANCH   1  22
HETATM   22  C4  UNL     1      24.751   1.600  53.410  1.00  0.00    -0.004 C 
BRANCH  22  23
HETATM   23  C3  UNL     1      25.957   0.873  53.483  1.00  0.00     0.051 C 
BRANCH  23  24
HETATM   24  C2  UNL     1      27.000   0.165  53.793  1.00  0.00     0.158 C 
BRANCH  24  25
HETATM   25  O1  UNL     1      27.981  -0.514  54.460  1.00  0.00    -0.387 OA
HETATM   26  C1  UNL     1      29.270  -0.777  53.903  1.00  0.00     0.202 C 
ENDBRANCH  24  25
ENDBRANCH  23  24
ENDBRANCH  22  23
ENDBRANCH   1  22
TORSDOF 6
ENDMDL
MODEL 3
REMARK VINA RESULT:      -7.3      2.200      2.500
REMARK  6 active torsions:
REMARK  status: ('A' for Active; 'I' for Inactive)
REMARK    1  A    between atoms: O1_2  and  C2_3 
REMARK    2  A    between atoms: C2_3  and  C3_4 
REMARK    3  A    between atoms: C3_4  and  C4_5 
REMARK    4  A    between atoms: C4_5  and  C5_6 
REMARK    5  A    between atoms: N2_19  and  C16_20 
REMARK    6  A    between atoms: C17_22  and  O2_23 
ROOT
HETATM    1  C5  UNL     1      23.443   2.965  50.075  1.00  0.00     0.004 C 
HETATM    2  C6  UNL     1      22.407   2.058  49.728  1.00  0.00     0.023 C 
HETATM    3 BR1  UNL     1      21.525   2.260  48.043  1.00  0.00    -0.050 Br
HETATM    4  C7  UNL     1      21.811   1.027  50.301  1.00  0.00     0.027 C 
HETATM    5  C8  UNL     1      22.142   0.516  51.612  1.00  0.00    -0.053 C 
HETATM    6  C9  UNL     1      21.622   0.141  52.805  1.00  0.00     0.008 C 
HETATM    7  C10 UNL     1      22.673   0.590  53.768  1.00  0.00     0.006 C 
HETATM    8  C11 UNL     1      23.666   1.162  53.048  1.00  0.00    -0.051 C 
HETATM    9  C12 UNL     1      23.633   0.296  51.827  1.00  0.00     0.075 C 
HETATM   10  C13 UNL     1      24.484   2.326  53.420  1.00  0.00     0.148 C 
HETATM   11  C14 UNL     1      23.958   3.592  52.690  1.00  0.00     0.094 C 
HETATM   12  C15 UNL     1      24.223   3.039  51.305  1.00  0.00     0.068 C 
HETATM   13  N1  UNL     1      25.435   2.578  51.316  1.00  0.00    -0.173 NA
HETATM   14  N2  UNL     1      25.740   2.244  52.664  1.00  0.00    -0.237 N 
ENDROOT
BRANCH  14  15
HETATM   15  C16 UNL     1      27.000   1.907  53.252  1.00  0.00     0.192 A 
HETATM   16  N3  UNL     1      27.905   2.437  53.844  1.00  0.00    -0.198 NA
HETATM   17  C17 UNL     1      28.984   1.736  54.229  1.00  0.00     0.171 A 
HETATM   18  C18 UNL     1      29.110   0.424  53.975  1.00  0.00     0.111 A 
HETATM   19  S1  UNL     1      27.528   0.080  53.081  1.00  0.00    -0.058 SA
BRANCH  17  20
HETATM   20  O2  UNL     1      29.979   2.460  54.914  1.00  0.00    -0.344 OA
HETATM   21  H15 UNL     1      29.856   2.839  55.828  1.00  0.00     0.219 HD
ENDBRANCH  17  20
ENDBRANCH  14  15
BRANCH   1  22
HETATM   22  C4  UNL     1      23.882   3.967  49.287  1.00  0.00    -0.004 C 
BRANCH  22  23
HETATM   23  C3  UNL     1      23.474   5.310  49.419  1.00  0.00     0.051 C 
BRANCH  23  24
HETATM   24  C2  UNL     1      23.245   6.544  49.749  1.00  0.00     0.158 C 
BRANCH  24  25
HETATM   25  O1  UNL     1      22.677   7.707  50.191  1.00  0.00    -0.387 OA
HETATM   26  C1  UNL     1      21.315   8.059  49.941  1.00  0.00     0.202 C 
ENDBRANCH  24  25
ENDBRANCH  23  24
ENDBRANCH  22  23
ENDBRANCH   1  22
TORSDOF 6
ENDMDL
MODEL 4
REMARK VINA RESULT:      -7.2      3.178      6.460
REMARK  6 active torsions:
REMARK  status: ('A' for Active; 'I' for Inactive)
REMARK    1  A    between atoms: O1_2  and  C2_3 
REMARK    2  A    between atoms: C2_3  and  C3_4 
REMARK    3  A    between atoms: C3_4  and  C4_5 
REMARK    4  A    between atoms: C4_5  and  C5_6 
REMARK    5  A    between atoms: N2_19  and  C16_20 
REMARK    6  A    between atoms: C17_22  and  O2_23 
ROOT
HETATM    1  C5  UNL     1      23.006   0.937  52.554  1.00  0.00     0.004 C 
HETATM    2  C6  UNL     1      21.810   0.616  53.251  1.00  0.00     0.023 C 
HETATM    3 BR1  UNL     1      21.814  -0.862  54.465  1.00  0.00    -0.050 Br
HETATM    4  C7  UNL     1      20.575   1.085  53.290  1.00  0.00     0.027 C 
HETATM    5  C8  UNL     1      20.099   2.205  52.511  1.00  0.00    -0.053 C 
HETATM    6  C9  UNL     1      19.114   2.622  51.681  1.00  0.00     0.008 C 
HETATM    7  C10 UNL     1      19.852   3.502  50.724  1.00  0.00     0.006 C 
HETATM    8  C11 UNL     1      21.154   3.502  51.093  1.00  0.00    -0.051 C 
HETATM    9  C12 UNL     1      21.002   3.429  52.581  1.00  0.00     0.075 C 
HETATM   10  C13 UNL     1      22.333   3.536  50.215  1.00  0.00     0.148 C 
HETATM   11  C14 UNL     1      22.930   2.109  50.080  1.00  0.00     0.094 C 
HETATM   12  C15 UNL     1      23.235   1.977  51.559  1.00  0.00     0.068 C 
HETATM   13  N1  UNL     1      23.852   3.063  51.907  1.00  0.00    -0.173 NA
HETATM   14  N2  UNL     1      23.452   4.079  50.996  1.00  0.00    -0.237 N 
ENDROOT
BRANCH  14  15
HETATM   15  C16 UNL     1      23.995   5.388  50.802  1.00  0.00     0.192 A 
HETATM   16  N3  UNL     1      25.066   5.935  50.743  1.00  0.00    -0.198 NA
HETATM   17  C17 UNL     1      25.156   7.263  50.558  1.00  0.00     0.171 A 
HETATM   18  C18 UNL     1      24.069   8.040  50.433  1.00  0.00     0.111 A 
HETATM   19  S1  UNL     1      22.715   6.789  50.586  1.00  0.00    -0.058 SA
BRANCH  17  20
HETATM   20  O2  UNL     1      26.460   7.792  50.505  1.00  0.00    -0.344 OA
HETATM   21  H15 UNL     1      27.083   7.650  49.740  1.00  0.00     0.219 HD
ENDBRANCH  17  20
ENDBRANCH  14  15
BRANCH   1  22
HETATM   22  C4  UNL     1      24.175   0.283  52.696  1.00  0.00    -0.004 C 
BRANCH  22  23
HETATM   23  C3  UNL     1      25.202   0.685  53.574  1.00  0.00     0.051 C 
BRANCH  23  24
HETATM   24  C2  UNL     1      26.240   0.821  54.341  1.00  0.00     0.158 C 
BRANCH  24  25
HETATM   25  O1  UNL     1      27.313   0.600  55.159  1.00  0.00    -0.387 OA
HETATM   26  C1  UNL     1      28.574   0.122  54.687  1.00  0.00     0.202 C 
ENDBRANCH  24  25
ENDBRANCH  23  24
ENDBRANCH  22  23
ENDBRANCH   1  22
TORSDOF 6
ENDMDL
MODEL 5
REMARK VINA RESULT:      -7.1      3.759      6.629
REMARK  6 active torsions:
REMARK  status: ('A' for Active; 'I' for Inactive)
REMARK    1  A    between atoms: O1_2  and  C2_3 
REMARK    2  A    between atoms: C2_3  and  C3_4 
REMARK    3  A    between atoms: C3_4  and  C4_5 
REMARK    4  A    between atoms: C4_5  and  C5_6 
REMARK    5  A    between atoms: N2_19  and  C16_20 
REMARK    6  A    between atoms: C17_22  and  O2_23 
ROOT
HETATM    1  C5  UNL     1      25.567   3.316  50.719  1.00  0.00     0.004 C 
HETATM    2  C6  UNL     1      25.695   4.381  49.789  1.00  0.00     0.023 C 
HETATM    3 BR1  UNL     1      27.332   4.571  48.818  1.00  0.00    -0.050 Br
HETATM    4  C7  UNL     1      24.938   5.382  49.377  1.00  0.00     0.027 C 
HETATM    5  C8  UNL     1      23.601   5.650  49.858  1.00  0.00    -0.053 C 
HETATM    6  C9  UNL     1      22.786   6.613  50.349  1.00  0.00     0.008 C 
HETATM    7  C10 UNL     1      21.959   5.859  51.340  1.00  0.00     0.006 C 
HETATM    8  C11 UNL     1      22.372   4.571  51.316  1.00  0.00    -0.051 C 
HETATM    9  C12 UNL     1      22.694   4.428  49.861  1.00  0.00     0.075 C 
HETATM   10  C13 UNL     1      22.475   3.644  52.453  1.00  0.00     0.148 C 
HETATM   11  C14 UNL     1      23.953   3.544  52.919  1.00  0.00     0.094 C 
HETATM   12  C15 UNL     1      24.448   2.995  51.597  1.00  0.00     0.068 C 
HETATM   13  N1  UNL     1      23.652   2.022  51.279  1.00  0.00    -0.173 NA
HETATM   14  N2  UNL     1      22.408   2.278  51.919  1.00  0.00    -0.237 N 
ENDROOT
BRANCH  14  15
HETATM   15  C16 UNL     1      21.274   1.419  52.073  1.00  0.00     0.192 A 
HETATM   16  N3  UNL     1      20.788   0.684  52.894  1.00  0.00    -0.198 NA
HETATM   17  C17 UNL     1      19.662   0.001  52.631  1.00  0.00     0.171 A 
HETATM   18  C18 UNL     1      19.027   0.100  51.452  1.00  0.00     0.111 A 
HETATM   19  S1  UNL     1      20.116   1.300  50.560  1.00  0.00    -0.058 SA
BRANCH  17  20
HETATM   20  O2  UNL     1      19.185  -0.827  53.666  1.00  0.00    -0.344 OA
HETATM   21  H15 UNL     1      18.441  -0.573  54.278  1.00  0.00     0.219 HD
ENDBRANCH  17  20
ENDBRANCH  14  15
BRANCH   1  22
HETATM   22  C4  UNL     1      26.519   2.394  50.965  1.00  0.00    -0.004 C 
BRANCH  22  23
HETATM   23  C3  UNL     1      27.176   2.250  52.204  1.00  0.00     0.051 C 
BRANCH  23  24
HETATM   24  C2  UNL     1      27.904   1.927  53.229  1.00  0.00     0.158 C 
BRANCH  24  25
HETATM   25  O1  UNL     1      28.346   1.590  54.478  1.00  0.00    -0.387 OA
HETATM   26  C1  UNL     1      28.635   0.248  54.872  1.00  0.00     0.202 C 
ENDBRANCH  24  25
ENDBRANCH  23  24
ENDBRANCH  22  23
ENDBRANCH   1  22
TORSDOF 6
ENDMDL
MODEL 6
REMARK VINA RESULT:      -6.9      7.730     10.445
REMARK  6 active torsions:
REMARK  status: ('A' for Active; 'I' for Inactive)
REMARK    1  A    between atoms: O1_2  and  C2_3 
REMARK    2  A    between atoms: C2_3  and  C3_4 
REMARK    3  A    between atoms: C3_4  and  C4_5 
REMARK    4  A    between atoms: C4_5  and  C5_6 
REMARK    5  A    between atoms: N2_19  and  C16_20 
REMARK    6  A    between atoms: C17_22  and  O2_23 
ROOT
HETATM    1  C5  UNL     1      28.253   7.396  48.297  1.00  0.00     0.004 C 
HETATM    2  C6  UNL     1      28.049   8.493  49.176  1.00  0.00     0.023 C 
HETATM    3 BR1  UNL     1      26.340   8.705  50.009  1.00  0.00    -0.050 Br
HETATM    4  C7  UNL     1      28.767   9.513  49.609  1.00  0.00     0.027 C 
HETATM    5  C8  UNL     1      30.136   9.774  49.223  1.00  0.00    -0.053 C 
HETATM    6  C9  UNL     1      30.982  10.725  48.763  1.00  0.00     0.008 C 
HETATM    7  C10 UNL     1      31.887   9.943  47.867  1.00  0.00     0.006 C 
HETATM    8  C11 UNL     1      31.480   8.653  47.904  1.00  0.00    -0.051 C 
HETATM    9  C12 UNL     1      31.046   8.559  49.334  1.00  0.00     0.075 C 
HETATM   10  C13 UNL     1      31.469   7.686  46.796  1.00  0.00     0.148 C 
HETATM   11  C14 UNL     1      30.033   7.559  46.221  1.00  0.00     0.094 C 
HETATM   12  C15 UNL     1      29.439   7.053  47.520  1.00  0.00     0.068 C 
HETATM   13  N1  UNL     1      30.212   6.098  47.933  1.00  0.00    -0.173 NA
HETATM   14  N2  UNL     1      31.501   6.340  47.383  1.00  0.00    -0.237 N 
ENDROOT
BRANCH  14  15
HETATM   15  C16 UNL     1      32.648   5.485  47.347  1.00  0.00     0.192 A 
HETATM   16  N3  UNL     1      33.340   4.851  48.101  1.00  0.00    -0.198 NA
HETATM   17  C17 UNL     1      34.398   4.156  47.650  1.00  0.00     0.171 A 
HETATM   18  C18 UNL     1      34.734   4.133  46.351  1.00  0.00     0.111 A 
HETATM   19  S1  UNL     1      33.422   5.215  45.623  1.00  0.00    -0.058 SA
BRANCH  17  20
HETATM   20  O2  UNL     1      35.134   3.451  48.622  1.00  0.00    -0.344 OA
HETATM   21  H15 UNL     1      35.143   3.691  49.590  1.00  0.00     0.219 HD
ENDBRANCH  17  20
ENDBRANCH  14  15
BRANCH   1  22
HETATM   22  C4  UNL     1      27.328   6.459  48.011  1.00  0.00    -0.004 C 
BRANCH  22  23
HETATM   23  C3  UNL     1      27.227   5.220  48.677  1.00  0.00     0.051 C 
BRANCH  23  24
HETATM   24  C2  UNL     1      26.919   4.177  49.384  1.00  0.00     0.158 C 
BRANCH  24  25
HETATM   25  O1  UNL     1      26.606   2.913  49.802  1.00  0.00    -0.387 OA
HETATM   26  C1  UNL     1      26.584   2.526  51.177  1.00  0.00     0.202 C 
ENDBRANCH  24  25
ENDBRANCH  23  24
ENDBRANCH  22  23
ENDBRANCH   1  22
TORSDOF 6
ENDMDL
MODEL 7
REMARK VINA RESULT:      -6.8      2.766      3.567
REMARK  6 active torsions:
REMARK  status: ('A' for Active; 'I' for Inactive)
REMARK    1  A    between atoms: O1_2  and  C2_3 
REMARK    2  A    between atoms: C2_3  and  C3_4 
REMARK    3  A    between atoms: C3_4  and  C4_5 
REMARK    4  A    between atoms: C4_5  and  C5_6 
REMARK    5  A    between atoms: N2_19  and  C16_20 
REMARK    6  A    between atoms: C17_22  and  O2_23 
ROOT
HETATM    1  C5  UNL     1      23.767   4.445  49.789  1.00  0.00     0.004 C 
HETATM    2  C6  UNL     1      22.667   3.951  49.039  1.00  0.00     0.023 C 
HETATM    3 BR1  UNL     1      22.240   4.778  47.368  1.00  0.00    -0.050 Br
HETATM    4  C7  UNL     1      21.759   3.003  49.190  1.00  0.00     0.027 C 
HETATM    5  C8  UNL     1      21.680   2.120  50.332  1.00  0.00    -0.053 C 
HETATM    6  C9  UNL     1      20.844   1.614  51.270  1.00  0.00     0.008 C 
HETATM    7  C10 UNL     1      21.727   1.527  52.473  1.00  0.00     0.006 C 
HETATM    8  C11 UNL     1      22.951   1.979  52.112  1.00  0.00    -0.051 C 
HETATM    9  C12 UNL     1      23.008   1.475  50.703  1.00  0.00     0.075 C 
HETATM   10  C13 UNL     1      23.890   2.765  52.926  1.00  0.00     0.148 C 
HETATM   11  C14 UNL     1      23.813   4.262  52.521  1.00  0.00     0.094 C 
HETATM   12  C15 UNL     1      24.255   4.012  51.093  1.00  0.00     0.068 C 
HETATM   13  N1  UNL     1      25.312   3.264  51.158  1.00  0.00    -0.173 NA
HETATM   14  N2  UNL     1      25.237   2.545  52.384  1.00  0.00    -0.237 N 
ENDROOT
BRANCH  14  15
HETATM   15  C16 UNL     1      26.239   1.760  53.037  1.00  0.00     0.192 A 
HETATM   16  N3  UNL     1      27.067   1.871  53.904  1.00  0.00    -0.198 NA
HETATM   17  C17 UNL     1      27.873   0.846  54.225  1.00  0.00     0.171 A 
HETATM   18  C18 UNL     1      27.800  -0.341  53.602  1.00  0.00     0.111 A 
HETATM   19  S1  UNL     1      26.432  -0.029  52.397  1.00  0.00    -0.058 SA
BRANCH  17  20
HETATM   20  O2  UNL     1      28.802   1.090  55.256  1.00  0.00    -0.344 OA
HETATM   21  H15 UNL     1      29.695   1.507  55.107  1.00  0.00     0.219 HD
ENDBRANCH  17  20
ENDBRANCH  14  15
BRANCH   1  22
HETATM   22  C4  UNL     1      24.566   5.459  49.402  1.00  0.00    -0.004 C 
BRANCH  22  23
HETATM   23  C3  UNL     1      25.907   5.296  48.997  1.00  0.00     0.051 C 
BRANCH  23  24
HETATM   24  C2  UNL     1      27.171   5.381  48.717  1.00  0.00     0.158 C 
BRANCH  24  25
HETATM   25  O1  UNL     1      28.377   5.471  48.079  1.00  0.00    -0.387 OA
HETATM   26  C1  UNL     1      29.270   6.574  48.240  1.00  0.00     0.202 C 
ENDBRANCH  24  25
ENDBRANCH  23  24
ENDBRANCH  22  23
ENDBRANCH   1  22
TORSDOF 6
ENDMDL
MODEL 8
REMARK VINA RESULT:      -6.8      4.173      6.767
REMARK  6 active torsions:
REMARK  status: ('A' for Active; 'I' for Inactive)
REMARK    1  A    between atoms: O1_2  and  C2_3 
REMARK    2  A    between atoms: C2_3  and  C3_4 
REMARK    3  A    between atoms: C3_4  and  C4_5 
REMARK    4  A    between atoms: C4_5  and  C5_6 
REMARK    5  A    between atoms: N2_19  and  C16_20 
REMARK    6  A    between atoms: C17_22  and  O2_23 
ROOT
HETATM    1  C5  UNL     1      23.695   2.879  51.768  1.00  0.00     0.004 C 
HETATM    2  C6  UNL     1      24.352   2.972  50.512  1.00  0.00     0.023 C 
HETATM    3 BR1  UNL     1      26.232   3.326  50.475  1.00  0.00    -0.050 Br
HETATM    4  C7  UNL     1      23.997   2.892  49.242  1.00  0.00     0.027 C 
HETATM    5  C8  UNL     1      22.647   2.650  48.783  1.00  0.00    -0.053 C 
HETATM    6  C9  UNL     1      21.683   3.087  47.940  1.00  0.00     0.008 C 
HETATM    7  C10 UNL     1      20.435   2.845  48.727  1.00  0.00     0.006 C 
HETATM    8  C11 UNL     1      20.801   2.306  49.913  1.00  0.00    -0.051 C 
HETATM    9  C12 UNL     1      21.967   1.476  49.472  1.00  0.00     0.075 C 
HETATM   10  C13 UNL     1      20.191   2.543  51.230  1.00  0.00     0.148 C 
HETATM   11  C14 UNL     1      21.054   3.552  52.036  1.00  0.00     0.094 C 
HETATM   12  C15 UNL     1      22.281   2.662  52.048  1.00  0.00     0.068 C 
HETATM   13  N1  UNL     1      21.881   1.487  52.422  1.00  0.00    -0.173 NA
HETATM   14  N2  UNL     1      20.505   1.386  52.078  1.00  0.00    -0.237 N 
ENDROOT
BRANCH  14  15
HETATM   15  C16 UNL     1      19.544   0.397  52.461  1.00  0.00     0.192 A 
HETATM   16  N3  UNL     1      19.443  -0.538  53.213  1.00  0.00    -0.198 NA
HETATM   17  C17 UNL     1      18.317  -1.269  53.261  1.00  0.00     0.171 A 
HETATM   18  C18 UNL     1      17.259  -0.999  52.480  1.00  0.00     0.111 A 
HETATM   19  S1  UNL     1      17.875   0.468  51.536  1.00  0.00    -0.058 SA
BRANCH  17  20
HETATM   20  O2  UNL     1      18.312  -2.337  54.178  1.00  0.00    -0.344 OA
HETATM   21  H15 UNL     1      18.148  -3.285  53.921  1.00  0.00     0.219 HD
ENDBRANCH  17  20
ENDBRANCH  14  15
BRANCH   1  22
HETATM   22  C4  UNL     1      24.304   3.001  52.964  1.00  0.00    -0.004 C 
BRANCH  22  23
HETATM   23  C3  UNL     1      25.185   2.041  53.502  1.00  0.00     0.051 C 
BRANCH  23  24
HETATM   24  C2  UNL     1      26.150   1.228  53.808  1.00  0.00     0.158 C 
BRANCH  24  25
HETATM   25  O1  UNL     1      27.111   0.256  53.788  1.00  0.00    -0.387 OA
HETATM   26  C1  UNL     1      28.163   0.174  54.751  1.00  0.00     0.202 C 
ENDBRANCH  24  25
ENDBRANCH  23  24
ENDBRANCH  22  23
ENDBRANCH   1  22
TORSDOF 6
ENDMDL
MODEL 9
REMARK VINA RESULT:      -6.7      4.457      6.790
REMARK  6 active torsions:
REMARK  status: ('A' for Active; 'I' for Inactive)
REMARK    1  A    between atoms: O1_2  and  C2_3 
REMARK    2  A    between atoms: C2_3  and  C3_4 
REMARK    3  A    between atoms: C3_4  and  C4_5 
REMARK    4  A    between atoms: C4_5  and  C5_6 
REMARK    5  A    between atoms: N2_19  and  C16_20 
REMARK    6  A    between atoms: C17_22  and  O2_23 
ROOT
HETATM    1  C5  UNL     1      23.297   1.433  51.838  1.00  0.00     0.004 C 
HETATM    2  C6  UNL     1      23.886   0.806  52.968  1.00  0.00     0.023 C 
HETATM    3 BR1  UNL     1      25.752   1.061  53.301  1.00  0.00    -0.050 Br
HETATM    4  C7  UNL     1      23.474   0.009  53.938  1.00  0.00     0.027 C 
HETATM    5  C8  UNL     1      22.119  -0.472  54.082  1.00  0.00    -0.053 C 
HETATM    6  C9  UNL     1      21.364  -1.580  54.273  1.00  0.00     0.008 C 
HETATM    7  C10 UNL     1      20.154  -1.290  53.444  1.00  0.00     0.006 C 
HETATM    8  C11 UNL     1      20.333  -0.075  52.876  1.00  0.00    -0.051 C 
HETATM    9  C12 UNL     1      21.066   0.623  53.980  1.00  0.00     0.075 C 
HETATM   10  C13 UNL     1      19.918   0.354  51.532  1.00  0.00     0.148 C 
HETATM   11  C14 UNL     1      21.137   0.325  50.571  1.00  0.00     0.094 C 
HETATM   12  C15 UNL     1      21.923   1.354  51.358  1.00  0.00     0.068 C 
HETATM   13  N1  UNL     1      21.116   2.343  51.582  1.00  0.00    -0.173 NA
HETATM   14  N2  UNL     1      19.795   1.817  51.552  1.00  0.00    -0.237 N 
ENDROOT
BRANCH  14  15
HETATM   15  C16 UNL     1      18.543   2.509  51.523  1.00  0.00     0.192 A 
HETATM   16  N3  UNL     1      17.947   3.350  52.146  1.00  0.00    -0.198 NA
HETATM   17  C17 UNL     1      16.711   3.733  51.785  1.00  0.00     0.171 A 
HETATM   18  C18 UNL     1      16.083   3.204  50.723  1.00  0.00     0.111 A 
HETATM   19  S1  UNL     1      17.354   2.005  50.116  1.00  0.00    -0.058 SA
BRANCH  17  20
HETATM   20  O2  UNL     1      16.112   4.723  52.587  1.00  0.00    -0.344 OA
HETATM   21  H15 UNL     1      16.617   5.294  53.229  1.00  0.00     0.219 HD
ENDBRANCH  17  20
ENDBRANCH  14  15
BRANCH   1  22
HETATM   22  C4  UNL     1      23.956   2.228  50.971  1.00  0.00    -0.004 C 
BRANCH  22  23
HETATM   23  C3  UNL     1      24.150   3.611  51.161  1.00  0.00     0.051 C 
BRANCH  23  24
HETATM   24  C2  UNL     1      24.131   4.909  51.175  1.00  0.00     0.158 C 
BRANCH  24  25
HETATM   25  O1  UNL     1      23.822   6.220  51.406  1.00  0.00    -0.387 OA
HETATM   26  C1  UNL     1      22.788   6.916  50.707  1.00  0.00     0.202 C 
ENDBRANCH  24  25
ENDBRANCH  23  24
ENDBRANCH  22  23
ENDBRANCH   1  22
TORSDOF 6
ENDMDL
