MODEL 1
REMARK VINA RESULT:      -8.1      0.000      0.000
REMARK  3 active torsions:
REMARK  status: ('A' for Active; 'I' for Inactive)
REMARK    1  A    between atoms: O1_1  and  C1_2 
REMARK    2  A    between atoms: C10_13  and  O2_14 
REMARK    3  A    between atoms: O2_14  and  C11_15 
ROOT
HETATM    1  C1  UNL     1      25.598   2.467  52.394  1.00  0.00     0.176 C 
HETATM    2  C2  UNL     1      25.504   3.125  51.063  1.00  0.00     0.024 C 
HETATM    3  C3  UNL     1      24.499   3.045  50.174  1.00  0.00     0.087 C 
HETATM    4  N1  UNL     1      23.294   2.284  50.349  1.00  0.00    -0.366 N 
HETATM    5  C4  UNL     1      23.018   1.340  51.399  1.00  0.00     0.041 A 
HETATM    6  C5  UNL     1      21.653   1.060  51.432  1.00  0.00     0.032 A 
HETATM    7  C6  UNL     1      21.162   0.172  52.370  1.00  0.00     0.026 A 
HETATM    8  C7  UNL     1      22.045  -0.424  53.263  1.00  0.00     0.034 A 
HETATM    9 CL1  UNL     1      21.458  -1.566  54.480  1.00  0.00    -0.084 Cl
HETATM   10  C8  UNL     1      23.397  -0.153  53.238  1.00  0.00     0.036 A 
HETATM   11  C9  UNL     1      23.884   0.737  52.297  1.00  0.00     0.002 A 
HETATM   12  C10 UNL     1      25.366   0.983  52.330  1.00  0.00     0.196 C 
HETATM   13  H5  UNL     1      22.551   2.439  49.637  1.00  0.00     0.165 HD
ENDROOT
BRANCH  12  14
HETATM   14  O2  UNL     1      26.000   0.250  53.319  1.00  0.00    -0.338 OA
BRANCH  14  15
HETATM   15  C11 UNL     1      27.319  -0.103  53.390  1.00  0.00     0.069 A 
HETATM   16  C12 UNL     1      27.559  -1.429  53.032  1.00  0.00     0.037 A 
HETATM   17  C13 UNL     1      28.847  -1.940  53.052  1.00  0.00     0.003 A 
HETATM   18  C14 UNL     1      29.922  -1.145  53.428  1.00  0.00     0.000 A 
HETATM   19  C15 UNL     1      29.685   0.157  53.779  1.00  0.00     0.003 A 
HETATM   20  C16 UNL     1      28.413   0.653  53.756  1.00  0.00     0.037 A 
ENDBRANCH  14  15
ENDBRANCH  12  14
BRANCH   1  21
HETATM   21  O1  UNL     1      24.827   3.116  53.348  1.00  0.00    -0.389 OA
HETATM   22  H1  UNL     1      23.868   3.003  53.243  1.00  0.00     0.210 HD
ENDBRANCH   1  21
TORSDOF 3
ENDMDL
MODEL 2
REMARK VINA RESULT:      -7.9      2.223      4.905
REMARK  3 active torsions:
REMARK  status: ('A' for Active; 'I' for Inactive)
REMARK    1  A    between atoms: O1_1  and  C1_2 
REMARK    2  A    between atoms: C10_13  and  O2_14 
REMARK    3  A    between atoms: O2_14  and  C11_15 
ROOT
HETATM    1  C1  UNL     1      26.964   0.141  52.279  1.00  0.00     0.176 C 
HETATM    2  C2  UNL     1      28.027   0.218  53.318  1.00  0.00     0.024 C 
HETATM    3  C3  UNL     1      27.907  -0.016  54.636  1.00  0.00     0.087 C 
HETATM    4  N1  UNL     1      26.695  -0.393  55.306  1.00  0.00    -0.366 N 
HETATM    5  C4  UNL     1      25.371  -0.413  54.743  1.00  0.00     0.041 A 
HETATM    6  C5  UNL     1      24.519  -1.140  55.572  1.00  0.00     0.032 A 
HETATM    7  C6  UNL     1      23.190  -1.289  55.221  1.00  0.00     0.026 A 
HETATM    8  C7  UNL     1      22.733  -0.707  54.044  1.00  0.00     0.034 A 
HETATM    9 CL1  UNL     1      21.040  -0.873  53.557  1.00  0.00    -0.084 Cl
HETATM   10  C8  UNL     1      23.569   0.014  53.218  1.00  0.00     0.036 A 
HETATM   11  C9  UNL     1      24.898   0.160  53.573  1.00  0.00     0.002 A 
HETATM   12  C10 UNL     1      25.750   0.957  52.625  1.00  0.00     0.196 C 
HETATM   13  H5  UNL     1      26.795  -0.680  56.302  1.00  0.00     0.165 HD
ENDROOT
BRANCH  12  14
HETATM   14  O2  UNL     1      25.030   1.423  51.537  1.00  0.00    -0.338 OA
BRANCH  14  15
HETATM   15  C11 UNL     1      25.285   2.527  50.770  1.00  0.00     0.069 A 
HETATM   16  C12 UNL     1      24.151   3.298  50.516  1.00  0.00     0.037 A 
HETATM   17  C13 UNL     1      24.243   4.451  49.752  1.00  0.00     0.003 A 
HETATM   18  C14 UNL     1      25.461   4.861  49.227  1.00  0.00     0.000 A 
HETATM   19  C15 UNL     1      26.573   4.103  49.478  1.00  0.00     0.003 A 
HETATM   20  C16 UNL     1      26.474   2.968  50.231  1.00  0.00     0.037 A 
ENDBRANCH  14  15
ENDBRANCH  12  14
BRANCH   1  21
HETATM   21  O1  UNL     1      26.679  -1.169  51.925  1.00  0.00    -0.389 OA
HETATM   22  H1  UNL     1      25.985  -1.268  51.253  1.00  0.00     0.210 HD
ENDBRANCH   1  21
TORSDOF 3
ENDMDL
MODEL 3
REMARK VINA RESULT:      -7.5      3.073      5.546
REMARK  3 active torsions:
REMARK  status: ('A' for Active; 'I' for Inactive)
REMARK    1  A    between atoms: O1_1  and  C1_2 
REMARK    2  A    between atoms: C10_13  and  O2_14 
REMARK    3  A    between atoms: O2_14  and  C11_15 
ROOT
HETATM    1  C1  UNL     1      24.875   2.235  53.508  1.00  0.00     0.176 C 
HETATM    2  C2  UNL     1      26.313   1.972  53.787  1.00  0.00     0.024 C 
HETATM    3  C3  UNL     1      27.365   2.220  52.989  1.00  0.00     0.087 C 
HETATM    4  N1  UNL     1      27.293   2.800  51.677  1.00  0.00    -0.366 N 
HETATM    5  C4  UNL     1      26.102   3.051  50.911  1.00  0.00     0.041 A 
HETATM    6  C5  UNL     1      26.395   3.913  49.856  1.00  0.00     0.032 A 
HETATM    7  C6  UNL     1      25.390   4.292  48.987  1.00  0.00     0.026 A 
HETATM    8  C7  UNL     1      24.104   3.802  49.186  1.00  0.00     0.034 A 
HETATM    9 CL1  UNL     1      22.788   4.261  48.096  1.00  0.00    -0.084 Cl
HETATM   10  C8  UNL     1      23.805   2.949  50.227  1.00  0.00     0.036 A 
HETATM   11  C9  UNL     1      24.814   2.573  51.095  1.00  0.00     0.002 A 
HETATM   12  C10 UNL     1      24.415   1.642  52.206  1.00  0.00     0.196 C 
HETATM   13  H5  UNL     1      28.204   3.062  51.245  1.00  0.00     0.165 HD
ENDROOT
BRANCH  12  14
HETATM   14  O2  UNL     1      23.071   1.312  52.157  1.00  0.00    -0.338 OA
BRANCH  14  15
HETATM   15  C11 UNL     1      22.410   0.367  52.892  1.00  0.00     0.069 A 
HETATM   16  C12 UNL     1      21.026   0.404  52.726  1.00  0.00     0.037 A 
HETATM   17  C13 UNL     1      20.213  -0.491  53.404  1.00  0.00     0.003 A 
HETATM   18  C14 UNL     1      20.758  -1.440  54.260  1.00  0.00     0.000 A 
HETATM   19  C15 UNL     1      22.117  -1.475  54.422  1.00  0.00     0.003 A 
HETATM   20  C16 UNL     1      22.911  -0.589  53.750  1.00  0.00     0.037 A 
ENDBRANCH  14  15
ENDBRANCH  12  14
BRANCH   1  21
HETATM   21  O1  UNL     1      24.555   3.576  53.661  1.00  0.00    -0.389 OA
HETATM   22  H1  UNL     1      25.241   4.113  54.090  1.00  0.00     0.210 HD
ENDBRANCH   1  21
TORSDOF 3
ENDMDL
MODEL 4
REMARK VINA RESULT:      -7.3      2.699      5.173
REMARK  3 active torsions:
REMARK  status: ('A' for Active; 'I' for Inactive)
REMARK    1  A    between atoms: O1_1  and  C1_2 
REMARK    2  A    between atoms: C10_13  and  O2_14 
REMARK    3  A    between atoms: O2_14  and  C11_15 
ROOT
HETATM    1  C1  UNL     1      23.707   3.879  51.886  1.00  0.00     0.176 C 
HETATM    2  C2  UNL     1      22.225   3.786  51.968  1.00  0.00     0.024 C 
HETATM    3  C3  UNL     1      21.485   2.728  52.341  1.00  0.00     0.087 C 
HETATM    4  N1  UNL     1      22.005   1.451  52.740  1.00  0.00    -0.366 N 
HETATM    5  C4  UNL     1      23.371   1.010  52.645  1.00  0.00     0.041 A 
HETATM    6  C5  UNL     1      23.552  -0.131  53.424  1.00  0.00     0.032 A 
HETATM    7  C6  UNL     1      24.797  -0.728  53.480  1.00  0.00     0.026 A 
HETATM    8  C7  UNL     1      25.845  -0.173  52.754  1.00  0.00     0.034 A 
HETATM    9 CL1  UNL     1      27.456  -0.904  52.797  1.00  0.00    -0.084 Cl
HETATM   10  C8  UNL     1      25.676   0.956  51.980  1.00  0.00     0.036 A 
HETATM   11  C9  UNL     1      24.427   1.550  51.928  1.00  0.00     0.002 A 
HETATM   12  C10 UNL     1      24.317   2.777  51.066  1.00  0.00     0.196 C 
HETATM   13  H5  UNL     1      21.313   0.782  53.138  1.00  0.00     0.165 HD
ENDROOT
BRANCH  12  14
HETATM   14  O2  UNL     1      25.518   3.099  50.455  1.00  0.00    -0.338 OA
BRANCH  14  15
HETATM   15  C11 UNL     1      25.826   4.231  49.752  1.00  0.00     0.069 A 
HETATM   16  C12 UNL     1      27.134   4.244  49.269  1.00  0.00     0.037 A 
HETATM   17  C13 UNL     1      27.601   5.324  48.536  1.00  0.00     0.003 A 
HETATM   18  C14 UNL     1      26.780   6.412  48.269  1.00  0.00     0.000 A 
HETATM   19  C15 UNL     1      25.496   6.397  48.744  1.00  0.00     0.003 A 
HETATM   20  C16 UNL     1      25.043   5.329  49.466  1.00  0.00     0.037 A 
ENDBRANCH  14  15
ENDBRANCH  12  14
BRANCH   1  21
HETATM   21  O1  UNL     1      24.286   4.034  53.138  1.00  0.00    -0.389 OA
HETATM   22  H1  UNL     1      23.783   3.644  53.871  1.00  0.00     0.210 HD
ENDBRANCH   1  21
TORSDOF 3
ENDMDL
MODEL 5
REMARK VINA RESULT:      -7.2      3.161      4.518
REMARK  3 active torsions:
REMARK  status: ('A' for Active; 'I' for Inactive)
REMARK    1  A    between atoms: O1_1  and  C1_2 
REMARK    2  A    between atoms: C10_13  and  O2_14 
REMARK    3  A    between atoms: O2_14  and  C11_15 
ROOT
HETATM    1  C1  UNL     1      23.418   1.881  51.320  1.00  0.00     0.176 C 
HETATM    2  C2  UNL     1      22.394   2.573  52.148  1.00  0.00     0.024 C 
HETATM    3  C3  UNL     1      22.226   3.896  52.311  1.00  0.00     0.087 C 
HETATM    4  N1  UNL     1      23.028   4.918  51.699  1.00  0.00    -0.366 N 
HETATM    5  C4  UNL     1      24.247   4.727  50.961  1.00  0.00     0.041 A 
HETATM    6  C5  UNL     1      24.551   5.884  50.247  1.00  0.00     0.032 A 
HETATM    7  C6  UNL     1      25.688   5.923  49.462  1.00  0.00     0.026 A 
HETATM    8  C7  UNL     1      26.506   4.801  49.403  1.00  0.00     0.034 A 
HETATM    9 CL1  UNL     1      27.971   4.807  48.411  1.00  0.00    -0.084 Cl
HETATM   10  C8  UNL     1      26.214   3.651  50.106  1.00  0.00     0.036 A 
HETATM   11  C9  UNL     1      25.074   3.616  50.889  1.00  0.00     0.002 A 
HETATM   12  C10 UNL     1      24.819   2.331  51.625  1.00  0.00     0.196 C 
HETATM   13  H5  UNL     1      22.682   5.894  51.808  1.00  0.00     0.165 HD
ENDROOT
BRANCH  12  14
HETATM   14  O2  UNL     1      25.802   1.385  51.386  1.00  0.00    -0.338 OA
BRANCH  14  15
HETATM   15  C11 UNL     1      26.828   1.012  52.210  1.00  0.00     0.069 A 
HETATM   16  C12 UNL     1      26.942  -0.370  52.363  1.00  0.00     0.037 A 
HETATM   17  C13 UNL     1      27.934  -0.908  53.167  1.00  0.00     0.003 A 
HETATM   18  C14 UNL     1      28.832  -0.086  53.836  1.00  0.00     0.000 A 
HETATM   19  C15 UNL     1      28.719   1.270  53.684  1.00  0.00     0.003 A 
HETATM   20  C16 UNL     1      27.738   1.793  52.890  1.00  0.00     0.037 A 
ENDBRANCH  14  15
ENDBRANCH  12  14
BRANCH   1  21
HETATM   21  O1  UNL     1      23.099   1.911  49.970  1.00  0.00    -0.389 OA
HETATM   22  H1  UNL     1      23.800   1.592  49.378  1.00  0.00     0.210 HD
ENDBRANCH   1  21
TORSDOF 3
ENDMDL
MODEL 6
REMARK VINA RESULT:      -7.2      2.501      3.827
REMARK  3 active torsions:
REMARK  status: ('A' for Active; 'I' for Inactive)
REMARK    1  A    between atoms: O1_1  and  C1_2 
REMARK    2  A    between atoms: C10_13  and  O2_14 
REMARK    3  A    between atoms: O2_14  and  C11_15 
ROOT
HETATM    1  C1  UNL     1      22.871  -0.186  53.742  1.00  0.00     0.176 C 
HETATM    2  C2  UNL     1      21.671  -0.287  54.615  1.00  0.00     0.024 C 
HETATM    3  C3  UNL     1      20.393  -0.031  54.289  1.00  0.00     0.087 C 
HETATM    4  N1  UNL     1      19.935   0.402  52.999  1.00  0.00    -0.366 N 
HETATM    5  C4  UNL     1      20.753   0.812  51.889  1.00  0.00     0.041 A 
HETATM    6  C5  UNL     1      19.988   0.836  50.725  1.00  0.00     0.032 A 
HETATM    7  C6  UNL     1      20.576   1.203  49.529  1.00  0.00     0.026 A 
HETATM    8  C7  UNL     1      21.924   1.542  49.516  1.00  0.00     0.034 A 
HETATM    9 CL1  UNL     1      22.717   2.018  48.008  1.00  0.00    -0.084 Cl
HETATM   10  C8  UNL     1      22.690   1.520  50.663  1.00  0.00     0.036 A 
HETATM   11  C9  UNL     1      22.096   1.151  51.857  1.00  0.00     0.002 A 
HETATM   12  C10 UNL     1      22.992   1.151  53.065  1.00  0.00     0.196 C 
HETATM   13  H5  UNL     1      18.903   0.418  52.864  1.00  0.00     0.165 HD
ENDROOT
BRANCH  12  14
HETATM   14  O2  UNL     1      24.286   1.537  52.760  1.00  0.00    -0.338 OA
BRANCH  14  15
HETATM   15  C11 UNL     1      25.455   0.948  53.157  1.00  0.00     0.069 A 
HETATM   16  C12 UNL     1      26.047   0.168  52.164  1.00  0.00     0.037 A 
HETATM   17  C13 UNL     1      27.239  -0.496  52.410  1.00  0.00     0.003 A 
HETATM   18  C14 UNL     1      27.865  -0.399  53.647  1.00  0.00     0.000 A 
HETATM   19  C15 UNL     1      27.282   0.367  54.620  1.00  0.00     0.003 A 
HETATM   20  C16 UNL     1      26.107   1.018  54.369  1.00  0.00     0.037 A 
ENDBRANCH  14  15
ENDBRANCH  12  14
BRANCH   1  21
HETATM   21  O1  UNL     1      22.975  -1.266  52.876  1.00  0.00    -0.389 OA
HETATM   22  H1  UNL     1      22.658  -1.097  51.974  1.00  0.00     0.210 HD
ENDBRANCH   1  21
TORSDOF 3
ENDMDL
MODEL 7
REMARK VINA RESULT:      -7.2      3.803      6.205
REMARK  3 active torsions:
REMARK  status: ('A' for Active; 'I' for Inactive)
REMARK    1  A    between atoms: O1_1  and  C1_2 
REMARK    2  A    between atoms: C10_13  and  O2_14 
REMARK    3  A    between atoms: O2_14  and  C11_15 
ROOT
HETATM    1  C1  UNL     1      20.234   1.295  51.783  1.00  0.00     0.176 C 
HETATM    2  C2  UNL     1      18.931   0.594  51.935  1.00  0.00     0.024 C 
HETATM    3  C3  UNL     1      18.642  -0.440  52.743  1.00  0.00     0.087 C 
HETATM    4  N1  UNL     1      19.567  -1.082  53.634  1.00  0.00    -0.366 N 
HETATM    5  C4  UNL     1      20.988  -0.868  53.699  1.00  0.00     0.041 A 
HETATM    6  C5  UNL     1      21.490  -1.402  54.884  1.00  0.00     0.032 A 
HETATM    7  C6  UNL     1      22.841  -1.308  55.156  1.00  0.00     0.026 A 
HETATM    8  C7  UNL     1      23.673  -0.680  54.236  1.00  0.00     0.034 A 
HETATM    9 CL1  UNL     1      25.409  -0.537  54.543  1.00  0.00    -0.084 Cl
HETATM   10  C8  UNL     1      23.186  -0.149  53.060  1.00  0.00     0.036 A 
HETATM   11  C9  UNL     1      21.832  -0.245  52.793  1.00  0.00     0.002 A 
HETATM   12  C10 UNL     1      21.372   0.356  51.494  1.00  0.00     0.196 C 
HETATM   13  H5  UNL     1      19.156  -1.772  54.297  1.00  0.00     0.165 HD
ENDROOT
BRANCH  12  14
HETATM   14  O2  UNL     1      22.417   0.909  50.772  1.00  0.00    -0.338 OA
BRANCH  14  15
HETATM   15  C11 UNL     1      22.344   1.780  49.720  1.00  0.00     0.069 A 
HETATM   16  C12 UNL     1      22.960   3.005  49.970  1.00  0.00     0.037 A 
HETATM   17  C13 UNL     1      22.972   3.997  49.001  1.00  0.00     0.003 A 
HETATM   18  C14 UNL     1      22.373   3.791  47.765  1.00  0.00     0.000 A 
HETATM   19  C15 UNL     1      21.769   2.586  47.521  1.00  0.00     0.003 A 
HETATM   20  C16 UNL     1      21.761   1.615  48.481  1.00  0.00     0.037 A 
ENDBRANCH  14  15
ENDBRANCH  12  14
BRANCH   1  21
HETATM   21  O1  UNL     1      20.479   2.168  52.833  1.00  0.00    -0.389 OA
HETATM   22  H1  UNL     1      19.829   2.131  53.554  1.00  0.00     0.210 HD
ENDBRANCH   1  21
TORSDOF 3
ENDMDL
MODEL 8
REMARK VINA RESULT:      -7.1      2.683      6.181
REMARK  3 active torsions:
REMARK  status: ('A' for Active; 'I' for Inactive)
REMARK    1  A    between atoms: O1_1  and  C1_2 
REMARK    2  A    between atoms: C10_13  and  O2_14 
REMARK    3  A    between atoms: O2_14  and  C11_15 
ROOT
HETATM    1  C1  UNL     1      22.344   2.707  51.530  1.00  0.00     0.176 C 
HETATM    2  C2  UNL     1      22.358   4.080  52.104  1.00  0.00     0.024 C 
HETATM    3  C3  UNL     1      23.291   4.630  52.898  1.00  0.00     0.087 C 
HETATM    4  N1  UNL     1      24.483   3.974  53.357  1.00  0.00    -0.366 N 
HETATM    5  C4  UNL     1      24.809   2.581  53.210  1.00  0.00     0.041 A 
HETATM    6  C5  UNL     1      26.164   2.386  53.471  1.00  0.00     0.032 A 
HETATM    7  C6  UNL     1      26.698   1.114  53.387  1.00  0.00     0.026 A 
HETATM    8  C7  UNL     1      25.866   0.054  53.043  1.00  0.00     0.034 A 
HETATM    9 CL1  UNL     1      26.508  -1.591  52.924  1.00  0.00    -0.084 Cl
HETATM   10  C8  UNL     1      24.525   0.238  52.783  1.00  0.00     0.036 A 
HETATM   11  C9  UNL     1      23.995   1.513  52.868  1.00  0.00     0.002 A 
HETATM   12  C10 UNL     1      22.527   1.637  52.571  1.00  0.00     0.196 C 
HETATM   13  H5  UNL     1      25.176   4.579  53.845  1.00  0.00     0.165 HD
ENDROOT
BRANCH  12  14
HETATM   14  O2  UNL     1      21.948   0.417  52.263  1.00  0.00    -0.338 OA
BRANCH  14  15
HETATM   15  C11 UNL     1      20.616   0.117  52.175  1.00  0.00     0.069 A 
HETATM   16  C12 UNL     1      20.128  -0.566  53.288  1.00  0.00     0.037 A 
HETATM   17  C13 UNL     1      18.795  -0.943  53.353  1.00  0.00     0.003 A 
HETATM   18  C14 UNL     1      17.922  -0.648  52.314  1.00  0.00     0.000 A 
HETATM   19  C15 UNL     1      18.403   0.023  51.222  1.00  0.00     0.003 A 
HETATM   20  C16 UNL     1      19.718   0.390  51.166  1.00  0.00     0.037 A 
ENDBRANCH  14  15
ENDBRANCH  12  14
BRANCH   1  21
HETATM   21  O1  UNL     1      23.201   2.589  50.446  1.00  0.00    -0.389 OA
HETATM   22  H1  UNL     1      22.928   3.083  49.656  1.00  0.00     0.210 HD
ENDBRANCH   1  21
TORSDOF 3
ENDMDL
MODEL 9
REMARK VINA RESULT:      -6.8      4.193      6.630
REMARK  3 active torsions:
REMARK  status: ('A' for Active; 'I' for Inactive)
REMARK    1  A    between atoms: O1_1  and  C1_2 
REMARK    2  A    between atoms: C10_13  and  O2_14 
REMARK    3  A    between atoms: O2_14  and  C11_15 
ROOT
HETATM    1  C1  UNL     1      24.162   6.797  50.922  1.00  0.00     0.176 C 
HETATM    2  C2  UNL     1      22.707   7.054  50.746  1.00  0.00     0.024 C 
HETATM    3  C3  UNL     1      21.702   6.164  50.804  1.00  0.00     0.087 C 
HETATM    4  N1  UNL     1      21.850   4.758  51.054  1.00  0.00    -0.366 N 
HETATM    5  C4  UNL     1      23.083   4.019  51.104  1.00  0.00     0.041 A 
HETATM    6  C5  UNL     1      22.862   2.775  51.690  1.00  0.00     0.032 A 
HETATM    7  C6  UNL     1      23.916   1.894  51.841  1.00  0.00     0.026 A 
HETATM    8  C7  UNL     1      25.180   2.273  51.402  1.00  0.00     0.034 A 
HETATM    9 CL1  UNL     1      26.558   1.177  51.576  1.00  0.00    -0.084 Cl
HETATM   10  C8  UNL     1      25.409   3.502  50.820  1.00  0.00     0.036 A 
HETATM   11  C9  UNL     1      24.350   4.380  50.672  1.00  0.00     0.002 A 
HETATM   12  C10 UNL     1      24.674   5.700  50.030  1.00  0.00     0.196 C 
HETATM   13  H5  UNL     1      20.968   4.228  51.212  1.00  0.00     0.165 HD
ENDROOT
BRANCH  12  14
HETATM   14  O2  UNL     1      26.011   5.803  49.686  1.00  0.00    -0.338 OA
BRANCH  14  15
HETATM   15  C11 UNL     1      26.567   6.549  48.683  1.00  0.00     0.069 A 
HETATM   16  C12 UNL     1      27.910   6.256  48.454  1.00  0.00     0.037 A 
HETATM   17  C13 UNL     1      28.617   6.927  47.468  1.00  0.00     0.003 A 
HETATM   18  C14 UNL     1      28.004   7.902  46.692  1.00  0.00     0.000 A 
HETATM   19  C15 UNL     1      26.685   8.189  46.919  1.00  0.00     0.003 A 
HETATM   20  C16 UNL     1      25.995   7.523  47.892  1.00  0.00     0.037 A 
ENDBRANCH  14  15
ENDBRANCH  12  14
BRANCH   1  21
HETATM   21  O1  UNL     1      24.503   6.642  52.258  1.00  0.00    -0.389 OA
HETATM   22  H1  UNL     1      25.396   6.947  52.488  1.00  0.00     0.210 HD
ENDBRANCH   1  21
TORSDOF 3
ENDMDL
