MODEL 1
REMARK VINA RESULT:      -5.8      0.000      0.000
REMARK  9 active torsions:
REMARK  status: ('A' for Active; 'I' for Inactive)
REMARK    1  A    between atoms: C2_2  and  N1_3 
REMARK    2  A    between atoms: N1_3  and  C3_4 
REMARK    3  A    between atoms: C3_4  and  C4_5 
REMARK    4  A    between atoms: C4_5  and  C5_6 
REMARK    5  A    between atoms: C5_6  and  P1_8 
REMARK    6  A    between atoms: P1_8  and  C6_9 
REMARK    7  A    between atoms: C8_12  and  S1_13 
REMARK    8  A    between atoms: S1_13  and  C9_14 
REMARK    9  A    between atoms: C10_16  and  C11_17 
ROOT
HETATM    1  C6  UNL     1      26.714   6.784  48.637  1.00  0.00     0.106 A 
HETATM    2  N2  UNL     1      27.377   5.895  48.498  1.00  0.00    -0.251 NA
HETATM    3  C7  UNL     1      27.326   4.642  48.873  1.00  0.00     0.144 A 
HETATM    4  C8  UNL     1      26.230   4.367  49.584  1.00  0.00     0.069 A 
HETATM    5  S2  UNL     1      25.347   5.923  49.666  1.00  0.00    -0.061 SA
ENDROOT
BRANCH   1   6
HETATM    6  P1  UNL     1      27.065   8.467  47.970  1.00  0.00     0.006 P 
HETATM    7  H11 UNL     1      26.569   9.513  48.819  1.00  0.00     0.072 HD
BRANCH   6   8
HETATM    8  C5  UNL     1      28.889   8.622  47.842  1.00  0.00     0.157 C 
HETATM    9  O1  UNL     1      29.551   8.443  46.829  1.00  0.00    -0.292 OA
BRANCH   8  10
HETATM   10  C4  UNL     1      29.688   9.003  49.069  1.00  0.00     0.114 C 
BRANCH  10  11
HETATM   11  C3  UNL     1      30.798   7.996  49.260  1.00  0.00     0.277 C 
BRANCH  11  12
HETATM   12  N1  UNL     1      30.357   6.638  49.228  1.00  0.00     0.083 N 
HETATM   13  H6  UNL     1      29.587   6.545  48.553  1.00  0.00     0.315 HD
BRANCH  12  14
HETATM   14  C2  UNL     1      31.433   5.755  48.904  1.00  0.00     0.265 C 
HETATM   15  C1  UNL     1      31.119   4.918  47.658  1.00  0.00     0.037 C 
ENDBRANCH  12  14
ENDBRANCH  11  12
ENDBRANCH  10  11
ENDBRANCH   8  10
ENDBRANCH   6   8
ENDBRANCH   1   6
BRANCH   4  16
HETATM   16  S1  UNL     1      25.380   2.985  50.455  1.00  0.00    -0.036 SA
BRANCH  16  17
HETATM   17  C9  UNL     1      26.372   2.490  51.855  1.00  0.00     0.209 A 
HETATM   18  N3  UNL     1      27.582   2.221  52.088  1.00  0.00    -0.227 NA
HETATM   19  C10 UNL     1      27.317   1.960  53.444  1.00  0.00     0.263 A 
HETATM   20  O2  UNL     1      26.010   2.261  53.145  1.00  0.00    -0.300 OA
BRANCH  19  21
HETATM   21  C11 UNL     1      27.596   0.555  53.939  1.00  0.00    -0.005 C 
HETATM   22  C12 UNL     1      27.594  -0.452  52.835  1.00  0.00     0.019 C 
HETATM   23  C13 UNL     1      26.542   0.242  54.981  1.00  0.00     0.019 C 
HETATM   24  C14 UNL     1      28.923   0.637  54.679  1.00  0.00     0.019 C 
ENDBRANCH  19  21
ENDBRANCH  16  17
ENDBRANCH   4  16
TORSDOF 9
ENDMDL
MODEL 2
REMARK VINA RESULT:      -5.8      3.068      4.578
REMARK  9 active torsions:
REMARK  status: ('A' for Active; 'I' for Inactive)
REMARK    1  A    between atoms: C2_2  and  N1_3 
REMARK    2  A    between atoms: N1_3  and  C3_4 
REMARK    3  A    between atoms: C3_4  and  C4_5 
REMARK    4  A    between atoms: C4_5  and  C5_6 
REMARK    5  A    between atoms: C5_6  and  P1_8 
REMARK    6  A    between atoms: P1_8  and  C6_9 
REMARK    7  A    between atoms: C8_12  and  S1_13 
REMARK    8  A    between atoms: S1_13  and  C9_14 
REMARK    9  A    between atoms: C10_16  and  C11_17 
ROOT
HETATM    1  C6  UNL     1      23.311   3.679  52.021  1.00  0.00     0.106 A 
HETATM    2  N2  UNL     1      22.424   3.018  51.869  1.00  0.00    -0.251 NA
HETATM    3  C7  UNL     1      22.128   1.784  52.194  1.00  0.00     0.144 A 
HETATM    4  C8  UNL     1      23.117   1.182  52.860  1.00  0.00     0.069 A 
HETATM    5  S2  UNL     1      24.402   2.425  52.974  1.00  0.00    -0.061 SA
ENDROOT
BRANCH   1   6
HETATM    6  P1  UNL     1      23.434   5.421  51.429  1.00  0.00     0.006 P 
HETATM    7  H11 UNL     1      23.622   6.358  52.501  1.00  0.00     0.072 HD
BRANCH   6   8
HETATM    8  C5  UNL     1      24.884   5.504  50.308  1.00  0.00     0.157 C 
HETATM    9  O1  UNL     1      25.770   4.665  50.223  1.00  0.00    -0.292 OA
BRANCH   8  10
HETATM   10  C4  UNL     1      25.041   6.694  49.387  1.00  0.00     0.114 C 
BRANCH  10  11
HETATM   11  C3  UNL     1      25.990   7.682  50.025  1.00  0.00     0.277 C 
BRANCH  11  12
HETATM   12  N1  UNL     1      27.357   7.486  49.662  1.00  0.00     0.083 N 
HETATM   13  H6  UNL     1      27.796   6.837  50.327  1.00  0.00     0.315 HD
BRANCH  12  14
HETATM   14  C2  UNL     1      27.468   7.001  48.321  1.00  0.00     0.265 C 
HETATM   15  C1  UNL     1      28.488   5.860  48.218  1.00  0.00     0.037 C 
ENDBRANCH  12  14
ENDBRANCH  11  12
ENDBRANCH  10  11
ENDBRANCH   8  10
ENDBRANCH   6   8
ENDBRANCH   1   6
BRANCH   4  16
HETATM   16  S1  UNL     1      23.560  -0.418  53.653  1.00  0.00    -0.036 SA
BRANCH  16  17
HETATM   17  C9  UNL     1      25.325  -0.656  53.525  1.00  0.00     0.209 A 
HETATM   18  N3  UNL     1      26.252  -1.134  54.235  1.00  0.00    -0.227 NA
HETATM   19  C10 UNL     1      27.219  -0.851  53.254  1.00  0.00     0.263 A 
HETATM   20  O2  UNL     1      26.179  -0.340  52.516  1.00  0.00    -0.300 OA
BRANCH  19  21
HETATM   21  C11 UNL     1      28.321   0.116  53.638  1.00  0.00    -0.005 C 
HETATM   22  C12 UNL     1      28.133   1.469  53.030  1.00  0.00     0.019 C 
HETATM   23  C13 UNL     1      29.628  -0.514  53.201  1.00  0.00     0.019 C 
HETATM   24  C14 UNL     1      28.340   0.135  55.160  1.00  0.00     0.019 C 
ENDBRANCH  19  21
ENDBRANCH  16  17
ENDBRANCH   4  16
TORSDOF 9
ENDMDL
MODEL 3
REMARK VINA RESULT:      -5.8      1.917      2.349
REMARK  9 active torsions:
REMARK  status: ('A' for Active; 'I' for Inactive)
REMARK    1  A    between atoms: C2_2  and  N1_3 
REMARK    2  A    between atoms: N1_3  and  C3_4 
REMARK    3  A    between atoms: C3_4  and  C4_5 
REMARK    4  A    between atoms: C4_5  and  C5_6 
REMARK    5  A    between atoms: C5_6  and  P1_8 
REMARK    6  A    between atoms: P1_8  and  C6_9 
REMARK    7  A    between atoms: C8_12  and  S1_13 
REMARK    8  A    between atoms: S1_13  and  C9_14 
REMARK    9  A    between atoms: C10_16  and  C11_17 
ROOT
HETATM    1  C6  UNL     1      25.716   5.386  49.611  1.00  0.00     0.106 A 
HETATM    2  N2  UNL     1      24.951   5.577  50.403  1.00  0.00    -0.251 NA
HETATM    3  C7  UNL     1      24.230   4.816  51.188  1.00  0.00     0.144 A 
HETATM    4  C8  UNL     1      24.464   3.516  50.993  1.00  0.00     0.069 A 
HETATM    5  S2  UNL     1      25.702   3.472  49.700  1.00  0.00    -0.061 SA
ENDROOT
BRANCH   1   6
HETATM    6  P1  UNL     1      26.583   6.702  48.654  1.00  0.00     0.006 P 
HETATM    7  H11 UNL     1      26.768   7.907  49.411  1.00  0.00     0.072 HD
BRANCH   6   8
HETATM    8  C5  UNL     1      28.228   6.032  48.193  1.00  0.00     0.157 C 
HETATM    9  O1  UNL     1      28.606   4.883  48.373  1.00  0.00    -0.292 OA
BRANCH   8  10
HETATM   10  C4  UNL     1      29.238   6.941  47.530  1.00  0.00     0.114 C 
BRANCH  10  11
HETATM   11  C3  UNL     1      30.162   7.498  48.588  1.00  0.00     0.277 C 
BRANCH  11  12
HETATM   12  N1  UNL     1      30.703   6.506  49.461  1.00  0.00     0.083 N 
HETATM   13  H6  UNL     1      30.129   5.656  49.408  1.00  0.00     0.315 HD
BRANCH  12  14
HETATM   14  C2  UNL     1      32.068   6.227  49.139  1.00  0.00     0.265 C 
HETATM   15  C1  UNL     1      32.198   4.946  48.306  1.00  0.00     0.037 C 
ENDBRANCH  12  14
ENDBRANCH  11  12
ENDBRANCH  10  11
ENDBRANCH   8  10
ENDBRANCH   6   8
ENDBRANCH   1   6
BRANCH   4  16
HETATM   16  S1  UNL     1      23.956   1.850  51.590  1.00  0.00    -0.036 SA
BRANCH  16  17
HETATM   17  C9  UNL     1      25.418   0.922  52.024  1.00  0.00     0.209 A 
HETATM   18  N3  UNL     1      25.695  -0.136  52.652  1.00  0.00    -0.227 NA
HETATM   19  C10 UNL     1      27.072   0.025  52.421  1.00  0.00     0.263 A 
HETATM   20  O2  UNL     1      26.726   1.170  51.746  1.00  0.00    -0.300 OA
BRANCH  19  21
HETATM   21  C11 UNL     1      27.957   0.194  53.640  1.00  0.00    -0.005 C 
HETATM   22  C12 UNL     1      27.180   0.194  54.916  1.00  0.00     0.019 C 
HETATM   23  C13 UNL     1      28.717   1.491  53.451  1.00  0.00     0.019 C 
HETATM   24  C14 UNL     1      28.986  -0.924  53.558  1.00  0.00     0.019 C 
ENDBRANCH  19  21
ENDBRANCH  16  17
ENDBRANCH   4  16
TORSDOF 9
ENDMDL
MODEL 4
REMARK VINA RESULT:      -5.6      2.013      2.547
REMARK  9 active torsions:
REMARK  status: ('A' for Active; 'I' for Inactive)
REMARK    1  A    between atoms: C2_2  and  N1_3 
REMARK    2  A    between atoms: N1_3  and  C3_4 
REMARK    3  A    between atoms: C3_4  and  C4_5 
REMARK    4  A    between atoms: C4_5  and  C5_6 
REMARK    5  A    between atoms: C5_6  and  P1_8 
REMARK    6  A    between atoms: P1_8  and  C6_9 
REMARK    7  A    between atoms: C8_12  and  S1_13 
REMARK    8  A    between atoms: S1_13  and  C9_14 
REMARK    9  A    between atoms: C10_16  and  C11_17 
ROOT
HETATM    1  C6  UNL     1      27.642   6.027  48.505  1.00  0.00     0.106 A 
HETATM    2  N2  UNL     1      27.674   4.918  48.637  1.00  0.00    -0.251 NA
HETATM    3  C7  UNL     1      26.898   4.038  49.220  1.00  0.00     0.144 A 
HETATM    4  C8  UNL     1      25.826   4.598  49.785  1.00  0.00     0.069 A 
HETATM    5  S2  UNL     1      26.001   6.347  49.441  1.00  0.00    -0.061 SA
ENDROOT
BRANCH   1   6
HETATM    6  P1  UNL     1      28.917   7.012  47.608  1.00  0.00     0.006 P 
HETATM    7  H11 UNL     1      28.743   8.427  47.777  1.00  0.00     0.072 HD
BRANCH   6   8
HETATM    8  C5  UNL     1      30.548   6.528  48.297  1.00  0.00     0.157 C 
HETATM    9  O1  UNL     1      31.188   7.159  49.126  1.00  0.00    -0.292 OA
BRANCH   8  10
HETATM   10  C4  UNL     1      31.197   5.244  47.830  1.00  0.00     0.114 C 
BRANCH  10  11
HETATM   11  C3  UNL     1      32.676   5.487  47.637  1.00  0.00     0.277 C 
BRANCH  11  12
HETATM   12  N1  UNL     1      33.467   5.168  48.782  1.00  0.00     0.083 N 
HETATM   13  H6  UNL     1      33.004   4.424  49.319  1.00  0.00     0.315 HD
BRANCH  12  14
HETATM   14  C2  UNL     1      34.789   4.781  48.401  1.00  0.00     0.265 C 
HETATM   15  C1  UNL     1      34.781   3.484  47.582  1.00  0.00     0.037 C 
ENDBRANCH  12  14
ENDBRANCH  11  12
ENDBRANCH  10  11
ENDBRANCH   8  10
ENDBRANCH   6   8
ENDBRANCH   1   6
BRANCH   4  16
HETATM   16  S1  UNL     1      24.313   4.179  50.745  1.00  0.00    -0.036 SA
BRANCH  16  17
HETATM   17  C9  UNL     1      24.694   2.846  51.870  1.00  0.00     0.209 A 
HETATM   18  N3  UNL     1      24.887   2.702  53.108  1.00  0.00    -0.227 NA
HETATM   19  C10 UNL     1      25.103   1.320  52.966  1.00  0.00     0.263 A 
HETATM   20  O2  UNL     1      24.886   1.523  51.625  1.00  0.00    -0.300 OA
BRANCH  19  21
HETATM   21  C11 UNL     1      26.469   0.795  53.362  1.00  0.00    -0.005 C 
HETATM   22  C12 UNL     1      27.509   1.867  53.386  1.00  0.00     0.019 C 
HETATM   23  C13 UNL     1      26.820  -0.300  52.376  1.00  0.00     0.019 C 
HETATM   24  C14 UNL     1      26.272   0.115  54.710  1.00  0.00     0.019 C 
ENDBRANCH  19  21
ENDBRANCH  16  17
ENDBRANCH   4  16
TORSDOF 9
ENDMDL
MODEL 5
REMARK VINA RESULT:      -5.6      4.370      5.317
REMARK  9 active torsions:
REMARK  status: ('A' for Active; 'I' for Inactive)
REMARK    1  A    between atoms: C2_2  and  N1_3 
REMARK    2  A    between atoms: N1_3  and  C3_4 
REMARK    3  A    between atoms: C3_4  and  C4_5 
REMARK    4  A    between atoms: C4_5  and  C5_6 
REMARK    5  A    between atoms: C5_6  and  P1_8 
REMARK    6  A    between atoms: P1_8  and  C6_9 
REMARK    7  A    between atoms: C8_12  and  S1_13 
REMARK    8  A    between atoms: S1_13  and  C9_14 
REMARK    9  A    between atoms: C10_16  and  C11_17 
ROOT
HETATM    1  C6  UNL     1      22.060   3.274  51.254  1.00  0.00     0.106 A 
HETATM    2  N2  UNL     1      22.954   3.464  51.896  1.00  0.00    -0.251 NA
HETATM    3  C7  UNL     1      23.727   2.716  52.643  1.00  0.00     0.144 A 
HETATM    4  C8  UNL     1      23.358   1.433  52.632  1.00  0.00     0.069 A 
HETATM    5  S2  UNL     1      21.931   1.386  51.552  1.00  0.00    -0.061 SA
ENDROOT
BRANCH   1   6
HETATM    6  P1  UNL     1      21.163   4.569  50.296  1.00  0.00     0.006 P 
HETATM    7  H11 UNL     1      19.843   4.818  50.802  1.00  0.00     0.072 HD
BRANCH   6   8
HETATM    8  C5  UNL     1      22.149   6.111  50.429  1.00  0.00     0.157 C 
HETATM    9  O1  UNL     1      21.849   7.096  51.088  1.00  0.00    -0.292 OA
BRANCH   8  10
HETATM   10  C4  UNL     1      23.457   6.221  49.675  1.00  0.00     0.114 C 
BRANCH  10  11
HETATM   11  C3  UNL     1      24.577   6.426  50.669  1.00  0.00     0.277 C 
BRANCH  11  12
HETATM   12  N1  UNL     1      25.823   5.866  50.256  1.00  0.00     0.083 N 
HETATM   13  H6  UNL     1      26.352   5.564  51.084  1.00  0.00     0.315 HD
BRANCH  12  14
HETATM   14  C2  UNL     1      25.623   4.778  49.350  1.00  0.00     0.265 C 
HETATM   15  C1  UNL     1      26.190   3.468  49.910  1.00  0.00     0.037 C 
ENDBRANCH  12  14
ENDBRANCH  11  12
ENDBRANCH  10  11
ENDBRANCH   8  10
ENDBRANCH   6   8
ENDBRANCH   1   6
BRANCH   4  16
HETATM   16  S1  UNL     1      23.817  -0.209  53.327  1.00  0.00    -0.036 SA
BRANCH  16  17
HETATM   17  C9  UNL     1      25.584  -0.422  53.186  1.00  0.00     0.209 A 
HETATM   18  N3  UNL     1      26.467  -1.192  53.652  1.00  0.00    -0.227 NA
HETATM   19  C10 UNL     1      27.488  -0.537  52.942  1.00  0.00     0.263 A 
HETATM   20  O2  UNL     1      26.494   0.279  52.460  1.00  0.00    -0.300 OA
BRANCH  19  21
HETATM   21  C11 UNL     1      28.576   0.127  53.762  1.00  0.00    -0.005 C 
HETATM   22  C12 UNL     1      28.286   0.099  55.228  1.00  0.00     0.019 C 
HETATM   23  C13 UNL     1      28.707   1.546  53.247  1.00  0.00     0.019 C 
HETATM   24  C14 UNL     1      29.866  -0.588  53.388  1.00  0.00     0.019 C 
ENDBRANCH  19  21
ENDBRANCH  16  17
ENDBRANCH   4  16
TORSDOF 9
ENDMDL
MODEL 6
REMARK VINA RESULT:      -5.5      1.621      1.940
REMARK  9 active torsions:
REMARK  status: ('A' for Active; 'I' for Inactive)
REMARK    1  A    between atoms: C2_2  and  N1_3 
REMARK    2  A    between atoms: N1_3  and  C3_4 
REMARK    3  A    between atoms: C3_4  and  C4_5 
REMARK    4  A    between atoms: C4_5  and  C5_6 
REMARK    5  A    between atoms: C5_6  and  P1_8 
REMARK    6  A    between atoms: P1_8  and  C6_9 
REMARK    7  A    between atoms: C8_12  and  S1_13 
REMARK    8  A    between atoms: S1_13  and  C9_14 
REMARK    9  A    between atoms: C10_16  and  C11_17 
ROOT
HETATM    1  C6  UNL     1      27.171   6.240  48.696  1.00  0.00     0.106 A 
HETATM    2  N2  UNL     1      26.276   6.563  49.282  1.00  0.00    -0.251 NA
HETATM    3  C7  UNL     1      25.387   5.946  50.019  1.00  0.00     0.144 A 
HETATM    4  C8  UNL     1      25.602   4.629  50.081  1.00  0.00     0.069 A 
HETATM    5  S2  UNL     1      27.063   4.366  49.080  1.00  0.00    -0.061 SA
ENDROOT
BRANCH   1   6
HETATM    6  P1  UNL     1      28.258   7.376  47.733  1.00  0.00     0.006 P 
HETATM    7  H11 UNL     1      27.884   8.754  47.875  1.00  0.00     0.072 HD
BRANCH   6   8
HETATM    8  C5  UNL     1      29.963   7.155  48.373  1.00  0.00     0.157 C 
HETATM    9  O1  UNL     1      30.567   7.946  49.083  1.00  0.00    -0.292 OA
BRANCH   8  10
HETATM   10  C4  UNL     1      30.729   5.898  48.021  1.00  0.00     0.114 C 
BRANCH  10  11
HETATM   11  C3  UNL     1      31.999   5.855  48.840  1.00  0.00     0.277 C 
BRANCH  11  12
HETATM   12  N1  UNL     1      32.744   4.648  48.684  1.00  0.00     0.083 N 
HETATM   13  H6  UNL     1      32.149   3.934  48.246  1.00  0.00     0.315 HD
BRANCH  12  14
HETATM   14  C2  UNL     1      33.929   4.871  47.915  1.00  0.00     0.265 C 
HETATM   15  C1  UNL     1      35.067   5.422  48.783  1.00  0.00     0.037 C 
ENDBRANCH  12  14
ENDBRANCH  11  12
ENDBRANCH  10  11
ENDBRANCH   8  10
ENDBRANCH   6   8
ENDBRANCH   1   6
BRANCH   4  16
HETATM   16  S1  UNL     1      24.922   3.087  50.821  1.00  0.00    -0.036 SA
BRANCH  16  17
HETATM   17  C9  UNL     1      26.108   2.435  51.987  1.00  0.00     0.209 A 
HETATM   18  N3  UNL     1      27.272   1.952  51.956  1.00  0.00    -0.227 NA
HETATM   19  C10 UNL     1      27.286   1.760  53.348  1.00  0.00     0.263 A 
HETATM   20  O2  UNL     1      26.019   2.291  53.335  1.00  0.00    -0.300 OA
BRANCH  19  21
HETATM   21  C11 UNL     1      27.421   0.334  53.843  1.00  0.00    -0.005 C 
HETATM   22  C12 UNL     1      27.300  -0.668  52.741  1.00  0.00     0.019 C 
HETATM   23  C13 UNL     1      26.352   0.134  54.898  1.00  0.00     0.019 C 
HETATM   24  C14 UNL     1      28.758   0.276  54.568  1.00  0.00     0.019 C 
ENDBRANCH  19  21
ENDBRANCH  16  17
ENDBRANCH   4  16
TORSDOF 9
ENDMDL
MODEL 7
REMARK VINA RESULT:      -5.5      2.856      3.572
REMARK  9 active torsions:
REMARK  status: ('A' for Active; 'I' for Inactive)
REMARK    1  A    between atoms: C2_2  and  N1_3 
REMARK    2  A    between atoms: N1_3  and  C3_4 
REMARK    3  A    between atoms: C3_4  and  C4_5 
REMARK    4  A    between atoms: C4_5  and  C5_6 
REMARK    5  A    between atoms: C5_6  and  P1_8 
REMARK    6  A    between atoms: P1_8  and  C6_9 
REMARK    7  A    between atoms: C8_12  and  S1_13 
REMARK    8  A    between atoms: S1_13  and  C9_14 
REMARK    9  A    between atoms: C10_16  and  C11_17 
ROOT
HETATM    1  C6  UNL     1      23.551   5.874  50.928  1.00  0.00     0.106 A 
HETATM    2  N2  UNL     1      23.731   5.084  50.158  1.00  0.00    -0.251 NA
HETATM    3  C7  UNL     1      23.682   3.776  50.153  1.00  0.00     0.144 A 
HETATM    4  C8  UNL     1      23.337   3.274  51.342  1.00  0.00     0.069 A 
HETATM    5  S2  UNL     1      23.107   4.712  52.385  1.00  0.00    -0.061 SA
ENDROOT
BRANCH   1   6
HETATM    6  P1  UNL     1      23.703   7.687  50.625  1.00  0.00     0.006 P 
HETATM    7  H11 UNL     1      23.636   8.457  51.835  1.00  0.00     0.072 HD
BRANCH   6   8
HETATM    8  C5  UNL     1      25.337   7.961  49.836  1.00  0.00     0.157 C 
HETATM    9  O1  UNL     1      26.326   8.424  50.386  1.00  0.00    -0.292 OA
BRANCH   8  10
HETATM   10  C4  UNL     1      25.526   7.597  48.380  1.00  0.00     0.114 C 
BRANCH  10  11
HETATM   11  C3  UNL     1      26.787   6.775  48.243  1.00  0.00     0.277 C 
BRANCH  11  12
HETATM   12  N1  UNL     1      26.976   5.829  49.295  1.00  0.00     0.083 N 
HETATM   13  H6  UNL     1      26.075   5.647  49.755  1.00  0.00     0.315 HD
BRANCH  12  14
HETATM   14  C2  UNL     1      27.555   4.619  48.801  1.00  0.00     0.265 C 
HETATM   15  C1  UNL     1      26.837   3.383  49.358  1.00  0.00     0.037 C 
ENDBRANCH  12  14
ENDBRANCH  11  12
ENDBRANCH  10  11
ENDBRANCH   8  10
ENDBRANCH   6   8
ENDBRANCH   1   6
BRANCH   4  16
HETATM   16  S1  UNL     1      23.039   1.676  52.205  1.00  0.00    -0.036 SA
BRANCH  16  17
HETATM   17  C9  UNL     1      24.596   0.825  52.398  1.00  0.00     0.209 A 
HETATM   18  N3  UNL     1      25.039  -0.169  53.035  1.00  0.00    -0.227 NA
HETATM   19  C10 UNL     1      26.332   0.005  52.513  1.00  0.00     0.263 A 
HETATM   20  O2  UNL     1      25.808   1.081  51.838  1.00  0.00    -0.300 OA
BRANCH  19  21
HETATM   21  C11 UNL     1      27.439   0.299  53.505  1.00  0.00    -0.005 C 
HETATM   22  C12 UNL     1      26.933   0.427  54.906  1.00  0.00     0.019 C 
HETATM   23  C13 UNL     1      28.119   1.571  53.040  1.00  0.00     0.019 C 
HETATM   24  C14 UNL     1      28.455  -0.821  53.330  1.00  0.00     0.019 C 
ENDBRANCH  19  21
ENDBRANCH  16  17
ENDBRANCH   4  16
TORSDOF 9
ENDMDL
MODEL 8
REMARK VINA RESULT:      -5.5      4.170      8.514
REMARK  9 active torsions:
REMARK  status: ('A' for Active; 'I' for Inactive)
REMARK    1  A    between atoms: C2_2  and  N1_3 
REMARK    2  A    between atoms: N1_3  and  C3_4 
REMARK    3  A    between atoms: C3_4  and  C4_5 
REMARK    4  A    between atoms: C4_5  and  C5_6 
REMARK    5  A    between atoms: C5_6  and  P1_8 
REMARK    6  A    between atoms: P1_8  and  C6_9 
REMARK    7  A    between atoms: C8_12  and  S1_13 
REMARK    8  A    between atoms: S1_13  and  C9_14 
REMARK    9  A    between atoms: C10_16  and  C11_17 
ROOT
HETATM    1  C6  UNL     1      22.985   1.263  52.974  1.00  0.00     0.106 A 
HETATM    2  N2  UNL     1      23.827   1.974  53.159  1.00  0.00    -0.251 NA
HETATM    3  C7  UNL     1      24.051   3.231  52.869  1.00  0.00     0.144 A 
HETATM    4  C8  UNL     1      23.038   3.788  52.200  1.00  0.00     0.069 A 
HETATM    5  S2  UNL     1      21.835   2.472  52.032  1.00  0.00    -0.061 SA
ENDROOT
BRANCH   1   6
HETATM    6  P1  UNL     1      22.961  -0.498  53.520  1.00  0.00     0.006 P 
HETATM    7  H11 UNL     1      22.689  -1.408  52.444  1.00  0.00     0.072 HD
BRANCH   6   8
HETATM    8  C5  UNL     1      24.623  -0.868  54.204  1.00  0.00     0.157 C 
HETATM    9  O1  UNL     1      24.866  -1.176  55.362  1.00  0.00    -0.292 OA
BRANCH   8  10
HETATM   10  C4  UNL     1      25.830  -0.800  53.295  1.00  0.00     0.114 C 
BRANCH  10  11
HETATM   11  C3  UNL     1      26.806   0.209  53.853  1.00  0.00     0.277 C 
BRANCH  11  12
HETATM   12  N1  UNL     1      27.729  -0.341  54.794  1.00  0.00     0.083 N 
HETATM   13  H6  UNL     1      27.578  -1.354  54.867  1.00  0.00     0.315 HD
BRANCH  12  14
HETATM   14  C2  UNL     1      29.078  -0.047  54.423  1.00  0.00     0.265 C 
HETATM   15  C1  UNL     1      29.316   1.464  54.318  1.00  0.00     0.037 C 
ENDBRANCH  12  14
ENDBRANCH  11  12
ENDBRANCH  10  11
ENDBRANCH   8  10
ENDBRANCH   6   8
ENDBRANCH   1   6
BRANCH   4  16
HETATM   16  S1  UNL     1      22.508   5.378  51.440  1.00  0.00    -0.036 SA
BRANCH  16  17
HETATM   17  C9  UNL     1      23.953   6.247  50.853  1.00  0.00     0.209 A 
HETATM   18  N3  UNL     1      24.317   7.444  50.694  1.00  0.00    -0.227 NA
HETATM   19  C10 UNL     1      25.572   7.052  50.198  1.00  0.00     0.263 A 
HETATM   20  O2  UNL     1      25.135   5.763  50.386  1.00  0.00    -0.300 OA
BRANCH  19  21
HETATM   21  C11 UNL     1      25.904   7.456  48.775  1.00  0.00    -0.005 C 
HETATM   22  C12 UNL     1      24.771   7.212  47.832  1.00  0.00     0.019 C 
HETATM   23  C13 UNL     1      27.139   6.675  48.375  1.00  0.00     0.019 C 
HETATM   24  C14 UNL     1      26.323   8.917  48.851  1.00  0.00     0.019 C 
ENDBRANCH  19  21
ENDBRANCH  16  17
ENDBRANCH   4  16
TORSDOF 9
ENDMDL
MODEL 9
REMARK VINA RESULT:      -5.4      2.890      4.203
REMARK  9 active torsions:
REMARK  status: ('A' for Active; 'I' for Inactive)
REMARK    1  A    between atoms: C2_2  and  N1_3 
REMARK    2  A    between atoms: N1_3  and  C3_4 
REMARK    3  A    between atoms: C3_4  and  C4_5 
REMARK    4  A    between atoms: C4_5  and  C5_6 
REMARK    5  A    between atoms: C5_6  and  P1_8 
REMARK    6  A    between atoms: P1_8  and  C6_9 
REMARK    7  A    between atoms: C8_12  and  S1_13 
REMARK    8  A    between atoms: S1_13  and  C9_14 
REMARK    9  A    between atoms: C10_16  and  C11_17 
ROOT
HETATM    1  C6  UNL     1      23.526   3.806  51.422  1.00  0.00     0.106 A 
HETATM    2  N2  UNL     1      22.971   2.976  50.922  1.00  0.00    -0.251 NA
HETATM    3  C7  UNL     1      22.824   1.696  51.155  1.00  0.00     0.144 A 
HETATM    4  C8  UNL     1      23.491   1.295  52.240  1.00  0.00     0.069 A 
HETATM    5  S2  UNL     1      24.284   2.780  52.851  1.00  0.00    -0.061 SA
ENDROOT
BRANCH   1   6
HETATM    6  P1  UNL     1      23.542   5.556  50.840  1.00  0.00     0.006 P 
HETATM    7  H11 UNL     1      23.242   6.490  51.887  1.00  0.00     0.072 HD
BRANCH   6   8
HETATM    8  C5  UNL     1      25.231   5.894  50.209  1.00  0.00     0.157 C 
HETATM    9  O1  UNL     1      26.017   5.056  49.788  1.00  0.00    -0.292 OA
BRANCH   8  10
HETATM   10  C4  UNL     1      25.742   7.317  50.186  1.00  0.00     0.114 C 
BRANCH  10  11
HETATM   11  C3  UNL     1      26.603   7.507  48.959  1.00  0.00     0.277 C 
BRANCH  11  12
HETATM   12  N1  UNL     1      27.985   7.218  49.174  1.00  0.00     0.083 N 
HETATM   13  H6  UNL     1      28.195   6.276  48.821  1.00  0.00     0.315 HD
BRANCH  12  14
HETATM   14  C2  UNL     1      28.818   8.198  48.549  1.00  0.00     0.265 C 
HETATM   15  C1  UNL     1      29.036   9.413  49.458  1.00  0.00     0.037 C 
ENDBRANCH  12  14
ENDBRANCH  11  12
ENDBRANCH  10  11
ENDBRANCH   8  10
ENDBRANCH   6   8
ENDBRANCH   1   6
BRANCH   4  16
HETATM   16  S1  UNL     1      23.839  -0.202  53.252  1.00  0.00    -0.036 SA
BRANCH  16  17
HETATM   17  C9  UNL     1      25.592  -0.537  53.203  1.00  0.00     0.209 A 
HETATM   18  N3  UNL     1      26.429  -1.207  53.867  1.00  0.00    -0.227 NA
HETATM   19  C10 UNL     1      27.488  -0.812  53.031  1.00  0.00     0.263 A 
HETATM   20  O2  UNL     1      26.543  -0.097  52.336  1.00  0.00    -0.300 OA
BRANCH  19  21
HETATM   21  C11 UNL     1      28.608  -0.017  53.670  1.00  0.00    -0.005 C 
HETATM   22  C12 UNL     1      29.951  -0.632  53.441  1.00  0.00     0.019 C 
HETATM   23  C13 UNL     1      28.286   0.083  55.147  1.00  0.00     0.019 C 
HETATM   24  C14 UNL     1      28.485   1.392  53.107  1.00  0.00     0.019 C 
ENDBRANCH  19  21
ENDBRANCH  16  17
ENDBRANCH   4  16
TORSDOF 9
ENDMDL
