MODEL 1
REMARK VINA RESULT:      -7.9      0.000      0.000
REMARK  8 active torsions:
REMARK  status: ('A' for Active; 'I' for Inactive)
REMARK    1  A    between atoms: C2_2  and  C3_3 
REMARK    2  A    between atoms: C3_3  and  C12_14 
REMARK    3  A    between atoms: C4_4  and  N1_5 
REMARK    4  A    between atoms: N1_5  and  C5_6 
REMARK    5  A    between atoms: C5_6  and  O1_7 
REMARK    6  A    between atoms: C5_6  and  C6_8 
REMARK    7  A    between atoms: C12_14  and  C13_15 
REMARK    8  A    between atoms: C15_17  and  C16_18 
REMARK       I    between atoms: C16_18  and  N2_19 
ROOT
HETATM    1  C3  UNL     1      25.311   2.503  51.625  1.00  0.00    -0.059 C 
HETATM    2  C4  UNL     1      26.332   3.136  51.015  1.00  0.00     0.088 C 
ENDROOT
BRANCH   1   3
HETATM    3  C2  UNL     1      24.079   2.224  50.886  1.00  0.00     0.031 C 
HETATM    4  C1  UNL     1      22.808   2.310  51.654  1.00  0.00     0.010 C 
ENDBRANCH   1   3
BRANCH   1   5
HETATM    5  C12 UNL     1      25.556   2.136  53.022  1.00  0.00     0.094 C 
BRANCH   5   6
HETATM    6  C13 UNL     1      26.280   0.846  53.153  1.00  0.00     0.036 A 
HETATM    7  C14 UNL     1      27.595   0.396  53.024  1.00  0.00     0.066 A 
HETATM    8  C15 UNL     1      27.635  -0.954  53.277  1.00  0.00     0.146 A 
HETATM    9  N3  UNL     1      26.372  -1.355  53.562  1.00  0.00    -0.167 NA
HETATM   10  N4  UNL     1      25.591  -0.280  53.483  1.00  0.00    -0.277 N 
HETATM   11  C17 UNL     1      24.190  -0.503  53.756  1.00  0.00     0.179 C 
BRANCH   8  12
HETATM   12  C16 UNL     1      28.862  -1.737  53.227  1.00  0.00     0.269 C 
HETATM   13  N2  UNL     1      28.714  -3.158  53.174  1.00  0.00    -0.365 N 
HETATM   14  H18 UNL     1      29.285  -3.730  52.514  1.00  0.00     0.159 HD
HETATM   15  H19 UNL     1      28.039  -3.673  53.783  1.00  0.00     0.159 HD
HETATM   16  O2  UNL     1      29.948  -1.103  53.233  1.00  0.00    -0.266 OA
ENDBRANCH   8  12
ENDBRANCH   5   6
ENDBRANCH   1   5
BRANCH   2  17
HETATM   17  N1  UNL     1      26.398   3.607  49.674  1.00  0.00    -0.369 N 
HETATM   18  H7  UNL     1      26.794   2.925  49.017  1.00  0.00     0.161 HD
BRANCH  17  19
HETATM   19  C5  UNL     1      25.947   4.930  49.256  1.00  0.00     0.252 C 
BRANCH  19  20
HETATM   20  O1  UNL     1      25.680   5.681  50.424  1.00  0.00    -0.373 OA
HETATM   21  H9  UNL     1      26.175   6.529  50.400  1.00  0.00     0.212 HD
ENDBRANCH  19  20
BRANCH  19  22
HETATM   22  C6  UNL     1      27.095   5.641  48.614  1.00  0.00    -0.010 A 
HETATM   23  C7  UNL     1      28.318   5.039  48.562  1.00  0.00     0.011 A 
HETATM   24  C8  UNL     1      29.379   5.704  47.964  1.00  0.00     0.001 A 
HETATM   25  C9  UNL     1      29.180   6.964  47.432  1.00  0.00     0.000 A 
HETATM   26  C10 UNL     1      27.955   7.616  47.463  1.00  0.00     0.001 A 
HETATM   27  C11 UNL     1      26.904   6.919  48.072  1.00  0.00     0.011 A 
ENDBRANCH  19  22
ENDBRANCH  17  19
ENDBRANCH   2  17
TORSDOF 8
ENDMDL
MODEL 2
REMARK VINA RESULT:      -7.7      3.185      7.305
REMARK  8 active torsions:
REMARK  status: ('A' for Active; 'I' for Inactive)
REMARK    1  A    between atoms: C2_2  and  C3_3 
REMARK    2  A    between atoms: C3_3  and  C12_14 
REMARK    3  A    between atoms: C4_4  and  N1_5 
REMARK    4  A    between atoms: N1_5  and  C5_6 
REMARK    5  A    between atoms: C5_6  and  O1_7 
REMARK    6  A    between atoms: C5_6  and  C6_8 
REMARK    7  A    between atoms: C12_14  and  C13_15 
REMARK    8  A    between atoms: C15_17  and  C16_18 
REMARK       I    between atoms: C16_18  and  N2_19 
ROOT
HETATM    1  C3  UNL     1      23.851   2.229  52.615  1.00  0.00    -0.059 C 
HETATM    2  C4  UNL     1      24.891   2.676  53.346  1.00  0.00     0.088 C 
ENDROOT
BRANCH   1   3
HETATM    3  C2  UNL     1      23.791   0.822  52.215  1.00  0.00     0.031 C 
HETATM    4  C1  UNL     1      23.202  -0.124  53.200  1.00  0.00     0.010 C 
ENDBRANCH   1   3
BRANCH   1   5
HETATM    5  C12 UNL     1      22.842   3.239  52.290  1.00  0.00     0.094 C 
BRANCH   5   6
HETATM    6  C13 UNL     1      23.389   4.345  51.464  1.00  0.00     0.036 A 
HETATM    7  C14 UNL     1      23.901   5.626  51.682  1.00  0.00     0.066 A 
HETATM    8  C15 UNL     1      24.255   6.180  50.475  1.00  0.00     0.146 A 
HETATM    9  N3  UNL     1      23.975   5.271  49.509  1.00  0.00    -0.167 NA
HETATM   10  N4  UNL     1      23.466   4.199  50.113  1.00  0.00    -0.277 N 
HETATM   11  C17 UNL     1      23.100   3.106  49.243  1.00  0.00     0.179 C 
BRANCH   8  12
HETATM   12  C16 UNL     1      24.824   7.514  50.348  1.00  0.00     0.269 C 
HETATM   13  N2  UNL     1      26.164   7.687  50.815  1.00  0.00    -0.365 N 
HETATM   14  H18 UNL     1      26.861   8.222  50.251  1.00  0.00     0.159 HD
HETATM   15  H19 UNL     1      26.495   7.291  51.723  1.00  0.00     0.159 HD
HETATM   16  O2  UNL     1      24.094   8.403  49.839  1.00  0.00    -0.266 OA
ENDBRANCH   8  12
ENDBRANCH   5   6
ENDBRANCH   1   5
BRANCH   2  17
HETATM   17  N1  UNL     1      26.013   1.939  53.820  1.00  0.00    -0.369 N 
HETATM   18  H7  UNL     1      25.796   1.319  54.607  1.00  0.00     0.161 HD
BRANCH  17  19
HETATM   19  C5  UNL     1      27.351   2.045  53.247  1.00  0.00     0.252 C 
BRANCH  19  20
HETATM   20  O1  UNL     1      28.143   2.800  54.143  1.00  0.00    -0.373 OA
HETATM   21  H9  UNL     1      28.581   3.538  53.666  1.00  0.00     0.212 HD
ENDBRANCH  19  20
BRANCH  19  22
HETATM   22  C6  UNL     1      27.978   0.688  53.254  1.00  0.00    -0.010 A 
HETATM   23  C7  UNL     1      29.273   0.545  53.659  1.00  0.00     0.011 A 
HETATM   24  C8  UNL     1      29.849  -0.718  53.665  1.00  0.00     0.001 A 
HETATM   25  C9  UNL     1      29.103  -1.809  53.260  1.00  0.00     0.000 A 
HETATM   26  C10 UNL     1      27.784  -1.711  52.840  1.00  0.00     0.001 A 
HETATM   27  C11 UNL     1      27.231  -0.424  52.846  1.00  0.00     0.011 A 
ENDBRANCH  19  22
ENDBRANCH  17  19
ENDBRANCH   2  17
TORSDOF 8
ENDMDL
MODEL 3
REMARK VINA RESULT:      -7.6      3.071      6.271
REMARK  8 active torsions:
REMARK  status: ('A' for Active; 'I' for Inactive)
REMARK    1  A    between atoms: C2_2  and  C3_3 
REMARK    2  A    between atoms: C3_3  and  C12_14 
REMARK    3  A    between atoms: C4_4  and  N1_5 
REMARK    4  A    between atoms: N1_5  and  C5_6 
REMARK    5  A    between atoms: C5_6  and  O1_7 
REMARK    6  A    between atoms: C5_6  and  C6_8 
REMARK    7  A    between atoms: C12_14  and  C13_15 
REMARK    8  A    between atoms: C15_17  and  C16_18 
REMARK       I    between atoms: C16_18  and  N2_19 
ROOT
HETATM    1  C3  UNL     1      24.922   2.568  52.409  1.00  0.00    -0.059 C 
HETATM    2  C4  UNL     1      23.649   2.767  52.803  1.00  0.00     0.088 C 
ENDROOT
BRANCH   1   3
HETATM    3  C2  UNL     1      25.261   2.605  50.986  1.00  0.00     0.031 C 
HETATM    4  C1  UNL     1      25.563   3.942  50.408  1.00  0.00     0.010 C 
ENDBRANCH   1   3
BRANCH   1   5
HETATM    5  C12 UNL     1      25.877   2.334  53.494  1.00  0.00     0.094 C 
BRANCH   5   6
HETATM    6  C13 UNL     1      26.645   1.075  53.316  1.00  0.00     0.036 A 
HETATM    7  C14 UNL     1      26.367  -0.250  52.976  1.00  0.00     0.066 A 
HETATM    8  C15 UNL     1      27.539  -0.969  52.979  1.00  0.00     0.146 A 
HETATM    9  N3  UNL     1      28.541  -0.119  53.313  1.00  0.00    -0.167 NA
HETATM   10  N4  UNL     1      27.992   1.078  53.507  1.00  0.00    -0.277 N 
HETATM   11  C17 UNL     1      28.907   2.133  53.876  1.00  0.00     0.179 C 
BRANCH   8  12
HETATM   12  C16 UNL     1      27.602  -2.390  52.665  1.00  0.00     0.269 C 
HETATM   13  N2  UNL     1      28.666  -3.133  53.264  1.00  0.00    -0.365 N 
HETATM   14  H18 UNL     1      28.488  -4.067  53.694  1.00  0.00     0.159 HD
HETATM   15  H19 UNL     1      29.647  -2.776  53.297  1.00  0.00     0.159 HD
HETATM   16  O2  UNL     1      26.717  -2.848  51.896  1.00  0.00    -0.266 OA
ENDBRANCH   8  12
ENDBRANCH   5   6
ENDBRANCH   1   5
BRANCH   2  17
HETATM   17  N1  UNL     1      22.509   3.024  51.991  1.00  0.00    -0.369 N 
HETATM   18  H7  UNL     1      22.406   4.010  51.725  1.00  0.00     0.161 HD
BRANCH  17  19
HETATM   19  C5  UNL     1      21.566   1.993  51.568  1.00  0.00     0.252 C 
BRANCH  19  20
HETATM   20  O1  UNL     1      22.110   1.355  50.430  1.00  0.00    -0.373 OA
HETATM   21  H9  UNL     1      22.693   0.614  50.705  1.00  0.00     0.212 HD
ENDBRANCH  19  20
BRANCH  19  22
HETATM   22  C6  UNL     1      21.535   0.923  52.611  1.00  0.00    -0.010 A 
HETATM   23  C7  UNL     1      20.721   1.063  53.698  1.00  0.00     0.011 A 
HETATM   24  C8  UNL     1      20.695   0.065  54.662  1.00  0.00     0.001 A 
HETATM   25  C9  UNL     1      21.494  -1.053  54.507  1.00  0.00     0.000 A 
HETATM   26  C10 UNL     1      22.336  -1.237  53.420  1.00  0.00     0.001 A 
HETATM   27  C11 UNL     1      22.339  -0.214  52.464  1.00  0.00     0.011 A 
ENDBRANCH  19  22
ENDBRANCH  17  19
ENDBRANCH   2  17
TORSDOF 8
ENDMDL
MODEL 4
REMARK VINA RESULT:      -7.5      2.782      7.361
REMARK  8 active torsions:
REMARK  status: ('A' for Active; 'I' for Inactive)
REMARK    1  A    between atoms: C2_2  and  C3_3 
REMARK    2  A    between atoms: C3_3  and  C12_14 
REMARK    3  A    between atoms: C4_4  and  N1_5 
REMARK    4  A    between atoms: N1_5  and  C5_6 
REMARK    5  A    between atoms: C5_6  and  O1_7 
REMARK    6  A    between atoms: C5_6  and  C6_8 
REMARK    7  A    between atoms: C12_14  and  C13_15 
REMARK    8  A    between atoms: C15_17  and  C16_18 
REMARK       I    between atoms: C16_18  and  N2_19 
ROOT
HETATM    1  C3  UNL     1      24.486   2.535  51.058  1.00  0.00    -0.059 C 
HETATM    2  C4  UNL     1      25.662   2.862  51.627  1.00  0.00     0.088 C 
ENDROOT
BRANCH   1   3
HETATM    3  C2  UNL     1      23.700   1.422  51.592  1.00  0.00     0.031 C 
HETATM    4  C1  UNL     1      22.729   1.750  52.670  1.00  0.00     0.010 C 
ENDBRANCH   1   3
BRANCH   1   5
HETATM    5  C12 UNL     1      24.095   3.370  49.920  1.00  0.00     0.094 C 
BRANCH   5   6
HETATM    6  C13 UNL     1      24.488   4.791  50.096  1.00  0.00     0.036 A 
HETATM    7  C14 UNL     1      25.544   5.615  49.698  1.00  0.00     0.066 A 
HETATM    8  C15 UNL     1      25.337   6.881  50.194  1.00  0.00     0.146 A 
HETATM    9  N3  UNL     1      24.174   6.862  50.891  1.00  0.00    -0.167 NA
HETATM   10  N4  UNL     1      23.693   5.623  50.821  1.00  0.00    -0.277 N 
HETATM   11  C17 UNL     1      22.443   5.398  51.510  1.00  0.00     0.179 C 
BRANCH   8  12
HETATM   12  C16 UNL     1      26.255   7.986  49.961  1.00  0.00     0.269 C 
HETATM   13  N2  UNL     1      27.582   7.643  49.554  1.00  0.00    -0.365 N 
HETATM   14  H18 UNL     1      28.051   8.159  48.777  1.00  0.00     0.159 HD
HETATM   15  H19 UNL     1      28.125   6.876  50.008  1.00  0.00     0.159 HD
HETATM   16  O2  UNL     1      25.809   9.149  50.136  1.00  0.00    -0.266 OA
ENDBRANCH   8  12
ENDBRANCH   5   6
ENDBRANCH   1   5
BRANCH   2  17
HETATM   17  N1  UNL     1      26.299   2.248  52.742  1.00  0.00    -0.369 N 
HETATM   18  H7  UNL     1      25.643   1.841  53.419  1.00  0.00     0.161 HD
BRANCH  17  19
HETATM   19  C5  UNL     1      27.746   2.192  52.920  1.00  0.00     0.252 C 
BRANCH  19  20
HETATM   20  O1  UNL     1      28.047   2.762  54.178  1.00  0.00    -0.373 OA
HETATM   21  H9  UNL     1      28.086   3.741  54.104  1.00  0.00     0.212 HD
ENDBRANCH  19  20
BRANCH  19  22
HETATM   22  C6  UNL     1      28.153   0.760  53.057  1.00  0.00    -0.010 A 
HETATM   23  C7  UNL     1      27.273  -0.227  52.718  1.00  0.00     0.011 A 
HETATM   24  C8  UNL     1      27.657  -1.554  52.846  1.00  0.00     0.001 A 
HETATM   25  C9  UNL     1      28.922  -1.855  53.315  1.00  0.00     0.000 A 
HETATM   26  C10 UNL     1      29.848  -0.886  53.672  1.00  0.00     0.001 A 
HETATM   27  C11 UNL     1      29.432   0.444  53.531  1.00  0.00     0.011 A 
ENDBRANCH  19  22
ENDBRANCH  17  19
ENDBRANCH   2  17
TORSDOF 8
ENDMDL
MODEL 5
REMARK VINA RESULT:      -7.5      2.060      2.819
REMARK  8 active torsions:
REMARK  status: ('A' for Active; 'I' for Inactive)
REMARK    1  A    between atoms: C2_2  and  C3_3 
REMARK    2  A    between atoms: C3_3  and  C12_14 
REMARK    3  A    between atoms: C4_4  and  N1_5 
REMARK    4  A    between atoms: N1_5  and  C5_6 
REMARK    5  A    between atoms: C5_6  and  O1_7 
REMARK    6  A    between atoms: C5_6  and  C6_8 
REMARK    7  A    between atoms: C12_14  and  C13_15 
REMARK    8  A    between atoms: C15_17  and  C16_18 
REMARK       I    between atoms: C16_18  and  N2_19 
ROOT
HETATM    1  C3  UNL     1      24.904   2.554  52.284  1.00  0.00    -0.059 C 
HETATM    2  C4  UNL     1      23.685   3.115  52.406  1.00  0.00     0.088 C 
ENDROOT
BRANCH   1   3
HETATM    3  C2  UNL     1      25.472   2.322  50.956  1.00  0.00     0.031 C 
HETATM    4  C1  UNL     1      26.567   3.236  50.531  1.00  0.00     0.010 C 
ENDBRANCH   1   3
BRANCH   1   5
HETATM    5  C12 UNL     1      25.565   2.229  53.550  1.00  0.00     0.094 C 
BRANCH   5   6
HETATM    6  C13 UNL     1      26.281   0.929  53.500  1.00  0.00     0.036 A 
HETATM    7  C14 UNL     1      27.597   0.494  53.336  1.00  0.00     0.066 A 
HETATM    8  C15 UNL     1      27.626  -0.880  53.382  1.00  0.00     0.146 A 
HETATM    9  N3  UNL     1      26.354  -1.310  53.572  1.00  0.00    -0.167 NA
HETATM   10  N4  UNL     1      25.580  -0.230  53.638  1.00  0.00    -0.277 N 
HETATM   11  C17 UNL     1      24.172  -0.481  53.840  1.00  0.00     0.179 C 
BRANCH   8  12
HETATM   12  C16 UNL     1      28.850  -1.656  53.242  1.00  0.00     0.269 C 
HETATM   13  N2  UNL     1      28.704  -3.076  53.168  1.00  0.00    -0.365 N 
HETATM   14  H18 UNL     1      29.238  -3.630  52.463  1.00  0.00     0.159 HD
HETATM   15  H19 UNL     1      28.069  -3.607  53.804  1.00  0.00     0.159 HD
HETATM   16  O2  UNL     1      29.933  -1.016  53.198  1.00  0.00    -0.266 OA
ENDBRANCH   8  12
ENDBRANCH   5   6
ENDBRANCH   1   5
BRANCH   2  17
HETATM   17  N1  UNL     1      22.808   3.544  51.370  1.00  0.00    -0.369 N 
HETATM   18  H7  UNL     1      22.458   2.780  50.783  1.00  0.00     0.161 HD
BRANCH  17  19
HETATM   19  C5  UNL     1      22.432   4.938  51.152  1.00  0.00     0.252 C 
BRANCH  19  20
HETATM   20  O1  UNL     1      22.340   5.561  52.418  1.00  0.00    -0.373 OA
HETATM   21  H9  UNL     1      21.453   5.402  52.808  1.00  0.00     0.212 HD
ENDBRANCH  19  20
BRANCH  19  22
HETATM   22  C6  UNL     1      23.570   5.636  50.480  1.00  0.00    -0.010 A 
HETATM   23  C7  UNL     1      24.299   6.560  51.171  1.00  0.00     0.011 A 
HETATM   24  C8  UNL     1      25.355   7.204  50.542  1.00  0.00     0.001 A 
HETATM   25  C9  UNL     1      25.651   6.900  49.226  1.00  0.00     0.000 A 
HETATM   26  C10 UNL     1      24.938   5.969  48.484  1.00  0.00     0.001 A 
HETATM   27  C11 UNL     1      23.880   5.336  49.147  1.00  0.00     0.011 A 
ENDBRANCH  19  22
ENDBRANCH  17  19
ENDBRANCH   2  17
TORSDOF 8
ENDMDL
MODEL 6
REMARK VINA RESULT:      -7.5      4.171      7.132
REMARK  8 active torsions:
REMARK  status: ('A' for Active; 'I' for Inactive)
REMARK    1  A    between atoms: C2_2  and  C3_3 
REMARK    2  A    between atoms: C3_3  and  C12_14 
REMARK    3  A    between atoms: C4_4  and  N1_5 
REMARK    4  A    between atoms: N1_5  and  C5_6 
REMARK    5  A    between atoms: C5_6  and  O1_7 
REMARK    6  A    between atoms: C5_6  and  C6_8 
REMARK    7  A    between atoms: C12_14  and  C13_15 
REMARK    8  A    between atoms: C15_17  and  C16_18 
REMARK       I    between atoms: C16_18  and  N2_19 
ROOT
HETATM    1  C3  UNL     1      23.800   1.807  52.817  1.00  0.00    -0.059 C 
HETATM    2  C4  UNL     1      24.818   2.608  53.187  1.00  0.00     0.088 C 
ENDROOT
BRANCH   1   3
HETATM    3  C2  UNL     1      24.001   0.359  52.740  1.00  0.00     0.031 C 
HETATM    4  C1  UNL     1      23.856  -0.401  54.010  1.00  0.00     0.010 C 
ENDBRANCH   1   3
BRANCH   1   5
HETATM    5  C12 UNL     1      22.541   2.497  52.527  1.00  0.00     0.094 C 
BRANCH   5   6
HETATM    6  C13 UNL     1      21.409   1.558  52.326  1.00  0.00     0.036 A 
HETATM    7  C14 UNL     1      20.469   0.907  53.127  1.00  0.00     0.066 A 
HETATM    8  C15 UNL     1      19.653   0.140  52.329  1.00  0.00     0.146 A 
HETATM    9  N3  UNL     1      20.066   0.299  51.048  1.00  0.00    -0.167 NA
HETATM   10  N4  UNL     1      21.101   1.137  51.070  1.00  0.00    -0.277 N 
HETATM   11  C17 UNL     1      21.689   1.438  49.785  1.00  0.00     0.179 C 
BRANCH   8  12
HETATM   12  C16 UNL     1      18.562  -0.670  52.852  1.00  0.00     0.269 C 
HETATM   13  N2  UNL     1      18.890  -1.594  53.893  1.00  0.00    -0.365 N 
HETATM   14  H18 UNL     1      18.280  -1.688  54.734  1.00  0.00     0.159 HD
HETATM   15  H19 UNL     1      19.739  -2.201  53.854  1.00  0.00     0.159 HD
HETATM   16  O2  UNL     1      17.423  -0.492  52.349  1.00  0.00    -0.266 OA
ENDBRANCH   8  12
ENDBRANCH   5   6
ENDBRANCH   1   5
BRANCH   2  17
HETATM   17  N1  UNL     1      26.146   2.236  53.537  1.00  0.00    -0.369 N 
HETATM   18  H7  UNL     1      26.291   2.127  54.547  1.00  0.00     0.161 HD
BRANCH  17  19
HETATM   19  C5  UNL     1      27.211   2.024  52.562  1.00  0.00     0.252 C 
BRANCH  19  20
HETATM   20  O1  UNL     1      28.212   2.994  52.802  1.00  0.00    -0.373 OA
HETATM   21  H9  UNL     1      27.809   3.810  53.170  1.00  0.00     0.212 HD
ENDBRANCH  19  20
BRANCH  19  22
HETATM   22  C6  UNL     1      27.879   0.722  52.865  1.00  0.00    -0.010 A 
HETATM   23  C7  UNL     1      27.250  -0.448  52.553  1.00  0.00     0.011 A 
HETATM   24  C8  UNL     1      27.876  -1.654  52.836  1.00  0.00     0.001 A 
HETATM   25  C9  UNL     1      29.124  -1.651  53.429  1.00  0.00     0.000 A 
HETATM   26  C10 UNL     1      29.801  -0.487  53.765  1.00  0.00     0.001 A 
HETATM   27  C11 UNL     1      29.144   0.713  53.466  1.00  0.00     0.011 A 
ENDBRANCH  19  22
ENDBRANCH  17  19
ENDBRANCH   2  17
TORSDOF 8
ENDMDL
MODEL 7
REMARK VINA RESULT:      -7.5      2.873      6.321
REMARK  8 active torsions:
REMARK  status: ('A' for Active; 'I' for Inactive)
REMARK    1  A    between atoms: C2_2  and  C3_3 
REMARK    2  A    between atoms: C3_3  and  C12_14 
REMARK    3  A    between atoms: C4_4  and  N1_5 
REMARK    4  A    between atoms: N1_5  and  C5_6 
REMARK    5  A    between atoms: C5_6  and  O1_7 
REMARK    6  A    between atoms: C5_6  and  C6_8 
REMARK    7  A    between atoms: C12_14  and  C13_15 
REMARK    8  A    between atoms: C15_17  and  C16_18 
REMARK       I    between atoms: C16_18  and  N2_19 
ROOT
HETATM    1  C3  UNL     1      25.316   3.042  50.682  1.00  0.00    -0.059 C 
HETATM    2  C4  UNL     1      25.839   2.675  51.868  1.00  0.00     0.088 C 
ENDROOT
BRANCH   1   3
HETATM    3  C2  UNL     1      26.197   3.274  49.536  1.00  0.00     0.031 C 
HETATM    4  C1  UNL     1      26.451   4.693  49.168  1.00  0.00     0.010 C 
ENDBRANCH   1   3
BRANCH   1   5
HETATM    5  C12 UNL     1      23.858   3.168  50.659  1.00  0.00     0.094 C 
BRANCH   5   6
HETATM    6  C13 UNL     1      23.182   2.095  51.432  1.00  0.00     0.036 A 
HETATM    7  C14 UNL     1      23.195   1.620  52.746  1.00  0.00     0.066 A 
HETATM    8  C15 UNL     1      22.322   0.564  52.850  1.00  0.00     0.146 A 
HETATM    9  N3  UNL     1      21.765   0.370  51.629  1.00  0.00    -0.167 NA
HETATM   10  N4  UNL     1      22.286   1.282  50.810  1.00  0.00    -0.277 N 
HETATM   11  C17 UNL     1      21.813   1.240  49.446  1.00  0.00     0.179 C 
BRANCH   8  12
HETATM   12  C16 UNL     1      22.095  -0.162  54.092  1.00  0.00     0.269 C 
HETATM   13  N2  UNL     1      20.851   0.074  54.755  1.00  0.00    -0.365 N 
HETATM   14  H18 UNL     1      20.294  -0.720  55.141  1.00  0.00     0.159 HD
HETATM   15  H19 UNL     1      20.455   1.033  54.877  1.00  0.00     0.159 HD
HETATM   16  O2  UNL     1      23.009  -0.936  54.479  1.00  0.00    -0.266 OA
ENDBRANCH   8  12
ENDBRANCH   5   6
ENDBRANCH   1   5
BRANCH   2  17
HETATM   17  N1  UNL     1      27.207   2.465  52.198  1.00  0.00    -0.369 N 
HETATM   18  H7  UNL     1      27.850   2.635  51.417  1.00  0.00     0.161 HD
BRANCH  17  19
HETATM   19  C5  UNL     1      27.667   2.048  53.519  1.00  0.00     0.252 C 
BRANCH  19  20
HETATM   20  O1  UNL     1      26.534   1.960  54.360  1.00  0.00    -0.373 OA
HETATM   21  H9  UNL     1      26.728   2.370  55.231  1.00  0.00     0.212 HD
ENDBRANCH  19  20
BRANCH  19  22
HETATM   22  C6  UNL     1      28.167   0.642  53.424  1.00  0.00    -0.010 A 
HETATM   23  C7  UNL     1      27.313  -0.354  53.048  1.00  0.00     0.011 A 
HETATM   24  C8  UNL     1      27.784  -1.657  52.961  1.00  0.00     0.001 A 
HETATM   25  C9  UNL     1      29.107  -1.924  53.257  1.00  0.00     0.000 A 
HETATM   26  C10 UNL     1      30.010  -0.944  53.645  1.00  0.00     0.001 A 
HETATM   27  C11 UNL     1      29.506   0.360  53.722  1.00  0.00     0.011 A 
ENDBRANCH  19  22
ENDBRANCH  17  19
ENDBRANCH   2  17
TORSDOF 8
ENDMDL
MODEL 8
REMARK VINA RESULT:      -7.5      3.825      7.668
REMARK  8 active torsions:
REMARK  status: ('A' for Active; 'I' for Inactive)
REMARK    1  A    between atoms: C2_2  and  C3_3 
REMARK    2  A    between atoms: C3_3  and  C12_14 
REMARK    3  A    between atoms: C4_4  and  N1_5 
REMARK    4  A    between atoms: N1_5  and  C5_6 
REMARK    5  A    between atoms: C5_6  and  O1_7 
REMARK    6  A    between atoms: C5_6  and  C6_8 
REMARK    7  A    between atoms: C12_14  and  C13_15 
REMARK    8  A    between atoms: C15_17  and  C16_18 
REMARK       I    between atoms: C16_18  and  N2_19 
ROOT
HETATM    1  C3  UNL     1      23.156   1.795  52.526  1.00  0.00    -0.059 C 
HETATM    2  C4  UNL     1      22.866   0.747  53.322  1.00  0.00     0.088 C 
ENDROOT
BRANCH   1   3
HETATM    3  C2  UNL     1      22.507   1.923  51.221  1.00  0.00     0.031 C 
HETATM    4  C1  UNL     1      21.439   2.952  51.107  1.00  0.00     0.010 C 
ENDBRANCH   1   3
BRANCH   1   5
HETATM    5  C12 UNL     1      24.126   2.742  53.079  1.00  0.00     0.094 C 
BRANCH   5   6
HETATM    6  C13 UNL     1      25.506   2.193  53.107  1.00  0.00     0.036 A 
HETATM    7  C14 UNL     1      26.293   1.457  53.995  1.00  0.00     0.066 A 
HETATM    8  C15 UNL     1      27.531   1.252  53.433  1.00  0.00     0.146 A 
HETATM    9  N3  UNL     1      27.531   1.845  52.214  1.00  0.00    -0.167 NA
HETATM   10  N4  UNL     1      26.330   2.393  52.043  1.00  0.00    -0.277 N 
HETATM   11  C17 UNL     1      26.129   3.081  50.789  1.00  0.00     0.179 C 
BRANCH   8  12
HETATM   12  C16 UNL     1      28.596   0.515  54.100  1.00  0.00     0.269 C 
HETATM   13  N2  UNL     1      29.917   0.688  53.581  1.00  0.00    -0.365 N 
HETATM   14  H18 UNL     1      30.727   0.834  54.223  1.00  0.00     0.159 HD
HETATM   15  H19 UNL     1      30.122   0.675  52.557  1.00  0.00     0.159 HD
HETATM   16  O2  UNL     1      28.269  -0.210  55.074  1.00  0.00    -0.266 OA
ENDBRANCH   8  12
ENDBRANCH   5   6
ENDBRANCH   1   5
BRANCH   2  17
HETATM   17  N1  UNL     1      21.965  -0.325  53.068  1.00  0.00    -0.369 N 
HETATM   18  H7  UNL     1      22.124  -0.793  52.170  1.00  0.00     0.161 HD
BRANCH  17  19
HETATM   19  C5  UNL     1      20.909  -0.731  53.991  1.00  0.00     0.252 C 
BRANCH  19  20
HETATM   20  O1  UNL     1      20.767   0.290  54.958  1.00  0.00    -0.373 OA
HETATM   21  H9  UNL     1      19.815   0.459  55.132  1.00  0.00     0.212 HD
ENDBRANCH  19  20
BRANCH  19  22
HETATM   22  C6  UNL     1      19.608  -0.726  53.254  1.00  0.00    -0.010 A 
HETATM   23  C7  UNL     1      19.434   0.119  52.197  1.00  0.00     0.011 A 
HETATM   24  C8  UNL     1      18.225   0.118  51.517  1.00  0.00     0.001 A 
HETATM   25  C9  UNL     1      17.217  -0.737  51.920  1.00  0.00     0.000 A 
HETATM   26  C10 UNL     1      17.349  -1.613  52.989  1.00  0.00     0.001 A 
HETATM   27  C11 UNL     1      18.580  -1.589  53.654  1.00  0.00     0.011 A 
ENDBRANCH  19  22
ENDBRANCH  17  19
ENDBRANCH   2  17
TORSDOF 8
ENDMDL
MODEL 9
REMARK VINA RESULT:      -7.4      1.539      1.789
REMARK  8 active torsions:
REMARK  status: ('A' for Active; 'I' for Inactive)
REMARK    1  A    between atoms: C2_2  and  C3_3 
REMARK    2  A    between atoms: C3_3  and  C12_14 
REMARK    3  A    between atoms: C4_4  and  N1_5 
REMARK    4  A    between atoms: N1_5  and  C5_6 
REMARK    5  A    between atoms: C5_6  and  O1_7 
REMARK    6  A    between atoms: C5_6  and  C6_8 
REMARK    7  A    between atoms: C12_14  and  C13_15 
REMARK    8  A    between atoms: C15_17  and  C16_18 
REMARK       I    between atoms: C16_18  and  N2_19 
ROOT
HETATM    1  C3  UNL     1      24.259   3.219  52.214  1.00  0.00    -0.059 C 
HETATM    2  C4  UNL     1      25.175   3.363  51.237  1.00  0.00     0.088 C 
ENDROOT
BRANCH   1   3
HETATM    3  C2  UNL     1      23.646   4.400  52.821  1.00  0.00     0.031 C 
HETATM    4  C1  UNL     1      22.342   4.839  52.256  1.00  0.00     0.010 C 
ENDBRANCH   1   3
BRANCH   1   5
HETATM    5  C12 UNL     1      23.952   1.833  52.575  1.00  0.00     0.094 C 
BRANCH   5   6
HETATM    6  C13 UNL     1      25.088   1.157  53.253  1.00  0.00     0.036 A 
HETATM    7  C14 UNL     1      26.441   1.415  53.480  1.00  0.00     0.066 A 
HETATM    8  C15 UNL     1      26.984   0.372  54.193  1.00  0.00     0.146 A 
HETATM    9  N3  UNL     1      25.997  -0.530  54.415  1.00  0.00    -0.167 NA
HETATM   10  N4  UNL     1      24.890  -0.049  53.852  1.00  0.00    -0.277 N 
HETATM   11  C17 UNL     1      23.713  -0.876  53.981  1.00  0.00     0.179 C 
BRANCH   8  12
HETATM   12  C16 UNL     1      28.382   0.327  54.598  1.00  0.00     0.269 C 
HETATM   13  N2  UNL     1      28.999   1.578  54.912  1.00  0.00    -0.365 N 
HETATM   14  H18 UNL     1      29.603   1.677  55.757  1.00  0.00     0.159 HD
HETATM   15  H19 UNL     1      28.873   2.428  54.319  1.00  0.00     0.159 HD
HETATM   16  O2  UNL     1      28.931  -0.804  54.639  1.00  0.00    -0.266 OA
ENDBRANCH   8  12
ENDBRANCH   5   6
ENDBRANCH   1   5
BRANCH   2  17
HETATM   17  N1  UNL     1      25.670   4.571  50.669  1.00  0.00    -0.369 N 
HETATM   18  H7  UNL     1      26.273   5.107  51.302  1.00  0.00     0.161 HD
BRANCH  17  19
HETATM   19  C5  UNL     1      25.359   5.016  49.314  1.00  0.00     0.252 C 
BRANCH  19  20
HETATM   20  O1  UNL     1      24.462   6.104  49.415  1.00  0.00    -0.373 OA
HETATM   21  H9  UNL     1      23.674   5.944  48.850  1.00  0.00     0.212 HD
ENDBRANCH  19  20
BRANCH  19  22
HETATM   22  C6  UNL     1      26.594   5.610  48.715  1.00  0.00    -0.010 A 
HETATM   23  C7  UNL     1      27.754   4.891  48.708  1.00  0.00     0.011 A 
HETATM   24  C8  UNL     1      28.896   5.447  48.150  1.00  0.00     0.001 A 
HETATM   25  C9  UNL     1      28.841   6.719  47.611  1.00  0.00     0.000 A 
HETATM   26  C10 UNL     1      27.684   7.487  47.597  1.00  0.00     0.001 A 
HETATM   27  C11 UNL     1      26.549   6.897  48.167  1.00  0.00     0.011 A 
ENDBRANCH  19  22
ENDBRANCH  17  19
ENDBRANCH   2  17
TORSDOF 8
ENDMDL
