MODEL 1
REMARK VINA RESULT:      -8.2      0.000      0.000
REMARK  4 active torsions:
REMARK  status: ('A' for Active; 'I' for Inactive)
REMARK    1  A    between atoms: C1_1  and  C2_2 
REMARK    2  A    between atoms: C1_1  and  C10_12 
REMARK    3  A    between atoms: C2_2  and  N1_3 
REMARK    4  A    between atoms: C11_13  and  C12_14 
ROOT
HETATM    1  C2  UNL     1      25.217   2.014  53.235  1.00  0.00     0.127 C 
ENDROOT
BRANCH   1   2
HETATM    2  C1  UNL     1      24.477   2.927  52.854  1.00  0.00    -0.048 C 
BRANCH   2   3
HETATM    3  C10 UNL     1      23.617   3.972  52.393  1.00  0.00     0.067 C 
HETATM    4  C11 UNL     1      23.745   4.751  51.341  1.00  0.00     0.016 C 
BRANCH   4   5
HETATM    5  C12 UNL     1      24.704   4.927  50.252  1.00  0.00    -0.054 C 
HETATM    6  C13 UNL     1      25.703   4.027  50.242  1.00  0.00     0.007 C 
HETATM    7  C14 UNL     1      26.836   3.854  49.350  1.00  0.00     0.001 C 
HETATM    8  C15 UNL     1      27.371   4.855  48.670  1.00  0.00    -0.000 C 
HETATM    9  C16 UNL     1      27.040   6.276  48.599  1.00  0.00    -0.004 C 
HETATM   10  C17 UNL     1      25.808   6.676  48.870  1.00  0.00    -0.022 C 
HETATM   11  C18 UNL     1      24.551   6.017  49.265  1.00  0.00     0.065 C 
ENDBRANCH   4   5
ENDBRANCH   2   3
ENDBRANCH   1   2
BRANCH   1  12
HETATM   12  N1  UNL     1      26.079   0.939  53.657  1.00  0.00     0.021 N 
HETATM   13  C3  UNL     1      25.536  -0.275  53.004  1.00  0.00     0.691 C 
HETATM   14  C4  UNL     1      26.414  -1.303  52.823  1.00  0.00     0.059 C 
HETATM   15  C5  UNL     1      27.562  -2.339  52.716  1.00  0.00    -0.016 C 
HETATM   16  C6  UNL     1      28.940  -2.498  53.045  1.00  0.00    -0.006 C 
HETATM   17  C7  UNL     1      29.753  -1.404  53.745  1.00  0.00     0.033 C 
HETATM   18  C8  UNL     1      28.791  -0.298  53.910  1.00  0.00    -0.008 C 
HETATM   19  C9  UNL     1      27.958   0.585  54.368  1.00  0.00     0.110 C 
HETATM   20  N2  UNL     1      27.053   1.628  54.505  1.00  0.00    -0.231 N 
HETATM   21  H9  UNL     1      27.212   2.449  55.034  1.00  0.00     0.192 HD
ENDBRANCH   1  12
TORSDOF 4
ENDMDL
MODEL 2
REMARK VINA RESULT:      -8.0      1.556      2.562
REMARK  4 active torsions:
REMARK  status: ('A' for Active; 'I' for Inactive)
REMARK    1  A    between atoms: C1_1  and  C2_2 
REMARK    2  A    between atoms: C1_1  and  C10_12 
REMARK    3  A    between atoms: C2_2  and  N1_3 
REMARK    4  A    between atoms: C11_13  and  C12_14 
ROOT
HETATM    1  C2  UNL     1      26.129   2.654  51.253  1.00  0.00     0.127 C 
ENDROOT
BRANCH   1   2
HETATM    2  C1  UNL     1      25.549   3.406  50.463  1.00  0.00    -0.048 C 
BRANCH   2   3
HETATM    3  C10 UNL     1      24.888   4.266  49.530  1.00  0.00     0.067 C 
HETATM    4  C11 UNL     1      25.327   5.366  48.958  1.00  0.00     0.016 C 
BRANCH   4   5
HETATM    5  C12 UNL     1      26.549   6.168  48.981  1.00  0.00    -0.054 C 
HETATM    6  C13 UNL     1      26.391   7.406  49.482  1.00  0.00     0.007 C 
HETATM    7  C14 UNL     1      27.332   8.495  49.676  1.00  0.00     0.001 C 
HETATM    8  C15 UNL     1      28.418   8.642  48.937  1.00  0.00    -0.000 C 
HETATM    9  C16 UNL     1      28.961   7.861  47.829  1.00  0.00    -0.004 C 
HETATM   10  C17 UNL     1      28.653   6.578  47.720  1.00  0.00    -0.022 C 
HETATM   11  C18 UNL     1      27.831   5.624  48.485  1.00  0.00     0.065 C 
ENDBRANCH   4   5
ENDBRANCH   2   3
ENDBRANCH   1   2
BRANCH   1  12
HETATM   12  N1  UNL     1      26.786   1.782  52.193  1.00  0.00     0.021 N 
HETATM   13  C3  UNL     1      26.157   0.454  52.000  1.00  0.00     0.691 C 
HETATM   14  C4  UNL     1      26.902  -0.623  52.379  1.00  0.00     0.059 C 
HETATM   15  C5  UNL     1      27.903  -1.700  52.869  1.00  0.00    -0.016 C 
HETATM   16  C6  UNL     1      29.203  -1.820  53.443  1.00  0.00    -0.006 C 
HETATM   17  C7  UNL     1      30.076  -0.604  53.768  1.00  0.00     0.033 C 
HETATM   18  C8  UNL     1      29.261   0.545  53.331  1.00  0.00    -0.008 C 
HETATM   19  C9  UNL     1      28.511   1.602  53.268  1.00  0.00     0.110 C 
HETATM   20  N2  UNL     1      27.747   2.679  52.839  1.00  0.00    -0.231 N 
HETATM   21  H9  UNL     1      27.957   3.629  53.017  1.00  0.00     0.192 HD
ENDBRANCH   1  12
TORSDOF 4
ENDMDL
MODEL 3
REMARK VINA RESULT:      -7.8      2.697      4.369
REMARK  4 active torsions:
REMARK  status: ('A' for Active; 'I' for Inactive)
REMARK    1  A    between atoms: C1_1  and  C2_2 
REMARK    2  A    between atoms: C1_1  and  C10_12 
REMARK    3  A    between atoms: C2_2  and  N1_3 
REMARK    4  A    between atoms: C11_13  and  C12_14 
ROOT
HETATM    1  C2  UNL     1      25.206   2.140  53.360  1.00  0.00     0.127 C 
ENDROOT
BRANCH   1   2
HETATM    2  C1  UNL     1      24.462   3.075  53.049  1.00  0.00    -0.048 C 
BRANCH   2   3
HETATM    3  C10 UNL     1      23.617   4.168  52.678  1.00  0.00     0.067 C 
HETATM    4  C11 UNL     1      22.439   4.147  52.096  1.00  0.00     0.016 C 
BRANCH   4   5
HETATM    5  C12 UNL     1      21.513   3.133  51.593  1.00  0.00    -0.054 C 
HETATM    6  C13 UNL     1      20.264   3.230  52.083  1.00  0.00     0.007 C 
HETATM    7  C14 UNL     1      19.071   2.438  51.846  1.00  0.00     0.001 C 
HETATM    8  C15 UNL     1      19.116   1.168  51.480  1.00  0.00    -0.000 C 
HETATM    9  C16 UNL     1      20.234   0.263  51.225  1.00  0.00    -0.004 C 
HETATM   10  C17 UNL     1      21.408   0.757  50.865  1.00  0.00    -0.022 C 
HETATM   11  C18 UNL     1      21.954   2.105  50.627  1.00  0.00     0.065 C 
ENDBRANCH   4   5
ENDBRANCH   2   3
ENDBRANCH   1   2
BRANCH   1  12
HETATM   12  N1  UNL     1      26.054   1.031  53.718  1.00  0.00     0.021 N 
HETATM   13  C3  UNL     1      25.423  -0.159  53.099  1.00  0.00     0.691 C 
HETATM   14  C4  UNL     1      26.249  -1.217  52.856  1.00  0.00     0.059 C 
HETATM   15  C5  UNL     1      27.347  -2.294  52.667  1.00  0.00    -0.016 C 
HETATM   16  C6  UNL     1      28.738  -2.506  52.901  1.00  0.00    -0.006 C 
HETATM   17  C7  UNL     1      29.636  -1.447  53.548  1.00  0.00     0.033 C 
HETATM   18  C8  UNL     1      28.729  -0.307  53.782  1.00  0.00    -0.008 C 
HETATM   19  C9  UNL     1      27.962   0.603  54.299  1.00  0.00     0.110 C 
HETATM   20  N2  UNL     1      27.108   1.678  54.501  1.00  0.00    -0.231 N 
HETATM   21  H9  UNL     1      27.333   2.490  55.020  1.00  0.00     0.192 HD
ENDBRANCH   1  12
TORSDOF 4
ENDMDL
MODEL 4
REMARK VINA RESULT:      -7.8      1.964      7.541
REMARK  4 active torsions:
REMARK  status: ('A' for Active; 'I' for Inactive)
REMARK    1  A    between atoms: C1_1  and  C2_2 
REMARK    2  A    between atoms: C1_1  and  C10_12 
REMARK    3  A    between atoms: C2_2  and  N1_3 
REMARK    4  A    between atoms: C11_13  and  C12_14 
ROOT
HETATM    1  C2  UNL     1      25.153   3.020  50.774  1.00  0.00     0.127 C 
ENDROOT
BRANCH   1   2
HETATM    2  C1  UNL     1      24.878   2.252  51.701  1.00  0.00    -0.048 C 
BRANCH   2   3
HETATM    3  C10 UNL     1      24.578   1.351  52.771  1.00  0.00     0.067 C 
HETATM    4  C11 UNL     1      25.323   0.399  53.289  1.00  0.00     0.016 C 
BRANCH   4   5
HETATM    5  C12 UNL     1      26.657  -0.155  53.066  1.00  0.00    -0.054 C 
HETATM    6  C13 UNL     1      26.687  -1.492  52.922  1.00  0.00     0.007 C 
HETATM    7  C14 UNL     1      27.785  -2.413  52.690  1.00  0.00     0.001 C 
HETATM    8  C15 UNL     1      29.026  -2.158  53.071  1.00  0.00    -0.000 C 
HETATM    9  C16 UNL     1      29.622  -1.016  53.758  1.00  0.00    -0.004 C 
HETATM   10  C17 UNL     1      29.047   0.173  53.673  1.00  0.00    -0.022 C 
HETATM   11  C18 UNL     1      27.849   0.717  53.010  1.00  0.00     0.065 C 
ENDBRANCH   4   5
ENDBRANCH   2   3
ENDBRANCH   1   2
BRANCH   1  12
HETATM   12  N1  UNL     1      25.462   3.900  49.675  1.00  0.00     0.021 N 
HETATM   13  C3  UNL     1      24.157   4.444  49.232  1.00  0.00     0.691 C 
HETATM   14  C4  UNL     1      24.198   5.638  48.575  1.00  0.00     0.059 C 
HETATM   15  C5  UNL     1      24.464   6.985  47.854  1.00  0.00    -0.016 C 
HETATM   16  C6  UNL     1      25.539   7.844  47.481  1.00  0.00    -0.006 C 
HETATM   17  C7  UNL     1      27.003   7.518  47.796  1.00  0.00     0.033 C 
HETATM   18  C8  UNL     1      26.932   6.237  48.525  1.00  0.00    -0.008 C 
HETATM   19  C9  UNL     1      26.994   4.992  48.887  1.00  0.00     0.110 C 
HETATM   20  N2  UNL     1      26.920   3.796  49.587  1.00  0.00    -0.231 N 
HETATM   21  H9  UNL     1      27.697   3.236  49.833  1.00  0.00     0.192 HD
ENDBRANCH   1  12
TORSDOF 4
ENDMDL
MODEL 5
REMARK VINA RESULT:      -7.7      2.487      3.734
REMARK  4 active torsions:
REMARK  status: ('A' for Active; 'I' for Inactive)
REMARK    1  A    between atoms: C1_1  and  C2_2 
REMARK    2  A    between atoms: C1_1  and  C10_12 
REMARK    3  A    between atoms: C2_2  and  N1_3 
REMARK    4  A    between atoms: C11_13  and  C12_14 
ROOT
HETATM    1  C2  UNL     1      26.379   2.741  51.267  1.00  0.00     0.127 C 
ENDROOT
BRANCH   1   2
HETATM    2  C1  UNL     1      25.900   3.539  50.456  1.00  0.00    -0.048 C 
BRANCH   2   3
HETATM    3  C10 UNL     1      25.329   4.449  49.512  1.00  0.00     0.067 C 
HETATM    4  C11 UNL     1      24.127   4.447  48.977  1.00  0.00     0.016 C 
BRANCH   4   5
HETATM    5  C12 UNL     1      22.922   3.623  49.061  1.00  0.00    -0.054 C 
HETATM    6  C13 UNL     1      22.274   3.705  50.236  1.00  0.00     0.007 C 
HETATM    7  C14 UNL     1      21.064   3.063  50.717  1.00  0.00     0.001 C 
HETATM    8  C15 UNL     1      20.645   1.893  50.262  1.00  0.00    -0.000 C 
HETATM    9  C16 UNL     1      21.189   0.983  49.257  1.00  0.00    -0.004 C 
HETATM   10  C17 UNL     1      21.966   1.458  48.296  1.00  0.00    -0.022 C 
HETATM   11  C18 UNL     1      22.487   2.785  47.924  1.00  0.00     0.065 C 
ENDBRANCH   4   5
ENDBRANCH   2   3
ENDBRANCH   1   2
BRANCH   1  12
HETATM   12  N1  UNL     1      26.948   1.796  52.195  1.00  0.00     0.021 N 
HETATM   13  C3  UNL     1      26.239   0.520  51.937  1.00  0.00     0.691 C 
HETATM   14  C4  UNL     1      26.899  -0.616  52.300  1.00  0.00     0.059 C 
HETATM   15  C5  UNL     1      27.812  -1.773  52.780  1.00  0.00    -0.016 C 
HETATM   16  C6  UNL     1      29.082  -1.999  53.387  1.00  0.00    -0.006 C 
HETATM   17  C7  UNL     1      30.023  -0.855  53.781  1.00  0.00     0.033 C 
HETATM   18  C8  UNL     1      29.299   0.360  53.360  1.00  0.00    -0.008 C 
HETATM   19  C9  UNL     1      28.622   1.466  53.312  1.00  0.00     0.110 C 
HETATM   20  N2  UNL     1      27.944   2.604  52.900  1.00  0.00    -0.231 N 
HETATM   21  H9  UNL     1      28.211   3.532  53.117  1.00  0.00     0.192 HD
ENDBRANCH   1  12
TORSDOF 4
ENDMDL
MODEL 6
REMARK VINA RESULT:      -7.7      3.989      7.198
REMARK  4 active torsions:
REMARK  status: ('A' for Active; 'I' for Inactive)
REMARK    1  A    between atoms: C1_1  and  C2_2 
REMARK    2  A    between atoms: C1_1  and  C10_12 
REMARK    3  A    between atoms: C2_2  and  N1_3 
REMARK    4  A    between atoms: C11_13  and  C12_14 
ROOT
HETATM    1  C2  UNL     1      22.961   1.214  52.498  1.00  0.00     0.127 C 
ENDROOT
BRANCH   1   2
HETATM    2  C1  UNL     1      24.023   1.629  52.024  1.00  0.00    -0.048 C 
BRANCH   2   3
HETATM    3  C10 UNL     1      25.264   2.097  51.491  1.00  0.00     0.067 C 
HETATM    4  C11 UNL     1      26.482   1.648  51.700  1.00  0.00     0.016 C 
BRANCH   4   5
HETATM    5  C12 UNL     1      27.108   0.583  52.483  1.00  0.00    -0.054 C 
HETATM    6  C13 UNL     1      28.297   0.913  53.018  1.00  0.00     0.007 C 
HETATM    7  C14 UNL     1      29.225   0.161  53.844  1.00  0.00     0.001 C 
HETATM    8  C15 UNL     1      29.303  -1.159  53.813  1.00  0.00    -0.000 C 
HETATM    9  C16 UNL     1      28.575  -2.164  53.041  1.00  0.00    -0.004 C 
HETATM   10  C17 UNL     1      27.363  -1.889  52.586  1.00  0.00    -0.022 C 
HETATM   11  C18 UNL     1      26.453  -0.732  52.649  1.00  0.00     0.065 C 
ENDBRANCH   4   5
ENDBRANCH   2   3
ENDBRANCH   1   2
BRANCH   1  12
HETATM   12  N1  UNL     1      21.733   0.708  53.058  1.00  0.00     0.021 N 
HETATM   13  C3  UNL     1      20.652   1.360  52.282  1.00  0.00     0.691 C 
HETATM   14  C4  UNL     1      19.455   0.708  52.257  1.00  0.00     0.059 C 
HETATM   15  C5  UNL     1      18.192  -0.186  52.357  1.00  0.00    -0.016 C 
HETATM   16  C6  UNL     1      17.744  -1.402  52.952  1.00  0.00    -0.006 C 
HETATM   17  C7  UNL     1      18.650  -2.275  53.826  1.00  0.00     0.033 C 
HETATM   18  C8  UNL     1      19.942  -1.563  53.821  1.00  0.00    -0.008 C 
HETATM   19  C9  UNL     1      20.994  -0.867  54.123  1.00  0.00     0.110 C 
HETATM   20  N2  UNL     1      22.211  -0.201  54.101  1.00  0.00    -0.231 N 
HETATM   21  H9  UNL     1      22.989  -0.425  54.669  1.00  0.00     0.192 HD
ENDBRANCH   1  12
TORSDOF 4
ENDMDL
MODEL 7
REMARK VINA RESULT:      -7.6      1.075      1.802
REMARK  4 active torsions:
REMARK  status: ('A' for Active; 'I' for Inactive)
REMARK    1  A    between atoms: C1_1  and  C2_2 
REMARK    2  A    between atoms: C1_1  and  C10_12 
REMARK    3  A    between atoms: C2_2  and  N1_3 
REMARK    4  A    between atoms: C11_13  and  C12_14 
ROOT
HETATM    1  C2  UNL     1      25.022   2.468  53.101  1.00  0.00     0.127 C 
ENDROOT
BRANCH   1   2
HETATM    2  C1  UNL     1      24.128   3.221  52.702  1.00  0.00    -0.048 C 
BRANCH   2   3
HETATM    3  C10 UNL     1      23.103   4.093  52.220  1.00  0.00     0.067 C 
HETATM    4  C11 UNL     1      23.206   5.147  51.440  1.00  0.00     0.016 C 
BRANCH   4   5
HETATM    5  C12 UNL     1      24.278   5.873  50.760  1.00  0.00    -0.054 C 
HETATM    6  C13 UNL     1      24.159   7.211  50.806  1.00  0.00     0.007 C 
HETATM    7  C14 UNL     1      24.990   8.273  50.268  1.00  0.00     0.001 C 
HETATM    8  C15 UNL     1      25.760   8.110  49.205  1.00  0.00    -0.000 C 
HETATM    9  C16 UNL     1      25.999   6.959  48.337  1.00  0.00    -0.004 C 
HETATM   10  C17 UNL     1      25.811   5.735  48.806  1.00  0.00    -0.022 C 
HETATM   11  C18 UNL     1      25.384   5.155  50.091  1.00  0.00     0.065 C 
ENDBRANCH   4   5
ENDBRANCH   2   3
ENDBRANCH   1   2
BRANCH   1  12
HETATM   12  N1  UNL     1      26.076   1.609  53.578  1.00  0.00     0.021 N 
HETATM   13  C3  UNL     1      25.586   0.228  53.355  1.00  0.00     0.691 C 
HETATM   14  C4  UNL     1      26.543  -0.737  53.245  1.00  0.00     0.059 C 
HETATM   15  C5  UNL     1      27.777  -1.670  53.152  1.00  0.00    -0.016 C 
HETATM   16  C6  UNL     1      29.201  -1.629  53.221  1.00  0.00    -0.006 C 
HETATM   17  C7  UNL     1      29.978  -0.331  53.464  1.00  0.00     0.033 C 
HETATM   18  C8  UNL     1      28.926   0.700  53.557  1.00  0.00    -0.008 C 
HETATM   19  C9  UNL     1      28.081   1.601  53.955  1.00  0.00     0.110 C 
HETATM   20  N2  UNL     1      27.089   2.568  54.025  1.00  0.00    -0.231 N 
HETATM   21  H9  UNL     1      27.232   3.507  54.301  1.00  0.00     0.192 HD
ENDBRANCH   1  12
TORSDOF 4
ENDMDL
MODEL 8
REMARK VINA RESULT:      -7.6      5.868      8.414
REMARK  4 active torsions:
REMARK  status: ('A' for Active; 'I' for Inactive)
REMARK    1  A    between atoms: C1_1  and  C2_2 
REMARK    2  A    between atoms: C1_1  and  C10_12 
REMARK    3  A    between atoms: C2_2  and  N1_3 
REMARK    4  A    between atoms: C11_13  and  C12_14 
ROOT
HETATM    1  C2  UNL     1      20.212  -0.822  53.785  1.00  0.00     0.127 C 
ENDROOT
BRANCH   1   2
HETATM    2  C1  UNL     1      21.305  -1.052  54.312  1.00  0.00    -0.048 C 
BRANCH   2   3
HETATM    3  C10 UNL     1      22.561  -1.335  54.935  1.00  0.00     0.067 C 
HETATM    4  C11 UNL     1      23.769  -0.957  54.579  1.00  0.00     0.016 C 
BRANCH   4   5
HETATM    5  C12 UNL     1      24.368  -0.163  53.507  1.00  0.00    -0.054 C 
HETATM    6  C13 UNL     1      25.576  -0.596  53.105  1.00  0.00     0.007 C 
HETATM    7  C14 UNL     1      26.489  -0.101  52.090  1.00  0.00     0.001 C 
HETATM    8  C15 UNL     1      26.519   1.166  51.711  1.00  0.00    -0.000 C 
HETATM    9  C16 UNL     1      25.745   2.332  52.132  1.00  0.00    -0.004 C 
HETATM   10  C17 UNL     1      24.537   2.164  52.646  1.00  0.00    -0.022 C 
HETATM   11  C18 UNL     1      23.670   1.010  52.941  1.00  0.00     0.065 C 
ENDBRANCH   4   5
ENDBRANCH   2   3
ENDBRANCH   1   2
BRANCH   1  12
HETATM   12  N1  UNL     1      18.942  -0.572  53.151  1.00  0.00     0.021 N 
HETATM   13  C3  UNL     1      19.256   0.259  51.964  1.00  0.00     0.691 C 
HETATM   14  C4  UNL     1      18.349   0.217  50.947  1.00  0.00     0.059 C 
HETATM   15  C5  UNL     1      17.204   0.029  49.919  1.00  0.00    -0.016 C 
HETATM   16  C6  UNL     1      15.968  -0.663  49.756  1.00  0.00    -0.006 C 
HETATM   17  C7  UNL     1      15.390  -1.582  50.838  1.00  0.00     0.033 C 
HETATM   18  C8  UNL     1      16.395  -1.538  51.916  1.00  0.00    -0.008 C 
HETATM   19  C9  UNL     1      17.050  -1.321  53.015  1.00  0.00     0.110 C 
HETATM   20  N2  UNL     1      18.008  -1.289  54.019  1.00  0.00    -0.231 N 
HETATM   21  H9  UNL     1      17.892  -1.673  54.923  1.00  0.00     0.192 HD
ENDBRANCH   1  12
TORSDOF 4
ENDMDL
MODEL 9
REMARK VINA RESULT:      -7.4      2.724      7.684
REMARK  4 active torsions:
REMARK  status: ('A' for Active; 'I' for Inactive)
REMARK    1  A    between atoms: C1_1  and  C2_2 
REMARK    2  A    between atoms: C1_1  and  C10_12 
REMARK    3  A    between atoms: C2_2  and  N1_3 
REMARK    4  A    between atoms: C11_13  and  C12_14 
ROOT
HETATM    1  C2  UNL     1      26.106   2.543  50.689  1.00  0.00     0.127 C 
ENDROOT
BRANCH   1   2
HETATM    2  C1  UNL     1      26.353   1.673  51.530  1.00  0.00    -0.048 C 
BRANCH   2   3
HETATM    3  C10 UNL     1      26.635   0.650  52.488  1.00  0.00     0.067 C 
HETATM    4  C11 UNL     1      25.811   0.013  53.291  1.00  0.00     0.016 C 
BRANCH   4   5
HETATM    5  C12 UNL     1      24.377   0.024  53.578  1.00  0.00    -0.054 C 
HETATM    6  C13 UNL     1      23.991  -0.870  54.506  1.00  0.00     0.007 C 
HETATM    7  C14 UNL     1      22.686  -1.176  55.066  1.00  0.00     0.001 C 
HETATM    8  C15 UNL     1      21.558  -0.969  54.407  1.00  0.00    -0.000 C 
HETATM    9  C16 UNL     1      21.287  -0.435  53.075  1.00  0.00    -0.004 C 
HETATM   10  C17 UNL     1      22.161   0.381  52.506  1.00  0.00    -0.022 C 
HETATM   11  C18 UNL     1      23.464   0.956  52.885  1.00  0.00     0.065 C 
ENDBRANCH   4   5
ENDBRANCH   2   3
ENDBRANCH   1   2
BRANCH   1  12
HETATM   12  N1  UNL     1      25.824   3.542  49.689  1.00  0.00     0.021 N 
HETATM   13  C3  UNL     1      24.383   3.387  49.378  1.00  0.00     0.691 C 
HETATM   14  C4  UNL     1      23.759   4.486  48.865  1.00  0.00     0.059 C 
HETATM   15  C5  UNL     1      23.247   5.835  48.298  1.00  0.00    -0.016 C 
HETATM   16  C6  UNL     1      23.710   7.145  47.977  1.00  0.00    -0.006 C 
HETATM   17  C7  UNL     1      25.166   7.578  48.180  1.00  0.00     0.033 C 
HETATM   18  C8  UNL     1      25.814   6.384  48.754  1.00  0.00    -0.008 C 
HETATM   19  C9  UNL     1      26.522   5.316  48.963  1.00  0.00     0.110 C 
HETATM   20  N2  UNL     1      27.123   4.195  49.518  1.00  0.00    -0.231 N 
HETATM   21  H9  UNL     1      28.096   4.086  49.657  1.00  0.00     0.192 HD
ENDBRANCH   1  12
TORSDOF 4
ENDMDL
