MODEL 1
REMARK VINA RESULT:      -8.7      0.000      0.000
REMARK  3 active torsions:
REMARK  status: ('A' for Active; 'I' for Inactive)
REMARK    1  A    between atoms: C3_3  and  C4_5 
REMARK    2  A    between atoms: C7_8  and  N1_9 
REMARK    3  A    between atoms: C13_17  and  O3_18 
ROOT
HETATM    1  C4  UNL     1      21.767   1.563  52.665  1.00  0.00     0.005 C 
HETATM    2  C5  UNL     1      22.858   2.110  52.264  1.00  0.00    -0.036 C 
HETATM    3  C6  UNL     1      24.279   1.708  52.401  1.00  0.00     0.038 C 
HETATM    4  C7  UNL     1      25.295   2.024  51.631  1.00  0.00     0.064 C 
HETATM    5  C13 UNL     1      26.133   2.580  50.569  1.00  0.00     0.170 C 
HETATM    6  C14 UNL     1      25.474   3.337  49.469  1.00  0.00     0.041 C 
HETATM    7  O4  UNL     1      24.960   4.599  49.727  1.00  0.00     0.000 OA
HETATM    8  C15 UNL     1      24.172   5.415  48.945  1.00  0.00     0.012 A 
HETATM    9  P1  UNL     1      23.309   4.968  50.230  1.00  0.00    -0.060 P 
HETATM   10  C16 UNL     1      21.637   5.289  50.814  1.00  0.00     0.036 A 
HETATM   11  C17 UNL     1      21.555   4.170  51.584  1.00  0.00     0.014 A 
HETATM   12  C18 UNL     1      22.819   3.365  51.512  1.00  0.00     0.124 A 
HETATM   13  N2  UNL     1      20.551   3.645  52.392  1.00  0.00    -0.388 N 
HETATM   14  C19 UNL     1      20.496   2.286  52.873  1.00  0.00     0.162 C 
HETATM   15  H24 UNL     1      19.831   4.336  52.619  1.00  0.00     0.159 HD
ENDROOT
BRANCH   4  16
HETATM   16  N1  UNL     1      26.384   1.316  52.314  1.00  0.00    -0.258 N 
HETATM   17  C8  UNL     1      26.666   0.029  51.729  1.00  0.00     0.182 C 
HETATM   18  C9  UNL     1      27.084  -1.016  52.708  1.00  0.00     0.189 C 
HETATM   19  O1  UNL     1      28.415  -0.775  53.045  1.00  0.00    -0.389 OA
HETATM   20  C10 UNL     1      28.548  -0.415  54.379  1.00  0.00     0.169 C 
HETATM   21  C11 UNL     1      28.458   1.085  54.568  1.00  0.00     0.055 C 
HETATM   22  C12 UNL     1      27.060   1.604  54.487  1.00  0.00     0.203 C 
HETATM   23  O2  UNL     1      26.738   2.159  53.270  1.00  0.00    -0.278 OA
ENDBRANCH   4  16
BRANCH   5  24
HETATM   24  O3  UNL     1      27.243   3.295  51.094  1.00  0.00    -0.389 OA
HETATM   25  H17 UNL     1      28.026   2.757  50.889  1.00  0.00     0.210 HD
ENDBRANCH   5  24
BRANCH   1  26
HETATM   26  C3  UNL     1      21.927   0.144  52.881  1.00  0.00     0.120 C 
HETATM   27  C2  UNL     1      21.693  -0.379  54.069  1.00  0.00     0.012 C 
HETATM   28  C1  UNL     1      21.840  -1.842  54.323  1.00  0.00     0.039 C 
HETATM   29  F1  UNL     1      22.290  -0.832  52.037  1.00  0.00    -0.206 F 
ENDBRANCH   1  26
TORSDOF 3
ENDMDL
MODEL 2
REMARK VINA RESULT:      -8.2      2.914      5.632
REMARK  3 active torsions:
REMARK  status: ('A' for Active; 'I' for Inactive)
REMARK    1  A    between atoms: C3_3  and  C4_5 
REMARK    2  A    between atoms: C7_8  and  N1_9 
REMARK    3  A    between atoms: C13_17  and  O3_18 
ROOT
HETATM    1  C4  UNL     1      24.493  -0.008  53.582  1.00  0.00     0.005 C 
HETATM    2  C5  UNL     1      23.569   0.661  52.990  1.00  0.00    -0.036 C 
HETATM    3  C6  UNL     1      23.611   1.881  52.147  1.00  0.00     0.038 C 
HETATM    4  C7  UNL     1      22.759   2.265  51.224  1.00  0.00     0.064 C 
HETATM    5  C13 UNL     1      21.625   2.343  50.305  1.00  0.00     0.170 C 
HETATM    6  C14 UNL     1      20.685   1.191  50.240  1.00  0.00     0.041 C 
HETATM    7  O4  UNL     1      19.815   0.965  51.297  1.00  0.00     0.000 OA
HETATM    8  C15 UNL     1      18.985  -0.106  51.551  1.00  0.00     0.012 A 
HETATM    9  P1  UNL     1      20.121  -0.069  52.693  1.00  0.00    -0.060 P 
HETATM   10  C16 UNL     1      20.508  -1.075  54.135  1.00  0.00     0.036 A 
HETATM   11  C17 UNL     1      21.823  -0.727  54.183  1.00  0.00     0.014 A 
HETATM   12  C18 UNL     1      22.173   0.230  53.083  1.00  0.00     0.124 A 
HETATM   13  N2  UNL     1      22.870  -1.087  55.027  1.00  0.00    -0.388 N 
HETATM   14  C19 UNL     1      24.271  -0.894  54.741  1.00  0.00     0.162 C 
HETATM   15  H24 UNL     1      22.542  -1.517  55.895  1.00  0.00     0.159 HD
ENDROOT
BRANCH   4  16
HETATM   16  N1  UNL     1      23.377   3.525  50.794  1.00  0.00    -0.258 N 
HETATM   17  C8  UNL     1      24.173   3.377  49.600  1.00  0.00     0.182 C 
HETATM   18  C9  UNL     1      25.384   4.248  49.553  1.00  0.00     0.189 C 
HETATM   19  O1  UNL     1      24.968   5.537  49.228  1.00  0.00    -0.389 OA
HETATM   20  C10 UNL     1      25.185   6.425  50.273  1.00  0.00     0.169 C 
HETATM   21  C11 UNL     1      23.986   6.509  51.195  1.00  0.00     0.055 C 
HETATM   22  C12 UNL     1      23.868   5.337  52.113  1.00  0.00     0.203 C 
HETATM   23  O2  UNL     1      22.957   4.392  51.700  1.00  0.00    -0.278 OA
ENDBRANCH   4  16
BRANCH   5  24
HETATM   24  O3  UNL     1      20.925   3.573  50.434  1.00  0.00    -0.389 OA
HETATM   25  H17 UNL     1      21.522   4.169  50.917  1.00  0.00     0.210 HD
ENDBRANCH   5  24
BRANCH   1  26
HETATM   26  C3  UNL     1      25.784   0.203  52.969  1.00  0.00     0.120 C 
HETATM   27  C2  UNL     1      26.759   0.771  53.651  1.00  0.00     0.012 C 
HETATM   28  C1  UNL     1      28.107   0.995  53.050  1.00  0.00     0.039 C 
HETATM   29  F1  UNL     1      26.226  -0.097  51.740  1.00  0.00    -0.206 F 
ENDBRANCH   1  26
TORSDOF 3
ENDMDL
MODEL 3
REMARK VINA RESULT:      -7.4      3.212      6.653
REMARK  3 active torsions:
REMARK  status: ('A' for Active; 'I' for Inactive)
REMARK    1  A    between atoms: C3_3  and  C4_5 
REMARK    2  A    between atoms: C7_8  and  N1_9 
REMARK    3  A    between atoms: C13_17  and  O3_18 
ROOT
HETATM    1  C4  UNL     1      25.488   0.555  52.989  1.00  0.00     0.005 C 
HETATM    2  C5  UNL     1      24.225   0.788  52.970  1.00  0.00    -0.036 C 
HETATM    3  C6  UNL     1      23.413   1.805  52.258  1.00  0.00     0.038 C 
HETATM    4  C7  UNL     1      22.148   1.742  51.911  1.00  0.00     0.064 C 
HETATM    5  C13 UNL     1      20.769   1.304  51.702  1.00  0.00     0.170 C 
HETATM    6  C14 UNL     1      20.400  -0.085  52.094  1.00  0.00     0.041 C 
HETATM    7  O4  UNL     1      20.300  -0.404  53.440  1.00  0.00     0.000 OA
HETATM    8  C15 UNL     1      20.144  -1.629  54.053  1.00  0.00     0.012 A 
HETATM    9  P1  UNL     1      21.592  -1.047  54.455  1.00  0.00    -0.060 P 
HETATM   10  C16 UNL     1      22.960  -1.630  55.469  1.00  0.00     0.036 A 
HETATM   11  C17 UNL     1      23.908  -0.876  54.849  1.00  0.00     0.014 A 
HETATM   12  C18 UNL     1      23.311  -0.047  53.751  1.00  0.00     0.124 A 
HETATM   13  N2  UNL     1      25.281  -0.741  55.029  1.00  0.00    -0.388 N 
HETATM   14  C19 UNL     1      26.191  -0.157  54.074  1.00  0.00     0.162 C 
HETATM   15  H24 UNL     1      25.595  -1.108  55.931  1.00  0.00     0.159 HD
ENDROOT
BRANCH   4  16
HETATM   16  N1  UNL     1      21.981   3.048  51.260  1.00  0.00    -0.258 N 
HETATM   17  C8  UNL     1      21.902   2.949  49.824  1.00  0.00     0.182 C 
HETATM   18  C9  UNL     1      22.521   4.092  49.091  1.00  0.00     0.189 C 
HETATM   19  O1  UNL     1      21.638   5.168  49.158  1.00  0.00    -0.389 OA
HETATM   20  C10 UNL     1      22.166   6.218  49.897  1.00  0.00     0.169 C 
HETATM   21  C11 UNL     1      21.800   6.112  51.363  1.00  0.00     0.055 C 
HETATM   22  C12 UNL     1      22.606   5.090  52.096  1.00  0.00     0.203 C 
HETATM   23  O2  UNL     1      21.957   3.891  52.278  1.00  0.00    -0.278 OA
ENDBRANCH   4  16
BRANCH   5  24
HETATM   24  O3  UNL     1      19.833   2.247  52.204  1.00  0.00    -0.389 OA
HETATM   25  H17 UNL     1      18.994   1.766  52.296  1.00  0.00     0.210 HD
ENDBRANCH   5  24
BRANCH   1  26
HETATM   26  C3  UNL     1      26.145   1.068  51.809  1.00  0.00     0.120 C 
HETATM   27  C2  UNL     1      26.105   2.357  51.532  1.00  0.00     0.012 C 
HETATM   28  C1  UNL     1      26.781   2.920  50.326  1.00  0.00     0.039 C 
HETATM   29  F1  UNL     1      26.855   0.439  50.861  1.00  0.00    -0.206 F 
ENDBRANCH   1  26
TORSDOF 3
ENDMDL
MODEL 4
REMARK VINA RESULT:      -7.3      3.573      7.195
REMARK  3 active torsions:
REMARK  status: ('A' for Active; 'I' for Inactive)
REMARK    1  A    between atoms: C3_3  and  C4_5 
REMARK    2  A    between atoms: C7_8  and  N1_9 
REMARK    3  A    between atoms: C13_17  and  O3_18 
ROOT
HETATM    1  C4  UNL     1      23.940   3.035  49.592  1.00  0.00     0.005 C 
HETATM    2  C5  UNL     1      23.351   2.462  50.580  1.00  0.00    -0.036 C 
HETATM    3  C6  UNL     1      21.921   2.193  50.863  1.00  0.00     0.038 C 
HETATM    4  C7  UNL     1      21.400   1.251  51.617  1.00  0.00     0.064 C 
HETATM    5  C13 UNL     1      21.218   0.107  52.508  1.00  0.00     0.170 C 
HETATM    6  C14 UNL     1      22.416  -0.684  52.900  1.00  0.00     0.041 C 
HETATM    7  O4  UNL     1      23.329  -0.136  53.789  1.00  0.00     0.000 OA
HETATM    8  C15 UNL     1      24.576  -0.583  54.171  1.00  0.00     0.012 A 
HETATM    9  P1  UNL     1      24.764   0.798  53.362  1.00  0.00    -0.060 P 
HETATM   10  C16 UNL     1      26.174   1.809  52.882  1.00  0.00     0.036 A 
HETATM   11  C17 UNL     1      25.547   2.412  51.836  1.00  0.00     0.014 A 
HETATM   12  C18 UNL     1      24.136   1.924  51.692  1.00  0.00     0.124 A 
HETATM   13  N2  UNL     1      25.956   3.358  50.901  1.00  0.00    -0.388 N 
HETATM   14  C19 UNL     1      25.283   3.643  49.657  1.00  0.00     0.162 C 
HETATM   15  H24 UNL     1      26.809   3.846  51.187  1.00  0.00     0.159 HD
ENDROOT
BRANCH   4  16
HETATM   16  N1  UNL     1      19.970   1.545  51.468  1.00  0.00    -0.258 N 
HETATM   17  C8  UNL     1      19.254   0.499  50.781  1.00  0.00     0.182 C 
HETATM   18  C9  UNL     1      18.139   0.980  49.915  1.00  0.00     0.189 C 
HETATM   19  O1  UNL     1      17.064   1.299  50.743  1.00  0.00    -0.389 OA
HETATM   20  C10 UNL     1      16.785   2.658  50.719  1.00  0.00     0.169 C 
HETATM   21  C11 UNL     1      17.548   3.407  51.792  1.00  0.00     0.055 C 
HETATM   22  C12 UNL     1      18.987   3.618  51.450  1.00  0.00     0.203 C 
HETATM   23  O2  UNL     1      19.842   2.724  52.053  1.00  0.00    -0.278 OA
ENDBRANCH   4  16
BRANCH   5  24
HETATM   24  O3  UNL     1      20.427   0.441  53.640  1.00  0.00    -0.389 OA
HETATM   25  H17 UNL     1      21.053   0.740  54.321  1.00  0.00     0.210 HD
ENDBRANCH   5  24
BRANCH   1  26
HETATM   26  C3  UNL     1      23.130   3.006  48.396  1.00  0.00     0.120 C 
HETATM   27  C2  UNL     1      22.685   4.129  47.866  1.00  0.00     0.012 C 
HETATM   28  C1  UNL     1      21.854   4.134  46.626  1.00  0.00     0.039 C 
HETATM   29  F1  UNL     1      22.711   1.974  47.650  1.00  0.00    -0.206 F 
ENDBRANCH   1  26
TORSDOF 3
ENDMDL
MODEL 5
REMARK VINA RESULT:      -7.3      2.716      5.886
REMARK  3 active torsions:
REMARK  status: ('A' for Active; 'I' for Inactive)
REMARK    1  A    between atoms: C3_3  and  C4_5 
REMARK    2  A    between atoms: C7_8  and  N1_9 
REMARK    3  A    between atoms: C13_17  and  O3_18 
ROOT
HETATM    1  C4  UNL     1      21.516   0.952  52.682  1.00  0.00     0.005 C 
HETATM    2  C5  UNL     1      22.561   1.290  52.015  1.00  0.00    -0.036 C 
HETATM    3  C6  UNL     1      22.743   2.164  50.830  1.00  0.00     0.038 C 
HETATM    4  C7  UNL     1      23.816   2.826  50.461  1.00  0.00     0.064 C 
HETATM    5  C13 UNL     1      25.163   3.392  50.392  1.00  0.00     0.170 C 
HETATM    6  C14 UNL     1      26.098   3.137  51.523  1.00  0.00     0.041 C 
HETATM    7  O4  UNL     1      26.636   1.869  51.685  1.00  0.00     0.000 OA
HETATM    8  C15 UNL     1      27.374   1.343  52.724  1.00  0.00     0.012 A 
HETATM    9  P1  UNL     1      25.961   0.570  52.670  1.00  0.00    -0.060 P 
HETATM   10  C16 UNL     1      25.195  -0.748  53.627  1.00  0.00     0.036 A 
HETATM   11  C17 UNL     1      23.917  -0.408  53.310  1.00  0.00     0.014 A 
HETATM   12  C18 UNL     1      23.879   0.788  52.406  1.00  0.00     0.124 A 
HETATM   13  N2  UNL     1      22.679  -0.938  53.662  1.00  0.00    -0.388 N 
HETATM   14  C19 UNL     1      21.413  -0.261  53.516  1.00  0.00     0.162 C 
HETATM   15  H24 UNL     1      22.753  -1.882  54.049  1.00  0.00     0.159 HD
ENDROOT
BRANCH   4  16
HETATM   16  N1  UNL     1      23.329   3.470  49.235  1.00  0.00    -0.258 N 
HETATM   17  C8  UNL     1      23.239   4.904  49.356  1.00  0.00     0.182 C 
HETATM   18  C9  UNL     1      22.103   5.516  48.607  1.00  0.00     0.189 C 
HETATM   19  O1  UNL     1      22.456   5.558  47.259  1.00  0.00    -0.389 OA
HETATM   20  C10 UNL     1      21.648   4.731  46.492  1.00  0.00     0.169 C 
HETATM   21  C11 UNL     1      22.227   3.336  46.371  1.00  0.00     0.055 C 
HETATM   22  C12 UNL     1      22.033   2.512  47.602  1.00  0.00     0.203 C 
HETATM   23  O2  UNL     1      23.143   2.450  48.414  1.00  0.00    -0.278 OA
ENDBRANCH   4  16
BRANCH   5  24
HETATM   24  O3  UNL     1      25.783   3.126  49.142  1.00  0.00    -0.389 OA
HETATM   25  H17 UNL     1      26.621   2.681  49.350  1.00  0.00     0.210 HD
ENDBRANCH   5  24
BRANCH   1  26
HETATM   26  C3  UNL     1      20.448   1.913  52.527  1.00  0.00     0.120 C 
HETATM   27  C2  UNL     1      19.351   1.589  51.871  1.00  0.00     0.012 C 
HETATM   28  C1  UNL     1      18.226   2.554  51.701  1.00  0.00     0.039 C 
HETATM   29  F1  UNL     1      20.340   3.176  52.964  1.00  0.00    -0.206 F 
ENDBRANCH   1  26
TORSDOF 3
ENDMDL
MODEL 6
REMARK VINA RESULT:      -7.2      3.303      5.951
REMARK  3 active torsions:
REMARK  status: ('A' for Active; 'I' for Inactive)
REMARK    1  A    between atoms: C3_3  and  C4_5 
REMARK    2  A    between atoms: C7_8  and  N1_9 
REMARK    3  A    between atoms: C13_17  and  O3_18 
ROOT
HETATM    1  C4  UNL     1      25.434   2.660  51.346  1.00  0.00     0.005 C 
HETATM    2  C5  UNL     1      24.378   3.300  50.991  1.00  0.00    -0.036 C 
HETATM    3  C6  UNL     1      22.937   2.960  51.073  1.00  0.00     0.038 C 
HETATM    4  C7  UNL     1      21.907   3.775  51.123  1.00  0.00     0.064 C 
HETATM    5  C13 UNL     1      21.059   4.965  51.161  1.00  0.00     0.170 C 
HETATM    6  C14 UNL     1      21.714   6.301  51.235  1.00  0.00     0.041 C 
HETATM    7  O4  UNL     1      22.367   6.799  50.117  1.00  0.00     0.000 OA
HETATM    8  C15 UNL     1      23.178   7.905  49.981  1.00  0.00     0.012 A 
HETATM    9  P1  UNL     1      24.076   6.591  49.732  1.00  0.00    -0.060 P 
HETATM   10  C16 UNL     1      25.808   6.289  49.343  1.00  0.00     0.036 A 
HETATM   11  C17 UNL     1      25.830   5.022  49.839  1.00  0.00     0.014 A 
HETATM   12  C18 UNL     1      24.491   4.629  50.387  1.00  0.00     0.124 A 
HETATM   13  N2  UNL     1      26.829   4.058  49.937  1.00  0.00    -0.388 N 
HETATM   14  C19 UNL     1      26.781   2.895  50.790  1.00  0.00     0.162 C 
HETATM   15  H24 UNL     1      27.628   4.261  49.332  1.00  0.00     0.159 HD
ENDROOT
BRANCH   4  16
HETATM   16  N1  UNL     1      20.802   2.812  51.190  1.00  0.00    -0.258 N 
HETATM   17  C8  UNL     1      20.409   2.507  52.544  1.00  0.00     0.182 C 
HETATM   18  C9  UNL     1      19.962   1.099  52.755  1.00  0.00     0.189 C 
HETATM   19  O1  UNL     1      18.666   0.986  52.255  1.00  0.00    -0.389 OA
HETATM   20  C10 UNL     1      18.613   0.138  51.158  1.00  0.00     0.169 C 
HETATM   21  C11 UNL     1      18.811   0.889  49.857  1.00  0.00     0.055 C 
HETATM   22  C12 UNL     1      20.237   1.255  49.603  1.00  0.00     0.203 C 
HETATM   23  O2  UNL     1      20.545   2.559  49.918  1.00  0.00    -0.278 OA
ENDBRANCH   4  16
BRANCH   5  24
HETATM   24  O3  UNL     1      20.064   4.936  50.147  1.00  0.00    -0.389 OA
HETATM   25  H17 UNL     1      19.211   4.915  50.614  1.00  0.00     0.210 HD
ENDBRANCH   5  24
BRANCH   1  26
HETATM   26  C3  UNL     1      25.149   1.681  52.370  1.00  0.00     0.120 C 
HETATM   27  C2  UNL     1      25.559   0.435  52.232  1.00  0.00     0.012 C 
HETATM   28  C1  UNL     1      25.288  -0.597  53.275  1.00  0.00     0.039 C 
HETATM   29  F1  UNL     1      24.499   1.802  53.536  1.00  0.00    -0.206 F 
ENDBRANCH   1  26
TORSDOF 3
ENDMDL
MODEL 7
REMARK VINA RESULT:      -7.1      3.452      7.160
REMARK  3 active torsions:
REMARK  status: ('A' for Active; 'I' for Inactive)
REMARK    1  A    between atoms: C3_3  and  C4_5 
REMARK    2  A    between atoms: C7_8  and  N1_9 
REMARK    3  A    between atoms: C13_17  and  O3_18 
ROOT
HETATM    1  C4  UNL     1      24.829   2.184  51.474  1.00  0.00     0.005 C 
HETATM    2  C5  UNL     1      23.571   2.377  51.649  1.00  0.00    -0.036 C 
HETATM    3  C6  UNL     1      22.651   3.433  51.161  1.00  0.00     0.038 C 
HETATM    4  C7  UNL     1      21.351   3.366  50.983  1.00  0.00     0.064 C 
HETATM    5  C13 UNL     1      19.965   2.907  50.919  1.00  0.00     0.170 C 
HETATM    6  C14 UNL     1      19.678   1.476  51.214  1.00  0.00     0.041 C 
HETATM    7  O4  UNL     1      19.769   1.022  52.521  1.00  0.00     0.000 OA
HETATM    8  C15 UNL     1      19.721  -0.262  53.022  1.00  0.00     0.012 A 
HETATM    9  P1  UNL     1      21.200   0.323  53.282  1.00  0.00    -0.060 P 
HETATM   10  C16 UNL     1      22.705  -0.314  54.037  1.00  0.00     0.036 A 
HETATM   11  C17 UNL     1      23.545   0.527  53.375  1.00  0.00     0.014 A 
HETATM   12  C18 UNL     1      22.788   1.441  52.458  1.00  0.00     0.124 A 
HETATM   13  N2  UNL     1      24.927   0.687  53.381  1.00  0.00    -0.388 N 
HETATM   14  C19 UNL     1      25.687   1.390  52.376  1.00  0.00     0.162 C 
HETATM   15  H24 UNL     1      25.368   0.243  54.189  1.00  0.00     0.159 HD
ENDROOT
BRANCH   4  16
HETATM   16  N1  UNL     1      21.074   4.723  50.498  1.00  0.00    -0.258 N 
HETATM   17  C8  UNL     1      20.508   4.736  49.171  1.00  0.00     0.182 C 
HETATM   18  C9  UNL     1      20.928   5.896  48.332  1.00  0.00     0.189 C 
HETATM   19  O1  UNL     1      20.202   7.009  48.753  1.00  0.00    -0.389 OA
HETATM   20  C10 UNL     1      21.026   7.972  49.321  1.00  0.00     0.169 C 
HETATM   21  C11 UNL     1      21.169   7.777  50.816  1.00  0.00     0.055 C 
HETATM   22  C12 UNL     1      22.096   6.662  51.176  1.00  0.00     0.203 C 
HETATM   23  O2  UNL     1      21.457   5.488  51.506  1.00  0.00    -0.278 OA
ENDBRANCH   4  16
BRANCH   5  24
HETATM   24  O3  UNL     1      19.091   3.766  51.637  1.00  0.00    -0.389 OA
HETATM   25  H17 UNL     1      19.422   4.667  51.487  1.00  0.00     0.210 HD
ENDBRANCH   5  24
BRANCH   1  26
HETATM   26  C3  UNL     1      25.308   2.831  50.274  1.00  0.00     0.120 C 
HETATM   27  C2  UNL     1      26.442   3.504  50.289  1.00  0.00     0.012 C 
HETATM   28  C1  UNL     1      26.969   4.176  49.065  1.00  0.00     0.039 C 
HETATM   29  F1  UNL     1      24.786   2.880  49.041  1.00  0.00    -0.206 F 
ENDBRANCH   1  26
TORSDOF 3
ENDMDL
MODEL 8
REMARK VINA RESULT:      -7.0      8.836     12.129
REMARK  3 active torsions:
REMARK  status: ('A' for Active; 'I' for Inactive)
REMARK    1  A    between atoms: C3_3  and  C4_5 
REMARK    2  A    between atoms: C7_8  and  N1_9 
REMARK    3  A    between atoms: C13_17  and  O3_18 
ROOT
HETATM    1  C4  UNL     1      33.223   9.327  46.619  1.00  0.00     0.005 C 
HETATM    2  C5  UNL     1      32.532   8.412  47.197  1.00  0.00    -0.036 C 
HETATM    3  C6  UNL     1      31.097   8.334  47.564  1.00  0.00     0.038 C 
HETATM    4  C7  UNL     1      30.354   7.264  47.731  1.00  0.00     0.064 C 
HETATM    5  C13 UNL     1      29.879   5.884  47.822  1.00  0.00     0.170 C 
HETATM    6  C14 UNL     1      30.808   4.788  47.433  1.00  0.00     0.041 C 
HETATM    7  O4  UNL     1      31.875   4.477  48.263  1.00  0.00     0.000 OA
HETATM    8  C15 UNL     1      32.951   3.641  48.053  1.00  0.00     0.012 A 
HETATM    9  P1  UNL     1      33.503   5.151  48.161  1.00  0.00    -0.060 P 
HETATM   10  C16 UNL     1      35.127   5.921  48.066  1.00  0.00     0.036 A 
HETATM   11  C17 UNL     1      34.664   7.150  47.711  1.00  0.00     0.014 A 
HETATM   12  C18 UNL     1      33.167   7.160  47.610  1.00  0.00     0.124 A 
HETATM   13  N2  UNL     1      35.295   8.357  47.425  1.00  0.00    -0.388 N 
HETATM   14  C19 UNL     1      34.687   9.472  46.740  1.00  0.00     0.162 C 
HETATM   15  H24 UNL     1      36.263   8.378  47.754  1.00  0.00     0.159 HD
ENDROOT
BRANCH   4  16
HETATM   16  N1  UNL     1      29.067   7.880  48.078  1.00  0.00    -0.258 N 
HETATM   17  C8  UNL     1      28.102   7.795  47.010  1.00  0.00     0.182 C 
HETATM   18  C9  UNL     1      27.187   8.969  46.909  1.00  0.00     0.189 C 
HETATM   19  O1  UNL     1      26.226   8.846  47.911  1.00  0.00    -0.389 OA
HETATM   20  C10 UNL     1      26.341   9.856  48.856  1.00  0.00     0.169 C 
HETATM   21  C11 UNL     1      27.258   9.458  49.994  1.00  0.00     0.055 C 
HETATM   22  C12 UNL     1      28.706   9.528  49.632  1.00  0.00     0.203 C 
HETATM   23  O2  UNL     1      29.262   8.310  49.313  1.00  0.00    -0.278 OA
ENDBRANCH   4  16
BRANCH   5  24
HETATM   24  O3  UNL     1      29.265   5.619  49.076  1.00  0.00    -0.389 OA
HETATM   25  H17 UNL     1      28.450   6.148  49.089  1.00  0.00     0.210 HD
ENDBRANCH   5  24
BRANCH   1  26
HETATM   26  C3  UNL     1      32.395  10.201  45.820  1.00  0.00     0.120 C 
HETATM   27  C2  UNL     1      32.346  11.493  46.080  1.00  0.00     0.012 C 
HETATM   28  C1  UNL     1      31.507  12.424  45.269  1.00  0.00     0.039 C 
HETATM   29  F1  UNL     1      31.603   9.936  44.772  1.00  0.00    -0.206 F 
ENDBRANCH   1  26
TORSDOF 3
ENDMDL
MODEL 9
REMARK VINA RESULT:      -6.7      9.414     11.591
REMARK  3 active torsions:
REMARK  status: ('A' for Active; 'I' for Inactive)
REMARK    1  A    between atoms: C3_3  and  C4_5 
REMARK    2  A    between atoms: C7_8  and  N1_9 
REMARK    3  A    between atoms: C13_17  and  O3_18 
ROOT
HETATM    1  C4  UNL     1      31.774   8.832  44.261  1.00  0.00     0.005 C 
HETATM    2  C5  UNL     1      31.320   8.265  45.321  1.00  0.00    -0.036 C 
HETATM    3  C6  UNL     1      31.893   7.232  46.217  1.00  0.00     0.038 C 
HETATM    4  C7  UNL     1      31.623   7.009  47.484  1.00  0.00     0.064 C 
HETATM    5  C13 UNL     1      31.069   7.079  48.835  1.00  0.00     0.170 C 
HETATM    6  C14 UNL     1      30.141   8.196  49.163  1.00  0.00     0.041 C 
HETATM    7  O4  UNL     1      28.858   8.189  48.635  1.00  0.00     0.000 OA
HETATM    8  C15 UNL     1      27.887   9.167  48.648  1.00  0.00     0.012 A 
HETATM    9  P1  UNL     1      28.352   8.942  47.122  1.00  0.00    -0.060 P 
HETATM   10  C16 UNL     1      27.900   9.661  45.535  1.00  0.00     0.036 A 
HETATM   11  C17 UNL     1      29.069   9.347  44.915  1.00  0.00     0.014 A 
HETATM   12  C18 UNL     1      30.003   8.630  45.845  1.00  0.00     0.124 A 
HETATM   13  N2  UNL     1      29.550   9.566  43.627  1.00  0.00    -0.388 N 
HETATM   14  C19 UNL     1      30.933   9.471  43.229  1.00  0.00     0.162 C 
HETATM   15  H24 UNL     1      28.806   9.811  42.969  1.00  0.00     0.159 HD
ENDROOT
BRANCH   4  16
HETATM   16  N1  UNL     1      32.514   5.874  47.754  1.00  0.00    -0.258 N 
HETATM   17  C8  UNL     1      33.695   6.253  48.488  1.00  0.00     0.182 C 
HETATM   18  C9  UNL     1      34.921   5.485  48.124  1.00  0.00     0.189 C 
HETATM   19  O1  UNL     1      34.834   4.234  48.731  1.00  0.00    -0.389 OA
HETATM   20  C10 UNL     1      34.723   3.216  47.793  1.00  0.00     0.169 C 
HETATM   21  C11 UNL     1      33.276   2.912  47.465  1.00  0.00     0.055 C 
HETATM   22  C12 UNL     1      32.656   3.922  46.556  1.00  0.00     0.203 C 
HETATM   23  O2  UNL     1      31.877   4.854  47.204  1.00  0.00    -0.278 OA
ENDBRANCH   4  16
BRANCH   5  24
HETATM   24  O3  UNL     1      30.539   5.829  49.252  1.00  0.00    -0.389 OA
HETATM   25  H17 UNL     1      30.298   5.357  48.437  1.00  0.00     0.210 HD
ENDBRANCH   5  24
BRANCH   1  26
HETATM   26  C3  UNL     1      33.216   8.779  44.201  1.00  0.00     0.120 C 
HETATM   27  C2  UNL     1      33.938   9.787  44.649  1.00  0.00     0.012 C 
HETATM   28  C1  UNL     1      35.430   9.760  44.610  1.00  0.00     0.039 C 
HETATM   29  F1  UNL     1      34.037   7.820  43.748  1.00  0.00    -0.206 F 
ENDBRANCH   1  26
TORSDOF 3
ENDMDL
