MODEL 1
REMARK VINA RESULT:      -7.5      0.000      0.000
REMARK  5 active torsions:
REMARK  status: ('A' for Active; 'I' for Inactive)
REMARK    1  A    between atoms: C3_4  and  S1_5 
REMARK    2  A    between atoms: S1_5  and  C4_6 
REMARK    3  A    between atoms: C5_7  and  N1_8 
REMARK    4  A    between atoms: C10_17  and  C11_18 
REMARK    5  A    between atoms: C10_17  and  C17_25 
ROOT
HETATM    1  C4  UNL     1      21.554   3.046  49.727  1.00  0.00     0.127 C 
HETATM    2  C5  UNL     1      22.042   4.100  48.691  1.00  0.00     0.025 C 
HETATM    3  C6  UNL     1      23.360   4.513  48.627  1.00  0.00     0.078 C 
HETATM    4  S2  UNL     1      24.137   4.898  50.238  1.00  0.00    -0.086 SA
HETATM    5  N2  UNL     1      22.887   4.279  50.955  1.00  0.00    -0.172 NA
HETATM    6  C7  UNL     1      22.733   2.861  50.490  1.00  0.00     0.165 C 
HETATM    7  C8  UNL     1      23.227   2.135  51.587  1.00  0.00     0.172 A 
HETATM    8  N3  UNL     1      24.482   1.647  51.544  1.00  0.00     0.073 N 
HETATM    9  N4  UNL     1      25.170   2.847  51.805  1.00  0.00    -0.191 N 
HETATM   10  C9  UNL     1      25.456   3.779  50.687  1.00  0.00     0.238 C 
HETATM   11  C10 UNL     1      24.961   2.017  53.024  1.00  0.00     0.358 A 
HETATM   12  C17 UNL     1      23.566   1.404  52.833  1.00  0.00     0.362 A 
ENDROOT
BRANCH  11  13
HETATM   13  C11 UNL     1      26.041   1.045  53.091  1.00  0.00    -0.006 A 
HETATM   14  C12 UNL     1      27.296   1.593  53.381  1.00  0.00     0.013 A 
HETATM   15  C13 UNL     1      28.419   0.788  53.477  1.00  0.00     0.024 A 
HETATM   16  C14 UNL     1      28.357  -0.581  53.294  1.00  0.00     0.034 A 
HETATM   17 CL2  UNL     1      29.740  -1.636  53.403  1.00  0.00    -0.084 Cl
HETATM   18  C15 UNL     1      27.126  -1.118  53.009  1.00  0.00     0.024 A 
HETATM   19  C16 UNL     1      26.026  -0.323  52.915  1.00  0.00     0.013 A 
ENDBRANCH  11  13
BRANCH   1  20
HETATM   20  S1  UNL     1      20.785   1.651  48.927  1.00  0.00    -0.127 SA
BRANCH  20  21
HETATM   21  C3  UNL     1      19.495   0.996  49.972  1.00  0.00     0.064 C 
HETATM   22  C2  UNL     1      19.111   0.460  51.122  1.00  0.00     0.014 C 
HETATM   23  C1  UNL     1      20.083   0.194  52.206  1.00  0.00     0.062 C 
HETATM   24 CL1  UNL     1      17.420   0.083  51.302  1.00  0.00    -0.089 Cl
ENDBRANCH  20  21
ENDBRANCH   1  20
BRANCH   2  25
HETATM   25  N1  UNL     1      21.016   4.586  47.832  1.00  0.00    -0.401 N 
HETATM   26  H6  UNL     1      20.749   3.678  47.342  1.00  0.00     0.156 HD
HETATM   27  H7  UNL     1      20.795   5.599  47.882  1.00  0.00     0.156 HD
ENDBRANCH   2  25
TORSDOF 5
ENDMDL
MODEL 2
REMARK VINA RESULT:      -7.5      3.478      5.876
REMARK  5 active torsions:
REMARK  status: ('A' for Active; 'I' for Inactive)
REMARK    1  A    between atoms: C3_4  and  S1_5 
REMARK    2  A    between atoms: S1_5  and  C4_6 
REMARK    3  A    between atoms: C5_7  and  N1_8 
REMARK    4  A    between atoms: C10_17  and  C11_18 
REMARK    5  A    between atoms: C10_17  and  C17_25 
ROOT
HETATM    1  C4  UNL     1      23.838   6.748  49.516  1.00  0.00     0.127 C 
HETATM    2  C5  UNL     1      22.618   7.661  49.835  1.00  0.00     0.025 C 
HETATM    3  C6  UNL     1      21.506   7.193  50.511  1.00  0.00     0.078 C 
HETATM    4  S2  UNL     1      20.870   5.575  49.941  1.00  0.00    -0.086 SA
HETATM    5  N2  UNL     1      22.161   5.408  49.067  1.00  0.00    -0.172 NA
HETATM    6  C7  UNL     1      23.355   5.495  49.970  1.00  0.00     0.165 C 
HETATM    7  C8  UNL     1      23.739   4.148  50.084  1.00  0.00     0.172 A 
HETATM    8  N3  UNL     1      23.391   3.454  51.185  1.00  0.00     0.073 N 
HETATM    9  N4  UNL     1      22.042   3.224  50.856  1.00  0.00    -0.191 N 
HETATM   10  C9  UNL     1      21.033   4.271  51.153  1.00  0.00     0.238 C 
HETATM   11  C10 UNL     1      22.932   2.084  50.500  1.00  0.00     0.358 A 
HETATM   12  C17 UNL     1      24.229   2.750  50.019  1.00  0.00     0.362 A 
ENDROOT
BRANCH  11  13
HETATM   13  C11 UNL     1      23.085   1.254  51.684  1.00  0.00    -0.006 A 
HETATM   14  C12 UNL     1      21.884   0.751  52.198  1.00  0.00     0.013 A 
HETATM   15  C13 UNL     1      21.874  -0.056  53.324  1.00  0.00     0.024 A 
HETATM   16  C14 UNL     1      23.037  -0.402  53.988  1.00  0.00     0.034 A 
HETATM   17 CL2  UNL     1      23.077  -1.413  55.407  1.00  0.00    -0.084 Cl
HETATM   18  C15 UNL     1      24.214   0.092  53.484  1.00  0.00     0.024 A 
HETATM   19  C16 UNL     1      24.219   0.885  52.378  1.00  0.00     0.013 A 
ENDBRANCH  11  13
BRANCH   1  20
HETATM   20  S1  UNL     1      25.347   7.416  50.187  1.00  0.00    -0.127 SA
BRANCH  20  21
HETATM   21  C3  UNL     1      26.710   7.029  49.102  1.00  0.00     0.064 C 
HETATM   22  C2  UNL     1      27.502   6.133  48.529  1.00  0.00     0.014 C 
HETATM   23  C1  UNL     1      27.336   4.686  48.788  1.00  0.00     0.062 C 
HETATM   24 CL1  UNL     1      28.742   6.731  47.461  1.00  0.00    -0.089 Cl
ENDBRANCH  20  21
ENDBRANCH   1  20
BRANCH   2  25
HETATM   25  N1  UNL     1      22.760   8.999  49.372  1.00  0.00    -0.401 N 
HETATM   26  H6  UNL     1      21.812   9.390  49.663  1.00  0.00     0.156 HD
HETATM   27  H7  UNL     1      23.656   9.250  48.911  1.00  0.00     0.156 HD
ENDBRANCH   2  25
TORSDOF 5
ENDMDL
MODEL 3
REMARK VINA RESULT:      -7.4      3.539      5.962
REMARK  5 active torsions:
REMARK  status: ('A' for Active; 'I' for Inactive)
REMARK    1  A    between atoms: C3_4  and  S1_5 
REMARK    2  A    between atoms: S1_5  and  C4_6 
REMARK    3  A    between atoms: C5_7  and  N1_8 
REMARK    4  A    between atoms: C10_17  and  C11_18 
REMARK    5  A    between atoms: C10_17  and  C17_25 
ROOT
HETATM    1  C4  UNL     1      23.820  -0.528  53.842  1.00  0.00     0.127 C 
HETATM    2  C5  UNL     1      24.959  -0.787  54.872  1.00  0.00     0.025 C 
HETATM    3  C6  UNL     1      26.095  -0.002  54.926  1.00  0.00     0.078 C 
HETATM    4  S2  UNL     1      26.866   0.368  53.309  1.00  0.00    -0.086 SA
HETATM    5  N2  UNL     1      25.605  -0.239  52.602  1.00  0.00    -0.172 NA
HETATM    6  C7  UNL     1      24.395   0.513  53.072  1.00  0.00     0.165 C 
HETATM    7  C8  UNL     1      24.119   1.345  51.973  1.00  0.00     0.172 A 
HETATM    8  N3  UNL     1      24.506   2.635  52.009  1.00  0.00     0.073 N 
HETATM    9  N4  UNL     1      25.874   2.439  51.740  1.00  0.00    -0.191 N 
HETATM   10  C9  UNL     1      26.792   2.095  52.854  1.00  0.00     0.238 C 
HETATM   11  C10 UNL     1      25.083   2.779  50.525  1.00  0.00     0.358 A 
HETATM   12  C17 UNL     1      23.743   2.057  50.728  1.00  0.00     0.362 A 
ENDROOT
BRANCH  11  13
HETATM   13  C11 UNL     1      24.980   4.228  50.453  1.00  0.00    -0.006 A 
HETATM   14  C12 UNL     1      25.935   4.836  49.630  1.00  0.00     0.013 A 
HETATM   15  C13 UNL     1      25.960   6.211  49.465  1.00  0.00     0.024 A 
HETATM   16  C14 UNL     1      25.053   7.042  50.097  1.00  0.00     0.034 A 
HETATM   17 CL2  UNL     1      25.042   8.776  49.921  1.00  0.00    -0.084 Cl
HETATM   18  C15 UNL     1      24.116   6.445  50.904  1.00  0.00     0.024 A 
HETATM   19  C16 UNL     1      24.097   5.094  51.064  1.00  0.00     0.013 A 
ENDBRANCH  11  13
BRANCH   1  20
HETATM   20  S1  UNL     1      22.253  -0.274  54.652  1.00  0.00    -0.127 SA
BRANCH  20  21
HETATM   21  C3  UNL     1      20.975  -0.046  53.427  1.00  0.00     0.064 C 
HETATM   22  C2  UNL     1      20.261   0.756  52.650  1.00  0.00     0.014 C 
HETATM   23  C1  UNL     1      20.480   2.219  52.650  1.00  0.00     0.062 C 
HETATM   24 CL1  UNL     1      19.057   0.015  51.631  1.00  0.00    -0.089 Cl
ENDBRANCH  20  21
ENDBRANCH   1  20
BRANCH   2  25
HETATM   25  N1  UNL     1      24.717  -1.892  55.737  1.00  0.00    -0.401 N 
HETATM   26  H6  UNL     1      23.682  -1.737  55.938  1.00  0.00     0.156 HD
HETATM   27  H7  UNL     1      25.519  -2.518  55.944  1.00  0.00     0.156 HD
ENDBRANCH   2  25
TORSDOF 5
ENDMDL
MODEL 4
REMARK VINA RESULT:      -7.2      3.041      5.410
REMARK  5 active torsions:
REMARK  status: ('A' for Active; 'I' for Inactive)
REMARK    1  A    between atoms: C3_4  and  S1_5 
REMARK    2  A    between atoms: S1_5  and  C4_6 
REMARK    3  A    between atoms: C5_7  and  N1_8 
REMARK    4  A    between atoms: C10_17  and  C11_18 
REMARK    5  A    between atoms: C10_17  and  C17_25 
ROOT
HETATM    1  C4  UNL     1      21.029   0.978  53.128  1.00  0.00     0.127 C 
HETATM    2  C5  UNL     1      19.985   0.403  52.126  1.00  0.00     0.025 C 
HETATM    3  C6  UNL     1      19.966   0.770  50.793  1.00  0.00     0.078 C 
HETATM    4  S2  UNL     1      20.131   2.564  50.475  1.00  0.00    -0.086 SA
HETATM    5  N2  UNL     1      20.487   2.770  51.988  1.00  0.00    -0.172 NA
HETATM    6  C7  UNL     1      21.686   1.928  52.308  1.00  0.00     0.165 C 
HETATM    7  C8  UNL     1      22.717   2.883  52.345  1.00  0.00     0.172 A 
HETATM    8  N3  UNL     1      23.528   3.019  51.279  1.00  0.00     0.073 N 
HETATM    9  N4  UNL     1      22.650   3.743  50.451  1.00  0.00    -0.191 N 
HETATM   10  C9  UNL     1      21.647   3.011  49.640  1.00  0.00     0.238 C 
HETATM   11  C10 UNL     1      23.597   4.615  51.200  1.00  0.00     0.358 A 
HETATM   12  C17 UNL     1      23.734   3.938  52.572  1.00  0.00     0.362 A 
ENDROOT
BRANCH  11  13
HETATM   13  C11 UNL     1      24.834   4.685  50.438  1.00  0.00    -0.006 A 
HETATM   14  C12 UNL     1      25.161   5.967  49.982  1.00  0.00     0.013 A 
HETATM   15  C13 UNL     1      26.311   6.187  49.242  1.00  0.00     0.024 A 
HETATM   16  C14 UNL     1      27.183   5.163  48.921  1.00  0.00     0.034 A 
HETATM   17 CL2  UNL     1      28.642   5.388  47.993  1.00  0.00    -0.084 Cl
HETATM   18  C15 UNL     1      26.862   3.905  49.368  1.00  0.00     0.024 A 
HETATM   19  C16 UNL     1      25.730   3.694  50.094  1.00  0.00     0.013 A 
ENDBRANCH  11  13
BRANCH   1  20
HETATM   20  S1  UNL     1      21.966  -0.320  53.911  1.00  0.00    -0.127 SA
BRANCH  20  21
HETATM   21  C3  UNL     1      23.656  -0.269  53.340  1.00  0.00     0.064 C 
HETATM   22  C2  UNL     1      24.955  -0.345  53.593  1.00  0.00     0.014 C 
HETATM   23  C1  UNL     1      25.457  -0.592  54.963  1.00  0.00     0.062 C 
HETATM   24 CL1  UNL     1      26.043  -0.146  52.247  1.00  0.00    -0.089 Cl
ENDBRANCH  20  21
ENDBRANCH   1  20
BRANCH   2  25
HETATM   25  N1  UNL     1      19.072  -0.520  52.708  1.00  0.00    -0.401 N 
HETATM   26  H6  UNL     1      18.800   0.025  53.582  1.00  0.00     0.156 HD
HETATM   27  H7  UNL     1      18.907  -1.410  52.199  1.00  0.00     0.156 HD
ENDBRANCH   2  25
TORSDOF 5
ENDMDL
MODEL 5
REMARK VINA RESULT:      -7.1      1.944      2.382
REMARK  5 active torsions:
REMARK  status: ('A' for Active; 'I' for Inactive)
REMARK    1  A    between atoms: C3_4  and  S1_5 
REMARK    2  A    between atoms: S1_5  and  C4_6 
REMARK    3  A    between atoms: C5_7  and  N1_8 
REMARK    4  A    between atoms: C10_17  and  C11_18 
REMARK    5  A    between atoms: C10_17  and  C17_25 
ROOT
HETATM    1  C4  UNL     1      19.316   2.405  49.809  1.00  0.00     0.127 C 
HETATM    2  C5  UNL     1      19.482   2.716  48.292  1.00  0.00     0.025 C 
HETATM    3  C6  UNL     1      20.722   2.760  47.682  1.00  0.00     0.078 C 
HETATM    4  S2  UNL     1      22.009   3.684  48.596  1.00  0.00    -0.086 SA
HETATM    5  N2  UNL     1      21.041   3.757  49.828  1.00  0.00    -0.172 NA
HETATM    6  C7  UNL     1      20.671   2.357  50.218  1.00  0.00     0.165 C 
HETATM    7  C8  UNL     1      21.466   2.148  51.358  1.00  0.00     0.172 A 
HETATM    8  N3  UNL     1      22.609   1.444  51.245  1.00  0.00     0.073 N 
HETATM    9  N4  UNL     1      23.403   2.449  50.660  1.00  0.00    -0.191 N 
HETATM   10  C9  UNL     1      23.346   2.658  49.193  1.00  0.00     0.238 C 
HETATM   11  C10 UNL     1      23.572   2.358  52.138  1.00  0.00     0.358 A 
HETATM   12  C17 UNL     1      22.164   2.038  52.662  1.00  0.00     0.362 A 
ENDROOT
BRANCH  11  13
HETATM   13  C11 UNL     1      24.563   1.329  52.409  1.00  0.00    -0.006 A 
HETATM   14  C12 UNL     1      25.791   1.524  51.768  1.00  0.00     0.013 A 
HETATM   15  C13 UNL     1      26.832   0.625  51.933  1.00  0.00     0.024 A 
HETATM   16  C14 UNL     1      26.710  -0.498  52.731  1.00  0.00     0.034 A 
HETATM   17 CL2  UNL     1      27.988  -1.659  52.971  1.00  0.00    -0.084 Cl
HETATM   18  C15 UNL     1      25.505  -0.690  53.360  1.00  0.00     0.024 A 
HETATM   19  C16 UNL     1      24.485   0.197  53.194  1.00  0.00     0.013 A 
ENDBRANCH  11  13
BRANCH   1  20
HETATM   20  S1  UNL     1      18.256   0.997  50.075  1.00  0.00    -0.127 SA
BRANCH  20  21
HETATM   21  C3  UNL     1      18.767   0.131  51.550  1.00  0.00     0.064 C 
HETATM   22  C2  UNL     1      18.482  -0.671  52.565  1.00  0.00     0.014 C 
HETATM   23  C1  UNL     1      17.125  -1.236  52.740  1.00  0.00     0.062 C 
HETATM   24 CL1  UNL     1      19.770  -1.033  53.682  1.00  0.00    -0.089 Cl
ENDBRANCH  20  21
ENDBRANCH   1  20
BRANCH   2  25
HETATM   25  N1  UNL     1      18.254   2.944  47.610  1.00  0.00    -0.401 N 
HETATM   26  H6  UNL     1      17.671   2.154  48.024  1.00  0.00     0.156 HD
HETATM   27  H7  UNL     1      18.222   3.738  46.943  1.00  0.00     0.156 HD
ENDBRANCH   2  25
TORSDOF 5
ENDMDL
MODEL 6
REMARK VINA RESULT:      -7.1      2.461      6.957
REMARK  5 active torsions:
REMARK  status: ('A' for Active; 'I' for Inactive)
REMARK    1  A    between atoms: C3_4  and  S1_5 
REMARK    2  A    between atoms: S1_5  and  C4_6 
REMARK    3  A    between atoms: C5_7  and  N1_8 
REMARK    4  A    between atoms: C10_17  and  C11_18 
REMARK    5  A    between atoms: C10_17  and  C17_25 
ROOT
HETATM    1  C4  UNL     1      23.639   3.935  51.649  1.00  0.00     0.127 C 
HETATM    2  C5  UNL     1      23.225   5.435  51.715  1.00  0.00     0.025 C 
HETATM    3  C6  UNL     1      21.914   5.844  51.550  1.00  0.00     0.078 C 
HETATM    4  S2  UNL     1      21.025   5.069  50.151  1.00  0.00    -0.086 SA
HETATM    5  N2  UNL     1      22.221   4.069  49.983  1.00  0.00    -0.172 NA
HETATM    6  C7  UNL     1      22.409   3.339  51.279  1.00  0.00     0.165 C 
HETATM    7  C8  UNL     1      21.839   2.085  50.998  1.00  0.00     0.172 A 
HETATM    8  N3  UNL     1      20.590   1.817  51.427  1.00  0.00     0.073 N 
HETATM    9  N4  UNL     1      19.885   2.552  50.455  1.00  0.00    -0.191 N 
HETATM   10  C9  UNL     1      19.678   4.007  50.653  1.00  0.00     0.238 C 
HETATM   11  C10 UNL     1      20.007   1.106  50.118  1.00  0.00     0.358 A 
HETATM   12  C17 UNL     1      21.413   0.721  50.602  1.00  0.00     0.362 A 
ENDROOT
BRANCH  11  13
HETATM   13  C11 UNL     1      18.926   0.400  50.787  1.00  0.00    -0.006 A 
HETATM   14  C12 UNL     1      17.717   0.392  50.082  1.00  0.00     0.013 A 
HETATM   15  C13 UNL     1      16.598  -0.243  50.596  1.00  0.00     0.024 A 
HETATM   16  C14 UNL     1      16.620  -0.893  51.817  1.00  0.00     0.034 A 
HETATM   17 CL2  UNL     1      15.240  -1.705  52.506  1.00  0.00    -0.084 Cl
HETATM   18  C15 UNL     1      17.806  -0.884  52.508  1.00  0.00     0.024 A 
HETATM   19  C16 UNL     1      18.903  -0.258  51.999  1.00  0.00     0.013 A 
ENDBRANCH  11  13
BRANCH   1  20
HETATM   20  S1  UNL     1      24.464   3.420  53.143  1.00  0.00    -0.127 SA
BRANCH  20  21
HETATM   21  C3  UNL     1      25.126   1.777  52.927  1.00  0.00     0.064 C 
HETATM   22  C2  UNL     1      24.977   0.462  52.997  1.00  0.00     0.014 C 
HETATM   23  C1  UNL     1      23.707  -0.143  53.458  1.00  0.00     0.062 C 
HETATM   24 CL1  UNL     1      26.335  -0.522  52.525  1.00  0.00    -0.089 Cl
ENDBRANCH  20  21
ENDBRANCH   1  20
BRANCH   2  25
HETATM   25  N1  UNL     1      24.309   6.325  51.958  1.00  0.00    -0.401 N 
HETATM   26  H6  UNL     1      23.844   7.248  51.699  1.00  0.00     0.156 HD
HETATM   27  H7  UNL     1      25.200   5.908  52.291  1.00  0.00     0.156 HD
ENDBRANCH   2  25
TORSDOF 5
ENDMDL
MODEL 7
REMARK VINA RESULT:      -7.1      2.419      6.292
REMARK  5 active torsions:
REMARK  status: ('A' for Active; 'I' for Inactive)
REMARK    1  A    between atoms: C3_4  and  S1_5 
REMARK    2  A    between atoms: S1_5  and  C4_6 
REMARK    3  A    between atoms: C5_7  and  N1_8 
REMARK    4  A    between atoms: C10_17  and  C11_18 
REMARK    5  A    between atoms: C10_17  and  C17_25 
ROOT
HETATM    1  C4  UNL     1      25.018   4.294  49.458  1.00  0.00     0.127 C 
HETATM    2  C5  UNL     1      25.126   5.619  50.268  1.00  0.00     0.025 C 
HETATM    3  C6  UNL     1      24.143   6.020  51.154  1.00  0.00     0.078 C 
HETATM    4  S2  UNL     1      22.427   5.868  50.538  1.00  0.00    -0.086 SA
HETATM    5  N2  UNL     1      22.971   5.063  49.307  1.00  0.00    -0.172 NA
HETATM    6  C7  UNL     1      23.717   3.868  49.820  1.00  0.00     0.165 C 
HETATM    7  C8  UNL     1      22.800   2.827  49.592  1.00  0.00     0.172 A 
HETATM    8  N3  UNL     1      22.055   2.369  50.617  1.00  0.00     0.073 N 
HETATM    9  N4  UNL     1      21.119   3.418  50.666  1.00  0.00    -0.191 N 
HETATM   10  C9  UNL     1      21.452   4.654  51.415  1.00  0.00     0.238 C 
HETATM   11  C10 UNL     1      20.640   2.246  49.881  1.00  0.00     0.358 A 
HETATM   12  C17 UNL     1      21.895   1.737  49.156  1.00  0.00     0.362 A 
ENDROOT
BRANCH  11  13
HETATM   13  C11 UNL     1      20.056   1.295  50.813  1.00  0.00    -0.006 A 
HETATM   14  C12 UNL     1      18.766   0.872  50.475  1.00  0.00     0.013 A 
HETATM   15  C13 UNL     1      18.083  -0.034  51.270  1.00  0.00     0.024 A 
HETATM   16  C14 UNL     1      18.636  -0.559  52.424  1.00  0.00     0.034 A 
HETATM   17 CL2  UNL     1      17.819  -1.701  53.457  1.00  0.00    -0.084 Cl
HETATM   18  C15 UNL     1      19.902  -0.143  52.755  1.00  0.00     0.024 A 
HETATM   19  C16 UNL     1      20.568   0.748  51.971  1.00  0.00     0.013 A 
ENDBRANCH  11  13
BRANCH   1  20
HETATM   20  S1  UNL     1      26.418   3.231  49.756  1.00  0.00    -0.127 SA
BRANCH  20  21
HETATM   21  C3  UNL     1      26.413   2.696  51.458  1.00  0.00     0.064 C 
HETATM   22  C2  UNL     1      25.915   1.931  52.419  1.00  0.00     0.014 C 
HETATM   23  C1  UNL     1      24.811   0.983  52.149  1.00  0.00     0.062 C 
HETATM   24 CL1  UNL     1      26.613   2.088  54.008  1.00  0.00    -0.089 Cl
ENDBRANCH  20  21
ENDBRANCH   1  20
BRANCH   2  25
HETATM   25  N1  UNL     1      26.314   6.359  50.012  1.00  0.00    -0.401 N 
HETATM   26  H6  UNL     1      25.890   7.323  49.843  1.00  0.00     0.156 HD
HETATM   27  H7  UNL     1      27.213   5.841  50.045  1.00  0.00     0.156 HD
ENDBRANCH   2  25
TORSDOF 5
ENDMDL
MODEL 8
REMARK VINA RESULT:      -7.0      3.113      7.108
REMARK  5 active torsions:
REMARK  status: ('A' for Active; 'I' for Inactive)
REMARK    1  A    between atoms: C3_4  and  S1_5 
REMARK    2  A    between atoms: S1_5  and  C4_6 
REMARK    3  A    between atoms: C5_7  and  N1_8 
REMARK    4  A    between atoms: C10_17  and  C11_18 
REMARK    5  A    between atoms: C10_17  and  C17_25 
ROOT
HETATM    1  C4  UNL     1      25.844   1.865  52.316  1.00  0.00     0.127 C 
HETATM    2  C5  UNL     1      26.583   0.542  52.675  1.00  0.00     0.025 C 
HETATM    3  C6  UNL     1      25.904  -0.641  52.898  1.00  0.00     0.078 C 
HETATM    4  S2  UNL     1      24.429  -0.505  53.972  1.00  0.00    -0.086 SA
HETATM    5  N2  UNL     1      24.550   1.056  53.890  1.00  0.00    -0.172 NA
HETATM    6  C7  UNL     1      24.494   1.457  52.446  1.00  0.00     0.165 C 
HETATM    7  C8  UNL     1      23.183   1.948  52.325  1.00  0.00     0.172 A 
HETATM    8  N3  UNL     1      22.231   1.163  51.786  1.00  0.00     0.073 N 
HETATM    9  N4  UNL     1      22.004   0.332  52.899  1.00  0.00    -0.191 N 
HETATM   10  C9  UNL     1      22.890  -0.836  53.127  1.00  0.00     0.238 C 
HETATM   11  C10 UNL     1      21.034   1.459  52.805  1.00  0.00     0.358 A 
HETATM   12  C17 UNL     1      21.870   2.638  52.287  1.00  0.00     0.362 A 
ENDROOT
BRANCH  11  13
HETATM   13  C11 UNL     1      19.960   1.046  51.915  1.00  0.00    -0.006 A 
HETATM   14  C12 UNL     1      19.166   0.005  52.409  1.00  0.00     0.013 A 
HETATM   15  C13 UNL     1      18.105  -0.492  51.672  1.00  0.00     0.024 A 
HETATM   16  C14 UNL     1      17.780   0.010  50.425  1.00  0.00     0.034 A 
HETATM   17 CL2  UNL     1      16.455  -0.582  49.458  1.00  0.00    -0.084 Cl
HETATM   18  C15 UNL     1      18.559   1.031  49.940  1.00  0.00     0.024 A 
HETATM   19  C16 UNL     1      19.601   1.516  50.669  1.00  0.00     0.013 A 
ENDBRANCH  11  13
BRANCH   1  20
HETATM   20  S1  UNL     1      26.425   2.540  50.772  1.00  0.00    -0.127 SA
BRANCH  20  21
HETATM   21  C3  UNL     1      25.285   3.786  50.194  1.00  0.00     0.064 C 
HETATM   22  C2  UNL     1      24.195   4.118  49.518  1.00  0.00     0.014 C 
HETATM   23  C1  UNL     1      23.377   3.093  48.830  1.00  0.00     0.062 C 
HETATM   24 CL1  UNL     1      23.765   5.805  49.474  1.00  0.00    -0.089 Cl
ENDBRANCH  20  21
ENDBRANCH   1  20
BRANCH   2  25
HETATM   25  N1  UNL     1      27.998   0.671  52.746  1.00  0.00    -0.401 N 
HETATM   26  H6  UNL     1      28.216  -0.128  53.417  1.00  0.00     0.156 HD
HETATM   27  H7  UNL     1      28.435   1.431  52.190  1.00  0.00     0.156 HD
ENDBRANCH   2  25
TORSDOF 5
ENDMDL
MODEL 9
REMARK VINA RESULT:      -7.0      8.090     11.099
REMARK  5 active torsions:
REMARK  status: ('A' for Active; 'I' for Inactive)
REMARK    1  A    between atoms: C3_4  and  S1_5 
REMARK    2  A    between atoms: S1_5  and  C4_6 
REMARK    3  A    between atoms: C5_7  and  N1_8 
REMARK    4  A    between atoms: C10_17  and  C11_18 
REMARK    5  A    between atoms: C10_17  and  C17_25 
ROOT
HETATM    1  C4  UNL     1      32.652   8.147  45.509  1.00  0.00     0.127 C 
HETATM    2  C5  UNL     1      33.856   8.209  46.494  1.00  0.00     0.025 C 
HETATM    3  C6  UNL     1      33.713   7.955  47.846  1.00  0.00     0.078 C 
HETATM    4  S2  UNL     1      32.282   8.765  48.646  1.00  0.00    -0.086 SA
HETATM    5  N2  UNL     1      31.757   9.174  47.226  1.00  0.00    -0.172 NA
HETATM    6  C7  UNL     1      31.583   7.926  46.412  1.00  0.00     0.165 C 
HETATM    7  C8  UNL     1      30.190   7.746  46.439  1.00  0.00     0.172 A 
HETATM    8  N3  UNL     1      29.657   6.849  47.291  1.00  0.00     0.073 N 
HETATM    9  N4  UNL     1      29.758   7.611  48.470  1.00  0.00    -0.191 N 
HETATM   10  C9  UNL     1      31.036   7.620  49.222  1.00  0.00     0.238 C 
HETATM   11  C10 UNL     1      28.416   7.701  47.830  1.00  0.00     0.358 A 
HETATM   12  C17 UNL     1      28.712   7.703  46.323  1.00  0.00     0.362 A 
ENDROOT
BRANCH  11  13
HETATM   13  C11 UNL     1      27.629   6.565  48.287  1.00  0.00    -0.006 A 
HETATM   14  C12 UNL     1      26.267   6.837  48.457  1.00  0.00     0.013 A 
HETATM   15  C13 UNL     1      25.393   5.851  48.887  1.00  0.00     0.024 A 
HETATM   16  C14 UNL     1      25.819   4.566  49.166  1.00  0.00     0.034 A 
HETATM   17 CL2  UNL     1      24.761   3.292  49.711  1.00  0.00    -0.084 Cl
HETATM   18  C15 UNL     1      27.156   4.300  49.000  1.00  0.00     0.024 A 
HETATM   19  C16 UNL     1      28.010   5.272  48.577  1.00  0.00     0.013 A 
ENDBRANCH  11  13
BRANCH   1  20
HETATM   20  S1  UNL     1      32.951   6.992  44.185  1.00  0.00    -0.127 SA
BRANCH  20  21
HETATM   21  C3  UNL     1      33.677   5.499  44.842  1.00  0.00     0.064 C 
HETATM   22  C2  UNL     1      33.620   4.462  45.666  1.00  0.00     0.014 C 
HETATM   23  C1  UNL     1      32.464   4.262  46.568  1.00  0.00     0.062 C 
HETATM   24 CL1  UNL     1      34.959   3.348  45.640  1.00  0.00    -0.089 Cl
ENDBRANCH  20  21
ENDBRANCH   1  20
BRANCH   2  25
HETATM   25  N1  UNL     1      35.093   8.546  45.876  1.00  0.00    -0.401 N 
HETATM   26  H6  UNL     1      35.469   7.567  45.685  1.00  0.00     0.156 HD
HETATM   27  H7  UNL     1      35.313   9.555  45.772  1.00  0.00     0.156 HD
ENDBRANCH   2  25
TORSDOF 5
ENDMDL
