MODEL 1
REMARK VINA RESULT:      -7.8      0.000      0.000
REMARK  7 active torsions:
REMARK  status: ('A' for Active; 'I' for Inactive)
REMARK    1  A    between atoms: N1_1  and  C1_2 
REMARK    2  A    between atoms: N2_5  and  C4_6 
REMARK    3  A    between atoms: N3_9  and  N4_10 
REMARK    4  A    between atoms: C7_11  and  C8_12 
REMARK    5  A    between atoms: C8_12  and  S1_13 
REMARK    6  A    between atoms: S1_13  and  N5_14 
REMARK    7  A    between atoms: N5_14  and  C9_15 
ROOT
HETATM    1  C4  UNL     1      22.136   3.307  52.104  1.00  0.00     0.057 A 
HETATM    2  C5  UNL     1      21.296   4.155  51.393  1.00  0.00     0.050 A 
HETATM    3  C6  UNL     1      21.940   5.371  51.273  1.00  0.00     0.118 A 
HETATM    4  N3  UNL     1      23.127   5.247  51.895  1.00  0.00    -0.275 N 
HETATM    5  C7  UNL     1      23.282   4.014  52.409  1.00  0.00     0.070 A 
ENDROOT
BRANCH   5   6
HETATM    6  C8  UNL     1      24.331   3.312  53.168  1.00  0.00     0.159 C 
BRANCH   6   7
HETATM    7  S1  UNL     1      25.594   2.626  52.047  1.00  0.00    -0.049 SA
BRANCH   7   8
HETATM    8  N5  UNL     1      27.107   2.516  52.953  1.00  0.00    -0.330 N 
HETATM    9  H14 UNL     1      27.547   3.361  53.403  1.00  0.00     0.174 HD
BRANCH   8  10
HETATM   10  C9  UNL     1      27.752   1.260  53.085  1.00  0.00     0.040 A 
HETATM   11  C10 UNL     1      29.025   1.179  53.606  1.00  0.00     0.033 A 
HETATM   12  C11 UNL     1      29.658  -0.049  53.736  1.00  0.00     0.046 A 
HETATM   13  C12 UNL     1      29.016  -1.202  53.345  1.00  0.00     0.138 A 
HETATM   14  F1  UNL     1      29.513  -2.464  53.417  1.00  0.00    -0.204 F 
HETATM   15  C13 UNL     1      27.737  -1.124  52.823  1.00  0.00     0.074 A 
HETATM   16 CL1  UNL     1      26.831  -2.501  52.298  1.00  0.00    -0.081 Cl
HETATM   17  C14 UNL     1      27.133   0.094  52.702  1.00  0.00     0.057 A 
ENDBRANCH   8  10
ENDBRANCH   7   8
ENDBRANCH   6   7
ENDBRANCH   5   6
BRANCH   1  18
HETATM   18  N2  UNL     1      21.643   1.992  52.332  1.00  0.00    -0.379 N 
HETATM   19  C3  UNL     1      22.303   0.922  51.655  1.00  0.00     0.125 C 
HETATM   20  C2  UNL     1      22.088  -0.421  52.327  1.00  0.00     0.055 C 
HETATM   21  C1  UNL     1      21.822  -0.275  53.805  1.00  0.00     0.221 C 
HETATM   22  C16 UNL     1      20.540   0.491  53.943  1.00  0.00     0.055 C 
HETATM   23  C15 UNL     1      20.503   1.797  53.233  1.00  0.00     0.125 C 
BRANCH  21  24
HETATM   24  N1  UNL     1      21.587  -1.635  54.295  1.00  0.00     0.083 N 
HETATM   25  H1  UNL     1      21.217  -1.636  55.269  1.00  0.00     0.313 HD
HETATM   26  H2  UNL     1      20.968  -2.123  53.615  1.00  0.00     0.313 HD
ENDBRANCH  21  24
ENDBRANCH   1  18
BRANCH   4  27
HETATM   27  N4  UNL     1      24.136   6.205  52.044  1.00  0.00    -0.339 N 
HETATM   28  H10 UNL     1      24.513   6.919  51.374  1.00  0.00     0.177 HD
HETATM   29  H11 UNL     1      24.771   6.464  52.836  1.00  0.00     0.177 HD
ENDBRANCH   4  27
TORSDOF 7
ENDMDL
MODEL 2
REMARK VINA RESULT:      -7.7      4.338      6.538
REMARK  7 active torsions:
REMARK  status: ('A' for Active; 'I' for Inactive)
REMARK    1  A    between atoms: N1_1  and  C1_2 
REMARK    2  A    between atoms: N2_5  and  C4_6 
REMARK    3  A    between atoms: N3_9  and  N4_10 
REMARK    4  A    between atoms: C7_11  and  C8_12 
REMARK    5  A    between atoms: C8_12  and  S1_13 
REMARK    6  A    between atoms: S1_13  and  N5_14 
REMARK    7  A    between atoms: N5_14  and  C9_15 
ROOT
HETATM    1  C4  UNL     1      24.686   0.287  53.395  1.00  0.00     0.057 A 
HETATM    2  C5  UNL     1      23.597  -0.568  53.497  1.00  0.00     0.050 A 
HETATM    3  C6  UNL     1      22.474   0.144  53.121  1.00  0.00     0.118 A 
HETATM    4  N3  UNL     1      22.887   1.386  52.806  1.00  0.00    -0.275 N 
HETATM    5  C7  UNL     1      24.218   1.510  52.958  1.00  0.00     0.070 A 
ENDROOT
BRANCH   5   6
HETATM    6  C8  UNL     1      25.205   2.588  52.772  1.00  0.00     0.159 C 
BRANCH   6   7
HETATM    7  S1  UNL     1      26.123   2.365  51.214  1.00  0.00    -0.049 SA
BRANCH   7   8
HETATM    8  N5  UNL     1      25.255   3.248  49.954  1.00  0.00    -0.330 N 
HETATM    9  H14 UNL     1      24.300   2.951  49.625  1.00  0.00     0.174 HD
BRANCH   8  10
HETATM   10  C9  UNL     1      25.853   4.391  49.364  1.00  0.00     0.040 A 
HETATM   11  C10 UNL     1      25.103   5.517  49.105  1.00  0.00     0.033 A 
HETATM   12  C11 UNL     1      25.687   6.637  48.528  1.00  0.00     0.046 A 
HETATM   13  C12 UNL     1      27.025   6.631  48.209  1.00  0.00     0.138 A 
HETATM   14  F1  UNL     1      27.723   7.652  47.645  1.00  0.00    -0.204 F 
HETATM   15  C13 UNL     1      27.781   5.502  48.469  1.00  0.00     0.074 A 
HETATM   16 CL1  UNL     1      29.469   5.376  48.113  1.00  0.00    -0.081 Cl
HETATM   17  C14 UNL     1      27.187   4.412  49.036  1.00  0.00     0.057 A 
ENDBRANCH   8  10
ENDBRANCH   7   8
ENDBRANCH   6   7
ENDBRANCH   5   6
BRANCH   1  18
HETATM   18  N2  UNL     1      25.948  -0.271  53.742  1.00  0.00    -0.379 N 
HETATM   19  C3  UNL     1      26.482  -1.270  52.873  1.00  0.00     0.125 C 
HETATM   20  C2  UNL     1      27.987  -1.419  53.000  1.00  0.00     0.055 C 
HETATM   21  C1  UNL     1      28.640  -0.141  53.466  1.00  0.00     0.221 C 
HETATM   22  C16 UNL     1      28.114   0.141  54.842  1.00  0.00     0.055 C 
HETATM   23  C15 UNL     1      26.632   0.196  54.953  1.00  0.00     0.125 C 
BRANCH  21  24
HETATM   24  N1  UNL     1      30.066  -0.456  53.587  1.00  0.00     0.083 N 
HETATM   25  H1  UNL     1      30.520   0.096  54.345  1.00  0.00     0.313 HD
HETATM   26  H2  UNL     1      30.162  -1.486  53.709  1.00  0.00     0.313 HD
ENDBRANCH  21  24
ENDBRANCH   1  18
BRANCH   4  27
HETATM   27  N4  UNL     1      22.123   2.473  52.368  1.00  0.00    -0.339 N 
HETATM   28  H10 UNL     1      21.443   3.087  52.878  1.00  0.00     0.177 HD
HETATM   29  H11 UNL     1      22.021   2.954  51.443  1.00  0.00     0.177 HD
ENDBRANCH   4  27
TORSDOF 7
ENDMDL
MODEL 3
REMARK VINA RESULT:      -7.6      1.704      2.317
REMARK  7 active torsions:
REMARK  status: ('A' for Active; 'I' for Inactive)
REMARK    1  A    between atoms: N1_1  and  C1_2 
REMARK    2  A    between atoms: N2_5  and  C4_6 
REMARK    3  A    between atoms: N3_9  and  N4_10 
REMARK    4  A    between atoms: C7_11  and  C8_12 
REMARK    5  A    between atoms: C8_12  and  S1_13 
REMARK    6  A    between atoms: S1_13  and  N5_14 
REMARK    7  A    between atoms: N5_14  and  C9_15 
ROOT
HETATM    1  C4  UNL     1      22.246   1.606  50.824  1.00  0.00     0.057 A 
HETATM    2  C5  UNL     1      21.490   0.949  49.861  1.00  0.00     0.050 A 
HETATM    3  C6  UNL     1      21.696   1.600  48.659  1.00  0.00     0.118 A 
HETATM    4  N3  UNL     1      22.548   2.613  48.904  1.00  0.00    -0.275 N 
HETATM    5  C7  UNL     1      22.904   2.648  50.201  1.00  0.00     0.070 A 
ENDROOT
BRANCH   5   6
HETATM    6  C8  UNL     1      23.776   3.494  51.033  1.00  0.00     0.159 C 
BRANCH   6   7
HETATM    7  S1  UNL     1      25.501   2.910  50.966  1.00  0.00    -0.049 SA
BRANCH   7   8
HETATM    8  N5  UNL     1      26.066   2.724  52.630  1.00  0.00    -0.330 N 
HETATM    9  H14 UNL     1      25.713   3.342  53.407  1.00  0.00     0.174 HD
BRANCH   8  10
HETATM   10  C9  UNL     1      27.017   1.719  52.936  1.00  0.00     0.040 A 
HETATM   11  C10 UNL     1      28.226   2.050  53.508  1.00  0.00     0.033 A 
HETATM   12  C11 UNL     1      29.158   1.067  53.809  1.00  0.00     0.046 A 
HETATM   13  C12 UNL     1      28.881  -0.254  53.539  1.00  0.00     0.138 A 
HETATM   14  F1  UNL     1      29.696  -1.313  53.781  1.00  0.00    -0.204 F 
HETATM   15  C13 UNL     1      27.667  -0.590  52.966  1.00  0.00     0.074 A 
HETATM   16 CL1  UNL     1      27.207  -2.212  52.580  1.00  0.00    -0.081 Cl
HETATM   17  C14 UNL     1      26.765   0.393  52.677  1.00  0.00     0.057 A 
ENDBRANCH   8  10
ENDBRANCH   7   8
ENDBRANCH   6   7
ENDBRANCH   5   6
BRANCH   1  18
HETATM   18  N2  UNL     1      22.166   1.077  52.142  1.00  0.00    -0.379 N 
HETATM   19  C3  UNL     1      20.993   1.383  52.898  1.00  0.00     0.125 C 
HETATM   20  C2  UNL     1      20.745   0.397  54.024  1.00  0.00     0.055 C 
HETATM   21  C1  UNL     1      21.334  -0.959  53.725  1.00  0.00     0.221 C 
HETATM   22  C16 UNL     1      22.819  -0.777  53.627  1.00  0.00     0.055 C 
HETATM   23  C15 UNL     1      23.268   0.257  52.657  1.00  0.00     0.125 C 
BRANCH  21  24
HETATM   24  N1  UNL     1      21.059  -1.774  54.911  1.00  0.00     0.083 N 
HETATM   25  H1  UNL     1      20.254  -1.400  55.457  1.00  0.00     0.313 HD
HETATM   26  H2  UNL     1      20.931  -2.761  54.604  1.00  0.00     0.313 HD
ENDBRANCH  21  24
ENDBRANCH   1  18
BRANCH   4  27
HETATM   27  N4  UNL     1      23.060   3.556  48.007  1.00  0.00    -0.339 N 
HETATM   28  H10 UNL     1      24.047   3.804  47.756  1.00  0.00     0.177 HD
HETATM   29  H11 UNL     1      22.614   4.252  47.364  1.00  0.00     0.177 HD
ENDBRANCH   4  27
TORSDOF 7
ENDMDL
MODEL 4
REMARK VINA RESULT:      -7.6      4.510      6.581
REMARK  7 active torsions:
REMARK  status: ('A' for Active; 'I' for Inactive)
REMARK    1  A    between atoms: N1_1  and  C1_2 
REMARK    2  A    between atoms: N2_5  and  C4_6 
REMARK    3  A    between atoms: N3_9  and  N4_10 
REMARK    4  A    between atoms: C7_11  and  C8_12 
REMARK    5  A    between atoms: C8_12  and  S1_13 
REMARK    6  A    between atoms: S1_13  and  N5_14 
REMARK    7  A    between atoms: N5_14  and  C9_15 
ROOT
HETATM    1  C4  UNL     1      24.683   0.318  53.377  1.00  0.00     0.057 A 
HETATM    2  C5  UNL     1      23.586  -0.530  53.459  1.00  0.00     0.050 A 
HETATM    3  C6  UNL     1      22.474   0.192  53.073  1.00  0.00     0.118 A 
HETATM    4  N3  UNL     1      22.899   1.433  52.772  1.00  0.00    -0.275 N 
HETATM    5  C7  UNL     1      24.228   1.548  52.943  1.00  0.00     0.070 A 
ENDROOT
BRANCH   5   6
HETATM    6  C8  UNL     1      25.224   2.620  52.778  1.00  0.00     0.159 C 
BRANCH   6   7
HETATM    7  S1  UNL     1      26.266   2.318  51.313  1.00  0.00    -0.049 SA
BRANCH   7   8
HETATM    8  N5  UNL     1      25.547   3.195  49.958  1.00  0.00    -0.330 N 
HETATM    9  H14 UNL     1      24.727   2.810  49.421  1.00  0.00     0.174 HD
BRANCH   8  10
HETATM   10  C9  UNL     1      26.080   4.453  49.579  1.00  0.00     0.040 A 
HETATM   11  C10 UNL     1      27.236   4.526  48.832  1.00  0.00     0.033 A 
HETATM   12  C11 UNL     1      27.759   5.756  48.459  1.00  0.00     0.046 A 
HETATM   13  C12 UNL     1      27.125   6.919  48.833  1.00  0.00     0.138 A 
HETATM   14  F1  UNL     1      27.523   8.184  48.538  1.00  0.00    -0.204 F 
HETATM   15  C13 UNL     1      25.964   6.849  49.582  1.00  0.00     0.074 A 
HETATM   16 CL1  UNL     1      25.079   8.239  50.110  1.00  0.00    -0.081 Cl
HETATM   17  C14 UNL     1      25.466   5.629  49.939  1.00  0.00     0.057 A 
ENDBRANCH   8  10
ENDBRANCH   7   8
ENDBRANCH   6   7
ENDBRANCH   5   6
BRANCH   1  18
HETATM   18  N2  UNL     1      25.936  -0.250  53.738  1.00  0.00    -0.379 N 
HETATM   19  C3  UNL     1      26.467  -1.259  52.878  1.00  0.00     0.125 C 
HETATM   20  C2  UNL     1      27.969  -1.421  53.018  1.00  0.00     0.055 C 
HETATM   21  C1  UNL     1      28.632  -0.148  53.483  1.00  0.00     0.221 C 
HETATM   22  C16 UNL     1      28.097   0.147  54.853  1.00  0.00     0.055 C 
HETATM   23  C15 UNL     1      26.615   0.216  54.952  1.00  0.00     0.125 C 
BRANCH  21  24
HETATM   24  N1  UNL     1      30.054  -0.476  53.617  1.00  0.00     0.083 N 
HETATM   25  H1  UNL     1      30.474  -0.029  54.458  1.00  0.00     0.313 HD
HETATM   26  H2  UNL     1      30.150  -1.512  53.604  1.00  0.00     0.313 HD
ENDBRANCH  21  24
ENDBRANCH   1  18
BRANCH   4  27
HETATM   27  N4  UNL     1      22.147   2.528  52.332  1.00  0.00    -0.339 N 
HETATM   28  H10 UNL     1      21.503   3.174  52.848  1.00  0.00     0.177 HD
HETATM   29  H11 UNL     1      22.024   2.986  51.398  1.00  0.00     0.177 HD
ENDBRANCH   4  27
TORSDOF 7
ENDMDL
MODEL 5
REMARK VINA RESULT:      -7.4      3.979      6.580
REMARK  7 active torsions:
REMARK  status: ('A' for Active; 'I' for Inactive)
REMARK    1  A    between atoms: N1_1  and  C1_2 
REMARK    2  A    between atoms: N2_5  and  C4_6 
REMARK    3  A    between atoms: N3_9  and  N4_10 
REMARK    4  A    between atoms: C7_11  and  C8_12 
REMARK    5  A    between atoms: C8_12  and  S1_13 
REMARK    6  A    between atoms: S1_13  and  N5_14 
REMARK    7  A    between atoms: N5_14  and  C9_15 
ROOT
HETATM    1  C4  UNL     1      24.796   0.322  53.369  1.00  0.00     0.057 A 
HETATM    2  C5  UNL     1      23.675  -0.493  53.456  1.00  0.00     0.050 A 
HETATM    3  C6  UNL     1      22.585   0.259  53.064  1.00  0.00     0.118 A 
HETATM    4  N3  UNL     1      23.047   1.485  52.753  1.00  0.00    -0.275 N 
HETATM    5  C7  UNL     1      24.379   1.561  52.924  1.00  0.00     0.070 A 
ENDROOT
BRANCH   5   6
HETATM    6  C8  UNL     1      25.407   2.602  52.752  1.00  0.00     0.159 C 
BRANCH   6   7
HETATM    7  S1  UNL     1      26.400   2.291  51.255  1.00  0.00    -0.049 SA
BRANCH   7   8
HETATM    8  N5  UNL     1      26.710   3.853  50.489  1.00  0.00    -0.330 N 
HETATM    9  H14 UNL     1      27.643   4.336  50.571  1.00  0.00     0.174 HD
BRANCH   8  10
HETATM   10  C9  UNL     1      25.682   4.480  49.740  1.00  0.00     0.040 A 
HETATM   11  C10 UNL     1      25.846   5.762  49.263  1.00  0.00     0.033 A 
HETATM   12  C11 UNL     1      24.841   6.377  48.530  1.00  0.00     0.046 A 
HETATM   13  C12 UNL     1      23.666   5.708  48.271  1.00  0.00     0.138 A 
HETATM   14  F1  UNL     1      22.605   6.186  47.570  1.00  0.00    -0.204 F 
HETATM   15  C13 UNL     1      23.499   4.420  48.748  1.00  0.00     0.074 A 
HETATM   16 CL1  UNL     1      22.070   3.481  48.488  1.00  0.00    -0.081 Cl
HETATM   17  C14 UNL     1      24.499   3.834  49.468  1.00  0.00     0.057 A 
ENDBRANCH   8  10
ENDBRANCH   7   8
ENDBRANCH   6   7
ENDBRANCH   5   6
BRANCH   1  18
HETATM   18  N2  UNL     1      26.032  -0.281  53.735  1.00  0.00    -0.379 N 
HETATM   19  C3  UNL     1      26.534  -1.310  52.881  1.00  0.00     0.125 C 
HETATM   20  C2  UNL     1      28.031  -1.516  53.025  1.00  0.00     0.055 C 
HETATM   21  C1  UNL     1      28.730  -0.260  53.484  1.00  0.00     0.221 C 
HETATM   22  C16 UNL     1      28.202   0.058  54.851  1.00  0.00     0.055 C 
HETATM   23  C15 UNL     1      26.722   0.172  54.947  1.00  0.00     0.125 C 
BRANCH  21  24
HETATM   24  N1  UNL     1      30.141  -0.629  53.623  1.00  0.00     0.083 N 
HETATM   25  H1  UNL     1      30.287  -1.310  54.396  1.00  0.00     0.313 HD
HETATM   26  H2  UNL     1      30.479  -0.970  52.699  1.00  0.00     0.313 HD
ENDBRANCH  21  24
ENDBRANCH   1  18
BRANCH   4  27
HETATM   27  N4  UNL     1      22.329   2.598  52.304  1.00  0.00    -0.339 N 
HETATM   28  H10 UNL     1      21.865   2.794  51.385  1.00  0.00     0.177 HD
HETATM   29  H11 UNL     1      22.069   3.512  52.745  1.00  0.00     0.177 HD
ENDBRANCH   4  27
TORSDOF 7
ENDMDL
MODEL 6
REMARK VINA RESULT:      -7.4      3.917      6.377
REMARK  7 active torsions:
REMARK  status: ('A' for Active; 'I' for Inactive)
REMARK    1  A    between atoms: N1_1  and  C1_2 
REMARK    2  A    between atoms: N2_5  and  C4_6 
REMARK    3  A    between atoms: N3_9  and  N4_10 
REMARK    4  A    between atoms: C7_11  and  C8_12 
REMARK    5  A    between atoms: C8_12  and  S1_13 
REMARK    6  A    between atoms: S1_13  and  N5_14 
REMARK    7  A    between atoms: N5_14  and  C9_15 
ROOT
HETATM    1  C4  UNL     1      24.163   0.521  53.302  1.00  0.00     0.057 A 
HETATM    2  C5  UNL     1      23.946  -0.667  53.989  1.00  0.00     0.050 A 
HETATM    3  C6  UNL     1      22.585  -0.781  54.199  1.00  0.00     0.118 A 
HETATM    4  N3  UNL     1      22.013   0.308  53.652  1.00  0.00    -0.275 N 
HETATM    5  C7  UNL     1      22.934   1.117  53.100  1.00  0.00     0.070 A 
ENDROOT
BRANCH   5   6
HETATM    6  C8  UNL     1      22.913   2.404  52.382  1.00  0.00     0.159 C 
BRANCH   6   7
HETATM    7  S1  UNL     1      22.786   2.140  50.583  1.00  0.00    -0.049 SA
BRANCH   7   8
HETATM    8  N5  UNL     1      23.087   3.693  49.796  1.00  0.00    -0.330 N 
HETATM    9  H14 UNL     1      22.302   4.344  49.534  1.00  0.00     0.174 HD
BRANCH   8  10
HETATM   10  C9  UNL     1      24.420   4.082  49.505  1.00  0.00     0.040 A 
HETATM   11  C10 UNL     1      25.469   3.223  49.750  1.00  0.00     0.033 A 
HETATM   12  C11 UNL     1      26.773   3.602  49.466  1.00  0.00     0.046 A 
HETATM   13  C12 UNL     1      27.031   4.844  48.933  1.00  0.00     0.138 A 
HETATM   14  F1  UNL     1      28.252   5.343  48.607  1.00  0.00    -0.204 F 
HETATM   15  C13 UNL     1      25.980   5.709  48.685  1.00  0.00     0.074 A 
HETATM   16 CL1  UNL     1      26.179   7.293  48.019  1.00  0.00    -0.081 Cl
HETATM   17  C14 UNL     1      24.704   5.317  48.973  1.00  0.00     0.057 A 
ENDBRANCH   8  10
ENDBRANCH   7   8
ENDBRANCH   6   7
ENDBRANCH   5   6
BRANCH   1  18
HETATM   18  N2  UNL     1      25.518   0.819  52.989  1.00  0.00    -0.379 N 
HETATM   19  C3  UNL     1      26.005   2.109  53.361  1.00  0.00     0.125 C 
HETATM   20  C2  UNL     1      27.517   2.155  53.481  1.00  0.00     0.055 C 
HETATM   21  C1  UNL     1      28.096   0.805  53.823  1.00  0.00     0.221 C 
HETATM   22  C16 UNL     1      27.779  -0.109  52.678  1.00  0.00     0.055 C 
HETATM   23  C15 UNL     1      26.340  -0.191  52.313  1.00  0.00     0.125 C 
BRANCH  21  24
HETATM   24  N1  UNL     1      29.548   1.000  53.854  1.00  0.00     0.083 N 
HETATM   25  H1  UNL     1      29.821   1.764  54.507  1.00  0.00     0.313 HD
HETATM   26  H2  UNL     1      29.994   0.085  54.075  1.00  0.00     0.313 HD
ENDBRANCH  21  24
ENDBRANCH   1  18
BRANCH   4  27
HETATM   27  N4  UNL     1      20.657   0.648  53.607  1.00  0.00    -0.339 N 
HETATM   28  H10 UNL     1      19.837   0.160  53.172  1.00  0.00     0.177 HD
HETATM   29  H11 UNL     1      20.106   1.458  53.980  1.00  0.00     0.177 HD
ENDBRANCH   4  27
TORSDOF 7
ENDMDL
MODEL 7
REMARK VINA RESULT:      -7.4      2.383      4.677
REMARK  7 active torsions:
REMARK  status: ('A' for Active; 'I' for Inactive)
REMARK    1  A    between atoms: N1_1  and  C1_2 
REMARK    2  A    between atoms: N2_5  and  C4_6 
REMARK    3  A    between atoms: N3_9  and  N4_10 
REMARK    4  A    between atoms: C7_11  and  C8_12 
REMARK    5  A    between atoms: C8_12  and  S1_13 
REMARK    6  A    between atoms: S1_13  and  N5_14 
REMARK    7  A    between atoms: N5_14  and  C9_15 
ROOT
HETATM    1  C4  UNL     1      20.060   1.029  52.141  1.00  0.00     0.057 A 
HETATM    2  C5  UNL     1      18.883   0.850  51.426  1.00  0.00     0.050 A 
HETATM    3  C6  UNL     1      18.208  -0.211  51.998  1.00  0.00     0.118 A 
HETATM    4  N3  UNL     1      18.964  -0.647  53.023  1.00  0.00    -0.275 N 
HETATM    5  C7  UNL     1      20.090   0.078  53.142  1.00  0.00     0.070 A 
ENDROOT
BRANCH   5   6
HETATM    6  C8  UNL     1      21.258   0.074  54.040  1.00  0.00     0.159 C 
BRANCH   6   7
HETATM    7  S1  UNL     1      22.668  -0.783  53.267  1.00  0.00    -0.049 SA
BRANCH   7   8
HETATM    8  N5  UNL     1      23.995  -0.783  54.434  1.00  0.00    -0.330 N 
HETATM    9  H14 UNL     1      23.903  -1.239  55.379  1.00  0.00     0.174 HD
BRANCH   8  10
HETATM   10  C9  UNL     1      25.221  -0.155  54.097  1.00  0.00     0.040 A 
HETATM   11  C10 UNL     1      26.287  -0.187  54.970  1.00  0.00     0.033 A 
HETATM   12  C11 UNL     1      27.487   0.427  54.641  1.00  0.00     0.046 A 
HETATM   13  C12 UNL     1      27.625   1.075  53.435  1.00  0.00     0.138 A 
HETATM   14  F1  UNL     1      28.737   1.713  52.986  1.00  0.00    -0.204 F 
HETATM   15  C13 UNL     1      26.557   1.108  52.556  1.00  0.00     0.074 A 
HETATM   16 CL1  UNL     1      26.610   1.890  51.014  1.00  0.00    -0.081 Cl
HETATM   17  C14 UNL     1      25.385   0.498  52.899  1.00  0.00     0.057 A 
ENDBRANCH   8  10
ENDBRANCH   7   8
ENDBRANCH   6   7
ENDBRANCH   5   6
BRANCH   1  18
HETATM   18  N2  UNL     1      20.901   2.088  51.698  1.00  0.00    -0.379 N 
HETATM   19  C3  UNL     1      20.729   3.362  52.322  1.00  0.00     0.125 C 
HETATM   20  C2  UNL     1      21.953   4.250  52.194  1.00  0.00     0.055 C 
HETATM   21  C1  UNL     1      23.220   3.444  52.051  1.00  0.00     0.221 C 
HETATM   22  C16 UNL     1      23.106   2.675  50.769  1.00  0.00     0.055 C 
HETATM   23  C15 UNL     1      21.887   1.832  50.643  1.00  0.00     0.125 C 
BRANCH  21  24
HETATM   24  N1  UNL     1      24.292   4.430  51.889  1.00  0.00     0.083 N 
HETATM   25  H1  UNL     1      24.194   4.962  51.000  1.00  0.00     0.313 HD
HETATM   26  H2  UNL     1      24.307   5.035  52.736  1.00  0.00     0.313 HD
ENDBRANCH  21  24
ENDBRANCH   1  18
BRANCH   4  27
HETATM   27  N4  UNL     1      18.707  -1.700  53.908  1.00  0.00    -0.339 N 
HETATM   28  H10 UNL     1      18.834  -2.736  53.802  1.00  0.00     0.177 HD
HETATM   29  H11 UNL     1      18.328  -1.743  54.884  1.00  0.00     0.177 HD
ENDBRANCH   4  27
TORSDOF 7
ENDMDL
MODEL 8
REMARK VINA RESULT:      -7.3      4.116      5.732
REMARK  7 active torsions:
REMARK  status: ('A' for Active; 'I' for Inactive)
REMARK    1  A    between atoms: N1_1  and  C1_2 
REMARK    2  A    between atoms: N2_5  and  C4_6 
REMARK    3  A    between atoms: N3_9  and  N4_10 
REMARK    4  A    between atoms: C7_11  and  C8_12 
REMARK    5  A    between atoms: C8_12  and  S1_13 
REMARK    6  A    between atoms: S1_13  and  N5_14 
REMARK    7  A    between atoms: N5_14  and  C9_15 
ROOT
HETATM    1  C4  UNL     1      25.258   0.408  53.122  1.00  0.00     0.057 A 
HETATM    2  C5  UNL     1      26.293  -0.450  52.773  1.00  0.00     0.050 A 
HETATM    3  C6  UNL     1      27.435   0.314  52.632  1.00  0.00     0.118 A 
HETATM    4  N3  UNL     1      27.087   1.589  52.890  1.00  0.00    -0.275 N 
HETATM    5  C7  UNL     1      25.780   1.685  53.191  1.00  0.00     0.070 A 
ENDROOT
BRANCH   5   6
HETATM    6  C8  UNL     1      24.858   2.776  53.551  1.00  0.00     0.159 C 
BRANCH   6   7
HETATM    7  S1  UNL     1      23.853   3.275  52.114  1.00  0.00    -0.049 SA
BRANCH   7   8
HETATM    8  N5  UNL     1      24.749   2.832  50.658  1.00  0.00    -0.330 N 
HETATM    9  H14 UNL     1      24.785   1.838  50.309  1.00  0.00     0.174 HD
BRANCH   8  10
HETATM   10  C9  UNL     1      25.441   3.834  49.931  1.00  0.00     0.040 A 
HETATM   11  C10 UNL     1      26.755   3.648  49.561  1.00  0.00     0.033 A 
HETATM   12  C11 UNL     1      27.433   4.627  48.849  1.00  0.00     0.046 A 
HETATM   13  C12 UNL     1      26.796   5.797  48.505  1.00  0.00     0.138 A 
HETATM   14  F1  UNL     1      27.336   6.834  47.812  1.00  0.00    -0.204 F 
HETATM   15  C13 UNL     1      25.476   5.987  48.874  1.00  0.00     0.074 A 
HETATM   16 CL1  UNL     1      24.572   7.413  48.499  1.00  0.00    -0.081 Cl
HETATM   17  C14 UNL     1      24.828   5.011  49.574  1.00  0.00     0.057 A 
ENDBRANCH   8  10
ENDBRANCH   7   8
ENDBRANCH   6   7
ENDBRANCH   5   6
BRANCH   1  18
HETATM   18  N2  UNL     1      23.986  -0.199  53.314  1.00  0.00    -0.379 N 
HETATM   19  C3  UNL     1      23.737  -0.803  54.584  1.00  0.00     0.125 C 
HETATM   20  C2  UNL     1      22.257  -0.942  54.889  1.00  0.00     0.055 C 
HETATM   21  C1  UNL     1      21.435   0.102  54.175  1.00  0.00     0.221 C 
HETATM   22  C16 UNL     1      21.600  -0.144  52.705  1.00  0.00     0.055 C 
HETATM   23  C15 UNL     1      23.006  -0.178  52.223  1.00  0.00     0.125 C 
BRANCH  21  24
HETATM   24  N1  UNL     1      20.043  -0.192  54.526  1.00  0.00     0.083 N 
HETATM   25  H1  UNL     1      19.526   0.668  54.804  1.00  0.00     0.313 HD
HETATM   26  H2  UNL     1      19.607  -0.699  53.727  1.00  0.00     0.313 HD
ENDBRANCH  21  24
ENDBRANCH   1  18
BRANCH   4  27
HETATM   27  N4  UNL     1      27.894   2.731  52.878  1.00  0.00    -0.339 N 
HETATM   28  H10 UNL     1      28.934   2.842  52.949  1.00  0.00     0.177 HD
HETATM   29  H11 UNL     1      27.689   3.756  52.798  1.00  0.00     0.177 HD
ENDBRANCH   4  27
TORSDOF 7
ENDMDL
MODEL 9
REMARK VINA RESULT:      -7.3      2.858      5.053
REMARK  7 active torsions:
REMARK  status: ('A' for Active; 'I' for Inactive)
REMARK    1  A    between atoms: N1_1  and  C1_2 
REMARK    2  A    between atoms: N2_5  and  C4_6 
REMARK    3  A    between atoms: N3_9  and  N4_10 
REMARK    4  A    between atoms: C7_11  and  C8_12 
REMARK    5  A    between atoms: C8_12  and  S1_13 
REMARK    6  A    between atoms: S1_13  and  N5_14 
REMARK    7  A    between atoms: N5_14  and  C9_15 
ROOT
HETATM    1  C4  UNL     1      22.916   2.868  49.315  1.00  0.00     0.057 A 
HETATM    2  C5  UNL     1      22.426   2.187  48.209  1.00  0.00     0.050 A 
HETATM    3  C6  UNL     1      21.447   1.321  48.656  1.00  0.00     0.118 A 
HETATM    4  N3  UNL     1      21.360   1.485  49.989  1.00  0.00    -0.275 N 
HETATM    5  C7  UNL     1      22.231   2.412  50.424  1.00  0.00     0.070 A 
ENDROOT
BRANCH   5   6
HETATM    6  C8  UNL     1      22.584   3.000  51.728  1.00  0.00     0.159 C 
BRANCH   6   7
HETATM    7  S1  UNL     1      23.376   1.761  52.805  1.00  0.00    -0.049 SA
BRANCH   7   8
HETATM    8  N5  UNL     1      24.555   0.881  51.825  1.00  0.00    -0.330 N 
HETATM    9  H14 UNL     1      24.341   0.577  50.840  1.00  0.00     0.174 HD
BRANCH   8  10
HETATM   10  C9  UNL     1      25.827   0.574  52.372  1.00  0.00     0.040 A 
HETATM   11  C10 UNL     1      26.221  -0.736  52.532  1.00  0.00     0.033 A 
HETATM   12  C11 UNL     1      27.466  -1.039  53.067  1.00  0.00     0.046 A 
HETATM   13  C12 UNL     1      28.320  -0.028  53.443  1.00  0.00     0.138 A 
HETATM   14  F1  UNL     1      29.561  -0.179  53.976  1.00  0.00    -0.204 F 
HETATM   15  C13 UNL     1      27.927   1.289  53.284  1.00  0.00     0.074 A 
HETATM   16 CL1  UNL     1      28.913   2.642  53.719  1.00  0.00    -0.081 Cl
HETATM   17  C14 UNL     1      26.699   1.564  52.756  1.00  0.00     0.057 A 
ENDBRANCH   8  10
ENDBRANCH   7   8
ENDBRANCH   6   7
ENDBRANCH   5   6
BRANCH   1  18
HETATM   18  N2  UNL     1      23.944   3.817  49.055  1.00  0.00    -0.379 N 
HETATM   19  C3  UNL     1      23.548   5.073  48.501  1.00  0.00     0.125 C 
HETATM   20  C2  UNL     1      24.566   6.171  48.743  1.00  0.00     0.055 C 
HETATM   21  C1  UNL     1      25.385   5.915  49.985  1.00  0.00     0.221 C 
HETATM   22  C16 UNL     1      26.156   4.652  49.746  1.00  0.00     0.055 C 
HETATM   23  C15 UNL     1      25.336   3.473  49.360  1.00  0.00     0.125 C 
BRANCH  21  24
HETATM   24  N1  UNL     1      26.344   7.021  50.053  1.00  0.00     0.083 N 
HETATM   25  H1  UNL     1      26.451   7.378  51.025  1.00  0.00     0.313 HD
HETATM   26  H2  UNL     1      27.238   6.702  49.627  1.00  0.00     0.313 HD
ENDBRANCH  21  24
ENDBRANCH   1  18
BRANCH   4  27
HETATM   27  N4  UNL     1      20.514   0.834  50.893  1.00  0.00    -0.339 N 
HETATM   28  H10 UNL     1      20.681   0.490  51.869  1.00  0.00     0.177 HD
HETATM   29  H11 UNL     1      19.515   0.520  50.845  1.00  0.00     0.177 HD
ENDBRANCH   4  27
TORSDOF 7
ENDMDL
