MODEL 1
REMARK VINA RESULT:      -7.9      0.000      0.000
REMARK  6 active torsions:
REMARK  status: ('A' for Active; 'I' for Inactive)
REMARK    1  A    between atoms: C2_2  and  S1_3 
REMARK    2  A    between atoms: S1_3  and  N1_6 
REMARK    3  A    between atoms: N1_6  and  C3_7 
REMARK    4  A    between atoms: C5_9  and  C6_10 
REMARK    5  A    between atoms: C7_11  and  N2_12 
REMARK    6  A    between atoms: N2_12  and  C8_13 
ROOT
HETATM    1  C6  UNL     1      25.355   3.198  51.072  1.00  0.00     0.040 A 
HETATM    2  C7  UNL     1      24.365   3.675  51.885  1.00  0.00     0.142 A 
HETATM    3  N3  UNL     1      23.905   4.943  51.708  1.00  0.00    -0.224 NA
HETATM    4  C14 UNL     1      24.432   5.727  50.725  1.00  0.00     0.235 A 
HETATM    5  N4  UNL     1      25.406   5.247  49.931  1.00  0.00    -0.242 NA
HETATM    6  C15 UNL     1      25.868   4.001  50.092  1.00  0.00     0.062 A 
HETATM    7  C16 UNL     1      26.817   3.549  49.313  1.00  0.00     0.046 C 
ENDROOT
BRANCH   1   8
HETATM    8  C5  UNL     1      25.747   1.994  51.311  1.00  0.00     0.043 C 
HETATM    9  C3  UNL     1      26.563   1.092  52.062  1.00  0.00     0.021 C 
HETATM   10  C4  UNL     1      26.619  -0.218  51.905  1.00  0.00     0.063 C 
BRANCH   9  11
HETATM   11  N1  UNL     1      27.483   1.311  53.101  1.00  0.00    -0.288 N 
HETATM   12  H4  UNL     1      27.290   2.358  53.091  1.00  0.00     0.178 HD
BRANCH  11  13
HETATM   13  S1  UNL     1      28.626   0.781  54.263  1.00  0.00     0.231 S 
HETATM   14  O1  UNL     1      29.266   1.982  54.929  1.00  0.00    -0.206 OA
HETATM   15  O2  UNL     1      27.992  -0.077  55.317  1.00  0.00    -0.206 OA
BRANCH  13  16
HETATM   16  C2  UNL     1      29.948  -0.126  53.544  1.00  0.00     0.110 C 
HETATM   17  C1  UNL     1      29.814  -1.437  53.454  1.00  0.00     0.070 C 
ENDBRANCH  13  16
ENDBRANCH  11  13
ENDBRANCH   9  11
ENDBRANCH   1   8
BRANCH   2  18
HETATM   18  N2  UNL     1      23.621   3.119  52.946  1.00  0.00    -0.340 N 
HETATM   19  H8  UNL     1      23.621   3.378  53.927  1.00  0.00     0.167 HD
BRANCH  18  20
HETATM   20  C8  UNL     1      22.765   2.045  52.501  1.00  0.00     0.035 A 
HETATM   21  C9  UNL     1      22.102   2.065  51.295  1.00  0.00     0.029 A 
HETATM   22  C10 UNL     1      21.279   1.007  50.905  1.00  0.00     0.004 A 
HETATM   23  C11 UNL     1      21.114  -0.095  51.739  1.00  0.00     0.019 A 
HETATM   24  C12 UNL     1      21.774  -0.130  52.955  1.00  0.00     0.013 A 
HETATM   25 BR1  UNL     1      21.575  -1.611  54.118  1.00  0.00    -0.051 Br
HETATM   26  C13 UNL     1      22.576   0.939  53.295  1.00  0.00     0.048 A 
ENDBRANCH  18  20
ENDBRANCH   2  18
TORSDOF 6
ENDMDL
MODEL 2
REMARK VINA RESULT:      -7.7      3.313      5.411
REMARK  6 active torsions:
REMARK  status: ('A' for Active; 'I' for Inactive)
REMARK    1  A    between atoms: C2_2  and  S1_3 
REMARK    2  A    between atoms: S1_3  and  N1_6 
REMARK    3  A    between atoms: N1_6  and  C3_7 
REMARK    4  A    between atoms: C5_9  and  C6_10 
REMARK    5  A    between atoms: C7_11  and  N2_12 
REMARK    6  A    between atoms: N2_12  and  C8_13 
ROOT
HETATM    1  C6  UNL     1      26.938   1.242  52.875  1.00  0.00     0.040 A 
HETATM    2  C7  UNL     1      26.065   0.216  53.105  1.00  0.00     0.142 A 
HETATM    3  N3  UNL     1      26.119  -0.459  54.286  1.00  0.00    -0.224 NA
HETATM    4  C14 UNL     1      27.040  -0.109  55.228  1.00  0.00     0.235 A 
HETATM    5  N4  UNL     1      27.894   0.903  54.990  1.00  0.00    -0.242 NA
HETATM    6  C15 UNL     1      27.852   1.577  53.835  1.00  0.00     0.062 A 
HETATM    7  C16 UNL     1      28.691   2.557  53.618  1.00  0.00     0.046 C 
ENDROOT
BRANCH   1   8
HETATM    8  C5  UNL     1      26.833   1.822  51.729  1.00  0.00     0.043 C 
HETATM    9  C3  UNL     1      26.223   2.818  50.907  1.00  0.00     0.021 C 
HETATM   10  C4  UNL     1      26.486   3.039  49.631  1.00  0.00     0.063 C 
BRANCH   9  11
HETATM   11  N1  UNL     1      25.234   3.778  51.180  1.00  0.00    -0.288 N 
HETATM   12  H4  UNL     1      25.057   3.362  52.145  1.00  0.00     0.178 HD
BRANCH  11  13
HETATM   13  S1  UNL     1      24.285   5.147  50.780  1.00  0.00     0.231 S 
HETATM   14  O1  UNL     1      23.434   5.541  51.970  1.00  0.00    -0.206 OA
HETATM   15  O2  UNL     1      25.135   6.317  50.383  1.00  0.00    -0.206 OA
BRANCH  13  16
HETATM   16  C2  UNL     1      23.155   4.827  49.473  1.00  0.00     0.110 C 
HETATM   17  C1  UNL     1      22.993   3.571  49.096  1.00  0.00     0.070 C 
ENDBRANCH  13  16
ENDBRANCH  11  13
ENDBRANCH   9  11
ENDBRANCH   1   8
BRANCH   2  18
HETATM   18  N2  UNL     1      25.012  -0.356  52.361  1.00  0.00    -0.340 N 
HETATM   19  H8  UNL     1      25.063  -0.932  51.527  1.00  0.00     0.167 HD
BRANCH  18  20
HETATM   20  C8  UNL     1      23.720  -0.040  52.922  1.00  0.00     0.035 A 
HETATM   21  C9  UNL     1      23.127  -0.793  53.910  1.00  0.00     0.029 A 
HETATM   22  C10 UNL     1      21.873  -0.454  54.422  1.00  0.00     0.004 A 
HETATM   23  C11 UNL     1      21.196   0.659  53.935  1.00  0.00     0.019 A 
HETATM   24  C12 UNL     1      21.779   1.426  52.941  1.00  0.00     0.013 A 
HETATM   25 BR1  UNL     1      20.890   2.949  52.251  1.00  0.00    -0.051 Br
HETATM   26  C13 UNL     1      23.019   1.051  52.469  1.00  0.00     0.048 A 
ENDBRANCH  18  20
ENDBRANCH   2  18
TORSDOF 6
ENDMDL
MODEL 3
REMARK VINA RESULT:      -7.5      3.610      6.755
REMARK  6 active torsions:
REMARK  status: ('A' for Active; 'I' for Inactive)
REMARK    1  A    between atoms: C2_2  and  S1_3 
REMARK    2  A    between atoms: S1_3  and  N1_6 
REMARK    3  A    between atoms: N1_6  and  C3_7 
REMARK    4  A    between atoms: C5_9  and  C6_10 
REMARK    5  A    between atoms: C7_11  and  N2_12 
REMARK    6  A    between atoms: N2_12  and  C8_13 
ROOT
HETATM    1  C6  UNL     1      22.819  -0.605  53.420  1.00  0.00     0.040 A 
HETATM    2  C7  UNL     1      24.163  -0.358  53.455  1.00  0.00     0.142 A 
HETATM    3  N3  UNL     1      24.886  -0.728  54.547  1.00  0.00    -0.224 NA
HETATM    4  C14 UNL     1      24.267  -1.341  55.596  1.00  0.00     0.235 A 
HETATM    5  N4  UNL     1      22.943  -1.580  55.550  1.00  0.00    -0.242 NA
HETATM    6  C15 UNL     1      22.220  -1.222  54.483  1.00  0.00     0.062 A 
HETATM    7  C16 UNL     1      20.934  -1.460  54.455  1.00  0.00     0.046 C 
ENDROOT
BRANCH   1   8
HETATM    8  C5  UNL     1      22.203  -0.212  52.359  1.00  0.00     0.043 C 
HETATM    9  C3  UNL     1      21.939   0.813  51.400  1.00  0.00     0.021 C 
HETATM   10  C4  UNL     1      21.119   0.718  50.368  1.00  0.00     0.063 C 
BRANCH   9  11
HETATM   11  N1  UNL     1      22.422   2.127  51.280  1.00  0.00    -0.288 N 
HETATM   12  H4  UNL     1      22.003   2.223  50.306  1.00  0.00     0.178 HD
BRANCH  11  13
HETATM   13  S1  UNL     1      23.248   3.508  51.868  1.00  0.00     0.231 S 
HETATM   14  O1  UNL     1      22.243   4.551  52.312  1.00  0.00    -0.206 OA
HETATM   15  O2  UNL     1      24.143   3.172  53.024  1.00  0.00    -0.206 OA
BRANCH  13  16
HETATM   16  C2  UNL     1      24.226   4.286  50.632  1.00  0.00     0.110 C 
HETATM   17  C1  UNL     1      24.935   3.510  49.832  1.00  0.00     0.070 C 
ENDBRANCH  13  16
ENDBRANCH  11  13
ENDBRANCH   9  11
ENDBRANCH   1   8
BRANCH   2  18
HETATM   18  N2  UNL     1      25.073   0.222  52.546  1.00  0.00    -0.340 N 
HETATM   19  H8  UNL     1      24.880   0.804  51.738  1.00  0.00     0.167 HD
BRANCH  18  20
HETATM   20  C8  UNL     1      26.442  -0.094  52.877  1.00  0.00     0.035 A 
HETATM   21  C9  UNL     1      26.983  -1.349  52.713  1.00  0.00     0.029 A 
HETATM   22  C10 UNL     1      28.312  -1.613  53.051  1.00  0.00     0.004 A 
HETATM   23  C11 UNL     1      29.118  -0.601  53.563  1.00  0.00     0.019 A 
HETATM   24  C12 UNL     1      28.589   0.667  53.733  1.00  0.00     0.013 A 
HETATM   25 BR1  UNL     1      29.652   2.070  54.428  1.00  0.00    -0.051 Br
HETATM   26  C13 UNL     1      27.271   0.878  53.385  1.00  0.00     0.048 A 
ENDBRANCH  18  20
ENDBRANCH   2  18
TORSDOF 6
ENDMDL
MODEL 4
REMARK VINA RESULT:      -7.5      1.931      2.878
REMARK  6 active torsions:
REMARK  status: ('A' for Active; 'I' for Inactive)
REMARK    1  A    between atoms: C2_2  and  S1_3 
REMARK    2  A    between atoms: S1_3  and  N1_6 
REMARK    3  A    between atoms: N1_6  and  C3_7 
REMARK    4  A    between atoms: C5_9  and  C6_10 
REMARK    5  A    between atoms: C7_11  and  N2_12 
REMARK    6  A    between atoms: N2_12  and  C8_13 
ROOT
HETATM    1  C6  UNL     1      23.398   4.368  50.388  1.00  0.00     0.040 A 
HETATM    2  C7  UNL     1      22.405   3.431  50.458  1.00  0.00     0.142 A 
HETATM    3  N3  UNL     1      21.161   3.801  50.865  1.00  0.00    -0.224 NA
HETATM    4  C14 UNL     1      20.912   5.098  51.200  1.00  0.00     0.235 A 
HETATM    5  N4  UNL     1      21.897   6.013  51.127  1.00  0.00    -0.242 NA
HETATM    6  C15 UNL     1      23.126   5.664  50.727  1.00  0.00     0.062 A 
HETATM    7  C16 UNL     1      24.073   6.564  50.664  1.00  0.00     0.046 C 
ENDROOT
BRANCH   1   8
HETATM    8  C5  UNL     1      24.551   3.937  50.008  1.00  0.00     0.043 C 
HETATM    9  C3  UNL     1      25.845   3.429  50.340  1.00  0.00     0.021 C 
HETATM   10  C4  UNL     1      26.794   3.102  49.483  1.00  0.00     0.063 C 
BRANCH   9  11
HETATM   11  N1  UNL     1      26.451   3.157  51.578  1.00  0.00    -0.288 N 
HETATM   12  H4  UNL     1      26.410   4.184  51.857  1.00  0.00     0.178 HD
BRANCH  11  13
HETATM   13  S1  UNL     1      27.135   2.103  52.743  1.00  0.00     0.231 S 
HETATM   14  O1  UNL     1      28.605   2.423  52.918  1.00  0.00    -0.206 OA
HETATM   15  O2  UNL     1      26.451   2.222  54.072  1.00  0.00    -0.206 OA
BRANCH  13  16
HETATM   16  C2  UNL     1      27.071   0.418  52.248  1.00  0.00     0.110 C 
HETATM   17  C1  UNL     1      27.042  -0.500  53.198  1.00  0.00     0.070 C 
ENDBRANCH  13  16
ENDBRANCH  11  13
ENDBRANCH   9  11
ENDBRANCH   1   8
BRANCH   2  18
HETATM   18  N2  UNL     1      22.342   2.052  50.166  1.00  0.00    -0.340 N 
HETATM   19  H8  UNL     1      22.312   1.594  49.261  1.00  0.00     0.167 HD
BRANCH  18  20
HETATM   20  C8  UNL     1      22.325   1.247  51.364  1.00  0.00     0.035 A 
HETATM   21  C9  UNL     1      23.442   1.031  52.139  1.00  0.00     0.029 A 
HETATM   22  C10 UNL     1      23.383   0.241  53.289  1.00  0.00     0.004 A 
HETATM   23  C11 UNL     1      22.182  -0.347  53.672  1.00  0.00     0.019 A 
HETATM   24  C12 UNL     1      21.049  -0.140  52.904  1.00  0.00     0.013 A 
HETATM   25 BR1  UNL     1      19.396  -0.923  53.391  1.00  0.00    -0.051 Br
HETATM   26  C13 UNL     1      21.159   0.649  51.778  1.00  0.00     0.048 A 
ENDBRANCH  18  20
ENDBRANCH   2  18
TORSDOF 6
ENDMDL
MODEL 5
REMARK VINA RESULT:      -7.5      2.605      4.161
REMARK  6 active torsions:
REMARK  status: ('A' for Active; 'I' for Inactive)
REMARK    1  A    between atoms: C2_2  and  S1_3 
REMARK    2  A    between atoms: S1_3  and  N1_6 
REMARK    3  A    between atoms: N1_6  and  C3_7 
REMARK    4  A    between atoms: C5_9  and  C6_10 
REMARK    5  A    between atoms: C7_11  and  N2_12 
REMARK    6  A    between atoms: N2_12  and  C8_13 
ROOT
HETATM    1  C6  UNL     1      24.062   0.645  52.979  1.00  0.00     0.040 A 
HETATM    2  C7  UNL     1      22.814   1.202  52.991  1.00  0.00     0.142 A 
HETATM    3  N3  UNL     1      21.821   0.607  53.706  1.00  0.00    -0.224 NA
HETATM    4  C14 UNL     1      22.076  -0.536  54.404  1.00  0.00     0.235 A 
HETATM    5  N4  UNL     1      23.309  -1.075  54.385  1.00  0.00    -0.242 NA
HETATM    6  C15 UNL     1      24.296  -0.500  53.687  1.00  0.00     0.062 A 
HETATM    7  C16 UNL     1      25.488  -1.037  53.678  1.00  0.00     0.046 C 
ENDROOT
BRANCH   1   8
HETATM    8  C5  UNL     1      24.944   1.259  52.268  1.00  0.00     0.043 C 
HETATM    9  C3  UNL     1      26.244   1.840  52.154  1.00  0.00     0.021 C 
HETATM   10  C4  UNL     1      26.741   2.428  51.081  1.00  0.00     0.063 C 
BRANCH   9  11
HETATM   11  N1  UNL     1      27.297   1.961  53.077  1.00  0.00    -0.288 N 
HETATM   12  H4  UNL     1      27.237   3.024  53.050  1.00  0.00     0.178 HD
BRANCH  11  13
HETATM   13  S1  UNL     1      28.490   1.316  54.125  1.00  0.00     0.231 S 
HETATM   14  O1  UNL     1      29.385   2.431  54.625  1.00  0.00    -0.206 OA
HETATM   15  O2  UNL     1      27.878   0.619  55.303  1.00  0.00    -0.206 OA
BRANCH  13  16
HETATM   16  C2  UNL     1      29.556   0.178  53.313  1.00  0.00     0.110 C 
HETATM   17  C1  UNL     1      29.265  -1.107  53.404  1.00  0.00     0.070 C 
ENDBRANCH  13  16
ENDBRANCH  11  13
ENDBRANCH   9  11
ENDBRANCH   1   8
BRANCH   2  18
HETATM   18  N2  UNL     1      22.255   2.358  52.406  1.00  0.00    -0.340 N 
HETATM   19  H8  UNL     1      22.009   3.238  52.847  1.00  0.00     0.167 HD
BRANCH  18  20
HETATM   20  C8  UNL     1      22.035   2.194  50.989  1.00  0.00     0.035 A 
HETATM   21  C9  UNL     1      21.582   1.019  50.432  1.00  0.00     0.029 A 
HETATM   22  C10 UNL     1      21.387   0.901  49.054  1.00  0.00     0.004 A 
HETATM   23  C11 UNL     1      21.651   1.980  48.216  1.00  0.00     0.019 A 
HETATM   24  C12 UNL     1      22.107   3.167  48.761  1.00  0.00     0.013 A 
HETATM   25 BR1  UNL     1      22.479   4.657  47.654  1.00  0.00    -0.051 Br
HETATM   26  C13 UNL     1      22.283   3.234  50.127  1.00  0.00     0.048 A 
ENDBRANCH  18  20
ENDBRANCH   2  18
TORSDOF 6
ENDMDL
MODEL 6
REMARK VINA RESULT:      -7.3      3.945      5.758
REMARK  6 active torsions:
REMARK  status: ('A' for Active; 'I' for Inactive)
REMARK    1  A    between atoms: C2_2  and  S1_3 
REMARK    2  A    between atoms: S1_3  and  N1_6 
REMARK    3  A    between atoms: N1_6  and  C3_7 
REMARK    4  A    between atoms: C5_9  and  C6_10 
REMARK    5  A    between atoms: C7_11  and  N2_12 
REMARK    6  A    between atoms: N2_12  and  C8_13 
ROOT
HETATM    1  C6  UNL     1      23.841   4.500  50.000  1.00  0.00     0.040 A 
HETATM    2  C7  UNL     1      23.688   4.300  51.344  1.00  0.00     0.142 A 
HETATM    3  N3  UNL     1      22.440   4.314  51.886  1.00  0.00    -0.224 NA
HETATM    4  C14 UNL     1      21.355   4.527  51.090  1.00  0.00     0.235 A 
HETATM    5  N4  UNL     1      21.517   4.723  49.769  1.00  0.00    -0.242 NA
HETATM    6  C15 UNL     1      22.738   4.711  49.221  1.00  0.00     0.062 A 
HETATM    7  C16 UNL     1      22.879   4.905  47.935  1.00  0.00     0.046 C 
ENDROOT
BRANCH   1   8
HETATM    8  C5  UNL     1      25.053   4.487  49.565  1.00  0.00     0.043 C 
HETATM    9  C3  UNL     1      26.280   5.179  49.320  1.00  0.00     0.021 C 
HETATM   10  C4  UNL     1      27.368   4.661  48.779  1.00  0.00     0.063 C 
BRANCH   9  11
HETATM   11  N1  UNL     1      26.663   6.510  49.552  1.00  0.00    -0.288 N 
HETATM   12  H4  UNL     1      27.521   6.198  50.099  1.00  0.00     0.178 HD
BRANCH  11  13
HETATM   13  S1  UNL     1      26.464   8.205  49.393  1.00  0.00     0.231 S 
HETATM   14  O1  UNL     1      27.263   8.913  50.468  1.00  0.00    -0.206 OA
HETATM   15  O2  UNL     1      26.915   8.695  48.050  1.00  0.00    -0.206 OA
BRANCH  13  16
HETATM   16  C2  UNL     1      24.798   8.713  49.627  1.00  0.00     0.110 C 
HETATM   17  C1  UNL     1      24.076   8.060  50.519  1.00  0.00     0.070 C 
ENDBRANCH  13  16
ENDBRANCH  11  13
ENDBRANCH   9  11
ENDBRANCH   1   8
BRANCH   2  18
HETATM   18  N2  UNL     1      24.586   4.039  52.400  1.00  0.00    -0.340 N 
HETATM   19  H8  UNL     1      24.992   4.689  53.065  1.00  0.00     0.167 HD
BRANCH  18  20
HETATM   20  C8  UNL     1      24.923   2.638  52.488  1.00  0.00     0.035 A 
HETATM   21  C9  UNL     1      26.121   2.126  52.046  1.00  0.00     0.029 A 
HETATM   22  C10 UNL     1      26.405   0.762  52.145  1.00  0.00     0.004 A 
HETATM   23  C11 UNL     1      25.472  -0.108  52.699  1.00  0.00     0.019 A 
HETATM   24  C12 UNL     1      24.262   0.392  53.149  1.00  0.00     0.013 A 
HETATM   25 BR1  UNL     1      22.965  -0.760  53.907  1.00  0.00    -0.051 Br
HETATM   26  C13 UNL     1      24.028   1.746  53.029  1.00  0.00     0.048 A 
ENDBRANCH  18  20
ENDBRANCH   2  18
TORSDOF 6
ENDMDL
MODEL 7
REMARK VINA RESULT:      -7.1      3.302      5.310
REMARK  6 active torsions:
REMARK  status: ('A' for Active; 'I' for Inactive)
REMARK    1  A    between atoms: C2_2  and  S1_3 
REMARK    2  A    between atoms: S1_3  and  N1_6 
REMARK    3  A    between atoms: N1_6  and  C3_7 
REMARK    4  A    between atoms: C5_9  and  C6_10 
REMARK    5  A    between atoms: C7_11  and  N2_12 
REMARK    6  A    between atoms: N2_12  and  C8_13 
ROOT
HETATM    1  C6  UNL     1      22.956   3.375  50.824  1.00  0.00     0.040 A 
HETATM    2  C7  UNL     1      22.699   4.406  51.685  1.00  0.00     0.142 A 
HETATM    3  N3  UNL     1      21.464   4.519  52.245  1.00  0.00    -0.224 NA
HETATM    4  C14 UNL     1      20.495   3.608  51.946  1.00  0.00     0.235 A 
HETATM    5  N4  UNL     1      20.760   2.598  51.097  1.00  0.00    -0.242 NA
HETATM    6  C15 UNL     1      21.970   2.473  50.539  1.00  0.00     0.062 A 
HETATM    7  C16 UNL     1      22.211   1.486  49.715  1.00  0.00     0.046 C 
ENDROOT
BRANCH   1   8
HETATM    8  C5  UNL     1      24.143   3.344  50.325  1.00  0.00     0.043 C 
HETATM    9  C3  UNL     1      25.554   3.212  50.513  1.00  0.00     0.021 C 
HETATM   10  C4  UNL     1      26.472   3.265  49.565  1.00  0.00     0.063 C 
BRANCH   9  11
HETATM   11  N1  UNL     1      26.327   3.010  51.669  1.00  0.00    -0.288 N 
HETATM   12  H4  UNL     1      26.388   4.059  51.845  1.00  0.00     0.178 HD
BRANCH  11  13
HETATM   13  S1  UNL     1      27.119   2.020  52.821  1.00  0.00     0.231 S 
HETATM   14  O1  UNL     1      28.587   2.389  52.884  1.00  0.00    -0.206 OA
HETATM   15  O2  UNL     1      26.522   2.169  54.189  1.00  0.00    -0.206 OA
BRANCH  13  16
HETATM   16  C2  UNL     1      27.075   0.317  52.390  1.00  0.00     0.110 C 
HETATM   17  C1  UNL     1      26.008  -0.378  52.743  1.00  0.00     0.070 C 
ENDBRANCH  13  16
ENDBRANCH  11  13
ENDBRANCH   9  11
ENDBRANCH   1   8
BRANCH   2  18
HETATM   18  N2  UNL     1      23.474   5.466  52.198  1.00  0.00    -0.340 N 
HETATM   19  H8  UNL     1      23.907   5.553  53.111  1.00  0.00     0.167 HD
BRANCH  18  20
HETATM   20  C8  UNL     1      23.634   6.532  51.238  1.00  0.00     0.035 A 
HETATM   21  C9  UNL     1      22.569   7.177  50.649  1.00  0.00     0.029 A 
HETATM   22  C10 UNL     1      22.768   8.201  49.721  1.00  0.00     0.004 A 
HETATM   23  C11 UNL     1      24.058   8.587  49.372  1.00  0.00     0.019 A 
HETATM   24  C12 UNL     1      25.139   7.949  49.955  1.00  0.00     0.013 A 
HETATM   25 BR1  UNL     1      26.910   8.446  49.506  1.00  0.00    -0.051 Br
HETATM   26  C13 UNL     1      24.891   6.944  50.867  1.00  0.00     0.048 A 
ENDBRANCH  18  20
ENDBRANCH   2  18
TORSDOF 6
ENDMDL
MODEL 8
REMARK VINA RESULT:      -7.0      4.042      5.903
REMARK  6 active torsions:
REMARK  status: ('A' for Active; 'I' for Inactive)
REMARK    1  A    between atoms: C2_2  and  S1_3 
REMARK    2  A    between atoms: S1_3  and  N1_6 
REMARK    3  A    between atoms: N1_6  and  C3_7 
REMARK    4  A    between atoms: C5_9  and  C6_10 
REMARK    5  A    between atoms: C7_11  and  N2_12 
REMARK    6  A    between atoms: N2_12  and  C8_13 
ROOT
HETATM    1  C6  UNL     1      23.586   2.825  50.424  1.00  0.00     0.040 A 
HETATM    2  C7  UNL     1      23.404   2.724  51.775  1.00  0.00     0.142 A 
HETATM    3  N3  UNL     1      22.193   2.340  52.262  1.00  0.00    -0.224 NA
HETATM    4  C14 UNL     1      21.173   2.059  51.404  1.00  0.00     0.235 A 
HETATM    5  N4  UNL     1      21.363   2.162  50.076  1.00  0.00    -0.242 NA
HETATM    6  C15 UNL     1      22.548   2.537  49.582  1.00  0.00     0.062 A 
HETATM    7  C16 UNL     1      22.717   2.634  48.288  1.00  0.00     0.046 C 
ENDROOT
BRANCH   1   8
HETATM    8  C5  UNL     1      24.755   3.208  50.041  1.00  0.00     0.043 C 
HETATM    9  C3  UNL     1      25.723   4.249  49.902  1.00  0.00     0.021 C 
HETATM   10  C4  UNL     1      26.927   4.125  49.371  1.00  0.00     0.063 C 
BRANCH   9  11
HETATM   11  N1  UNL     1      25.687   5.610  50.250  1.00  0.00    -0.288 N 
HETATM   12  H4  UNL     1      26.212   5.422  51.157  1.00  0.00     0.178 HD
BRANCH  11  13
HETATM   13  S1  UNL     1      25.276   7.248  49.960  1.00  0.00     0.231 S 
HETATM   14  O1  UNL     1      24.741   7.396  48.550  1.00  0.00    -0.206 OA
HETATM   15  O2  UNL     1      24.242   7.743  50.926  1.00  0.00    -0.206 OA
BRANCH  13  16
HETATM   16  C2  UNL     1      26.666   8.320  50.055  1.00  0.00     0.110 C 
HETATM   17  C1  UNL     1      27.519   8.310  49.046  1.00  0.00     0.070 C 
ENDBRANCH  13  16
ENDBRANCH  11  13
ENDBRANCH   9  11
ENDBRANCH   1   8
BRANCH   2  18
HETATM   18  N2  UNL     1      24.246   2.919  52.890  1.00  0.00    -0.340 N 
HETATM   19  H8  UNL     1      24.318   3.727  53.499  1.00  0.00     0.167 HD
BRANCH  18  20
HETATM   20  C8  UNL     1      25.086   1.772  53.140  1.00  0.00     0.035 A 
HETATM   21  C9  UNL     1      24.626   0.476  53.070  1.00  0.00     0.029 A 
HETATM   22  C10 UNL     1      25.472  -0.606  53.324  1.00  0.00     0.004 A 
HETATM   23  C11 UNL     1      26.805  -0.388  53.655  1.00  0.00     0.019 A 
HETATM   24  C12 UNL     1      27.283   0.909  53.729  1.00  0.00     0.013 A 
HETATM   25 BR1  UNL     1      29.091   1.247  54.178  1.00  0.00    -0.051 Br
HETATM   26  C13 UNL     1      26.409   1.943  53.469  1.00  0.00     0.048 A 
ENDBRANCH  18  20
ENDBRANCH   2  18
TORSDOF 6
ENDMDL
MODEL 9
REMARK VINA RESULT:      -7.0      3.411      4.458
REMARK  6 active torsions:
REMARK  status: ('A' for Active; 'I' for Inactive)
REMARK    1  A    between atoms: C2_2  and  S1_3 
REMARK    2  A    between atoms: S1_3  and  N1_6 
REMARK    3  A    between atoms: N1_6  and  C3_7 
REMARK    4  A    between atoms: C5_9  and  C6_10 
REMARK    5  A    between atoms: C7_11  and  N2_12 
REMARK    6  A    between atoms: N2_12  and  C8_13 
ROOT
HETATM    1  C6  UNL     1      25.263   5.115  50.276  1.00  0.00     0.040 A 
HETATM    2  C7  UNL     1      24.521   6.167  50.737  1.00  0.00     0.142 A 
HETATM    3  N3  UNL     1      24.842   7.433  50.353  1.00  0.00    -0.224 NA
HETATM    4  C14 UNL     1      25.895   7.643  49.515  1.00  0.00     0.235 A 
HETATM    5  N4  UNL     1      26.618   6.600  49.067  1.00  0.00    -0.242 NA
HETATM    6  C15 UNL     1      26.315   5.350  49.435  1.00  0.00     0.062 A 
HETATM    7  C16 UNL     1      27.028   4.346  48.993  1.00  0.00     0.046 C 
ENDROOT
BRANCH   1   8
HETATM    8  C5  UNL     1      24.906   3.950  50.695  1.00  0.00     0.043 C 
HETATM    9  C3  UNL     1      25.060   2.879  51.628  1.00  0.00     0.021 C 
HETATM   10  C4  UNL     1      24.374   1.750  51.634  1.00  0.00     0.063 C 
BRANCH   9  11
HETATM   11  N1  UNL     1      25.923   2.712  52.725  1.00  0.00    -0.288 N 
HETATM   12  H4  UNL     1      25.715   3.696  53.074  1.00  0.00     0.178 HD
BRANCH  11  13
HETATM   13  S1  UNL     1      27.014   1.802  53.683  1.00  0.00     0.231 S 
HETATM   14  O1  UNL     1      28.169   2.682  54.112  1.00  0.00    -0.206 OA
HETATM   15  O2  UNL     1      26.349   1.244  54.906  1.00  0.00    -0.206 OA
BRANCH  13  16
HETATM   16  C2  UNL     1      27.736   0.466  52.799  1.00  0.00     0.110 C 
HETATM   17  C1  UNL     1      26.942  -0.521  52.423  1.00  0.00     0.070 C 
ENDBRANCH  13  16
ENDBRANCH  11  13
ENDBRANCH   9  11
ENDBRANCH   1   8
BRANCH   2  18
HETATM   18  N2  UNL     1      23.390   6.272  51.573  1.00  0.00    -0.340 N 
HETATM   19  H8  UNL     1      23.348   6.294  52.586  1.00  0.00     0.167 HD
BRANCH  18  20
HETATM   20  C8  UNL     1      22.164   6.359  50.815  1.00  0.00     0.035 A 
HETATM   21  C9  UNL     1      21.575   5.270  50.214  1.00  0.00     0.029 A 
HETATM   22  C10 UNL     1      20.391   5.399  49.485  1.00  0.00     0.004 A 
HETATM   23  C11 UNL     1      19.783   6.644  49.354  1.00  0.00     0.019 A 
HETATM   24  C12 UNL     1      20.363   7.749  49.953  1.00  0.00     0.013 A 
HETATM   25 BR1  UNL     1      19.567   9.459  49.796  1.00  0.00    -0.051 Br
HETATM   26  C13 UNL     1      21.532   7.570  50.662  1.00  0.00     0.048 A 
ENDBRANCH  18  20
ENDBRANCH   2  18
TORSDOF 6
ENDMDL
