MODEL 1
REMARK VINA RESULT:     -10.3      0.000      0.000
REMARK  2 active torsions:
REMARK  status: ('A' for Active; 'I' for Inactive)
REMARK    1  A    between atoms: C3_3  and  O1_4 
REMARK    2  A    between atoms: O1_4  and  C4_5 
ROOT
HETATM    1  C1  UNL     1      29.785  -0.853  53.760  1.00  0.00     0.014 C 
HETATM    2  C2  UNL     1      28.728  -1.237  53.285  1.00  0.00    -0.091 C 
HETATM    3  C3  UNL     1      27.460  -1.708  52.699  1.00  0.00     0.268 C 
ENDROOT
BRANCH   3   4
HETATM    4  O1  UNL     1      26.349  -0.990  53.169  1.00  0.00    -0.337 OA
BRANCH   4   5
HETATM    5  C4  UNL     1      26.067   0.249  52.594  1.00  0.00     0.099 A 
HETATM    6  C5  UNL     1      26.801   0.899  51.620  1.00  0.00     0.071 A 
HETATM    7  C6  UNL     1      26.230   2.098  51.272  1.00  0.00     0.075 A 
HETATM    8  N1  UNL     1      26.822   2.834  50.315  1.00  0.00    -0.241 NA
HETATM    9  C9  UNL     1      25.074   2.562  51.843  1.00  0.00     0.042 A 
HETATM   10  C7  UNL     1      26.285   4.005  49.924  1.00  0.00     0.236 A 
HETATM   11  N2  UNL     1      25.134   4.483  50.475  1.00  0.00    -0.223 NA
HETATM   12  C8  UNL     1      24.537   3.757  51.431  1.00  0.00     0.149 A 
HETATM   13  N4  UNL     1      23.323   4.302  51.899  1.00  0.00    -0.299 N 
HETATM   14  C20 UNL     1      22.266   3.468  51.746  1.00  0.00     0.017 C 
HETATM   15  H12 UNL     1      23.264   5.253  52.315  1.00  0.00     0.178 HD
HETATM   16  C19 UNL     1      21.362   2.776  51.628  1.00  0.00    -0.052 C 
HETATM   17  C18 UNL     1      20.273   1.962  51.505  1.00  0.00     0.110 C 
HETATM   18  C17 UNL     1      19.826   0.873  52.018  1.00  0.00     0.142 C 
HETATM   19  C16 UNL     1      19.990  -0.200  52.923  1.00  0.00     0.057 A 
HETATM   20  F1  UNL     1      18.619   0.606  51.413  1.00  0.00    -0.204 F 
HETATM   21  C15 UNL     1      20.466  -0.992  53.816  1.00  0.00     0.141 A 
HETATM   22 CL1  UNL     1      18.830  -1.363  53.526  1.00  0.00    -0.169 Cl
HETATM   23  C14 UNL     1      21.499  -1.501  54.659  1.00  0.00     0.004 C 
HETATM   24  C13 UNL     1      22.615  -1.738  55.267  1.00  0.00     0.072 C 
HETATM   25  C12 UNL     1      23.883  -1.120  55.075  1.00  0.00     0.245 C 
HETATM   26  N3  UNL     1      24.382  -0.223  54.144  1.00  0.00    -0.321 N 
HETATM   27  O2  UNL     1      24.991  -1.114  55.629  1.00  0.00    -0.268 OA
HETATM   28  C11 UNL     1      24.899   0.703  53.184  1.00  0.00     0.069 A 
HETATM   29  H7  UNL     1      23.687  -0.322  53.410  1.00  0.00     0.169 HD
HETATM   30  C10 UNL     1      24.353   1.927  52.804  1.00  0.00     0.050 A 
ENDBRANCH   4   5
ENDBRANCH   3   4
TORSDOF 2
ENDMDL
MODEL 2
REMARK VINA RESULT:      -9.0      3.418      5.867
REMARK  2 active torsions:
REMARK  status: ('A' for Active; 'I' for Inactive)
REMARK    1  A    between atoms: C3_3  and  O1_4 
REMARK    2  A    between atoms: O1_4  and  C4_5 
ROOT
HETATM    1  C1  UNL     1      29.589   0.246  53.622  1.00  0.00     0.014 C 
HETATM    2  C2  UNL     1      28.699   1.061  53.436  1.00  0.00    -0.091 C 
HETATM    3  C3  UNL     1      27.625   2.049  53.227  1.00  0.00     0.268 C 
ENDROOT
BRANCH   3   4
HETATM    4  O1  UNL     1      26.862   1.782  52.080  1.00  0.00    -0.337 OA
BRANCH   4   5
HETATM    5  C4  UNL     1      25.527   1.412  52.241  1.00  0.00     0.099 A 
HETATM    6  C5  UNL     1      25.012   0.553  53.194  1.00  0.00     0.071 A 
HETATM    7  C6  UNL     1      23.651   0.422  53.074  1.00  0.00     0.075 A 
HETATM    8  N1  UNL     1      23.005  -0.366  53.951  1.00  0.00    -0.241 NA
HETATM    9  C9  UNL     1      22.925   1.077  52.114  1.00  0.00     0.042 A 
HETATM   10  C7  UNL     1      21.667  -0.506  53.887  1.00  0.00     0.236 A 
HETATM   11  N2  UNL     1      20.925   0.139  52.943  1.00  0.00    -0.223 NA
HETATM   12  C8  UNL     1      21.561   0.927  52.064  1.00  0.00     0.149 A 
HETATM   13  N4  UNL     1      20.705   1.597  51.164  1.00  0.00    -0.299 N 
HETATM   14  C20 UNL     1      20.823   2.946  51.217  1.00  0.00     0.017 C 
HETATM   15  H12 UNL     1      20.054   1.089  50.533  1.00  0.00     0.178 HD
HETATM   16  C19 UNL     1      20.910   4.086  51.244  1.00  0.00    -0.052 C 
HETATM   17  C18 UNL     1      21.007   5.448  51.255  1.00  0.00     0.110 C 
HETATM   18  C17 UNL     1      21.853   6.353  50.916  1.00  0.00     0.142 C 
HETATM   19  C16 UNL     1      23.113   6.697  50.375  1.00  0.00     0.057 A 
HETATM   20  F1  UNL     1      21.283   7.571  51.212  1.00  0.00    -0.204 F 
HETATM   21  C15 UNL     1      24.290   6.630  49.863  1.00  0.00     0.141 A 
HETATM   22 CL1  UNL     1      23.710   8.227  49.774  1.00  0.00    -0.169 Cl
HETATM   23  C14 UNL     1      25.486   5.950  49.484  1.00  0.00     0.004 C 
HETATM   24  C13 UNL     1      26.420   5.079  49.281  1.00  0.00     0.072 C 
HETATM   25  C12 UNL     1      26.457   3.708  49.660  1.00  0.00     0.245 C 
HETATM   26  N3  UNL     1      25.646   2.908  50.448  1.00  0.00    -0.321 N 
HETATM   27  O2  UNL     1      27.172   2.719  49.446  1.00  0.00    -0.268 OA
HETATM   28  C11 UNL     1      24.809   2.080  51.262  1.00  0.00     0.069 A 
HETATM   29  H7  UNL     1      25.140   3.620  50.965  1.00  0.00     0.169 HD
HETATM   30  C10 UNL     1      23.429   1.918  51.173  1.00  0.00     0.050 A 
ENDBRANCH   4   5
ENDBRANCH   3   4
TORSDOF 2
ENDMDL
MODEL 3
REMARK VINA RESULT:      -9.0      4.061      7.461
REMARK  2 active torsions:
REMARK  status: ('A' for Active; 'I' for Inactive)
REMARK    1  A    between atoms: C3_3  and  O1_4 
REMARK    2  A    between atoms: O1_4  and  C4_5 
ROOT
HETATM    1  C1  UNL     1      22.639   2.110  47.552  1.00  0.00     0.014 C 
HETATM    2  C2  UNL     1      21.494   2.434  47.822  1.00  0.00    -0.091 C 
HETATM    3  C3  UNL     1      20.107   2.827  48.132  1.00  0.00     0.268 C 
ENDROOT
BRANCH   3   4
HETATM    4  O1  UNL     1      19.943   3.216  49.470  1.00  0.00    -0.337 OA
BRANCH   4   5
HETATM    5  C4  UNL     1      19.674   2.232  50.420  1.00  0.00     0.099 A 
HETATM    6  C5  UNL     1      18.666   1.287  50.375  1.00  0.00     0.071 A 
HETATM    7  C6  UNL     1      18.696   0.462  51.472  1.00  0.00     0.075 A 
HETATM    8  N1  UNL     1      17.786  -0.525  51.554  1.00  0.00    -0.241 NA
HETATM    9  C9  UNL     1      19.625   0.590  52.471  1.00  0.00     0.042 A 
HETATM   10  C7  UNL     1      17.792  -1.374  52.599  1.00  0.00     0.236 A 
HETATM   11  N2  UNL     1      18.710  -1.267  53.601  1.00  0.00    -0.223 NA
HETATM   12  C8  UNL     1      19.620  -0.286  53.529  1.00  0.00     0.149 A 
HETATM   13  N4  UNL     1      20.562  -0.291  54.579  1.00  0.00    -0.299 N 
HETATM   14  C20 UNL     1      21.843  -0.400  54.149  1.00  0.00     0.017 C 
HETATM   15  H12 UNL     1      20.282  -0.221  55.577  1.00  0.00     0.178 HD
HETATM   16  C19 UNL     1      22.931  -0.487  53.806  1.00  0.00    -0.052 C 
HETATM   17  C18 UNL     1      24.236  -0.580  53.416  1.00  0.00     0.110 C 
HETATM   18  C17 UNL     1      25.112   0.140  52.813  1.00  0.00     0.142 C 
HETATM   19  C16 UNL     1      25.454   1.351  52.169  1.00  0.00     0.057 A 
HETATM   20  F1  UNL     1      26.273  -0.597  52.755  1.00  0.00    -0.204 F 
HETATM   21  C15 UNL     1      25.399   2.530  51.661  1.00  0.00     0.141 A 
HETATM   22 CL1  UNL     1      27.020   2.022  51.773  1.00  0.00    -0.169 Cl
HETATM   23  C14 UNL     1      24.719   3.695  51.194  1.00  0.00     0.004 C 
HETATM   24  C13 UNL     1      23.838   4.575  50.847  1.00  0.00     0.072 C 
HETATM   25  C12 UNL     1      22.418   4.478  50.890  1.00  0.00     0.245 C 
HETATM   26  N3  UNL     1      21.534   3.445  51.152  1.00  0.00    -0.321 N 
HETATM   27  O2  UNL     1      21.446   5.230  50.736  1.00  0.00    -0.268 OA
HETATM   28  C11 UNL     1      20.620   2.378  51.423  1.00  0.00     0.069 A 
HETATM   29  H7  UNL     1      22.148   2.646  51.021  1.00  0.00     0.169 HD
HETATM   30  C10 UNL     1      20.614   1.521  52.520  1.00  0.00     0.050 A 
ENDBRANCH   4   5
ENDBRANCH   3   4
TORSDOF 2
ENDMDL
MODEL 4
REMARK VINA RESULT:      -8.6      4.093      7.203
REMARK  2 active torsions:
REMARK  status: ('A' for Active; 'I' for Inactive)
REMARK    1  A    between atoms: C3_3  and  O1_4 
REMARK    2  A    between atoms: O1_4  and  C4_5 
ROOT
HETATM    1  C1  UNL     1      22.171   6.074  46.920  1.00  0.00     0.014 C 
HETATM    2  C2  UNL     1      22.105   4.855  46.928  1.00  0.00    -0.091 C 
HETATM    3  C3  UNL     1      22.015   3.383  46.926  1.00  0.00     0.268 C 
ENDROOT
BRANCH   3   4
HETATM    4  O1  UNL     1      22.610   2.805  48.058  1.00  0.00    -0.337 OA
BRANCH   4   5
HETATM    5  C4  UNL     1      21.783   2.254  49.036  1.00  0.00     0.099 A 
HETATM    6  C5  UNL     1      20.555   1.652  48.842  1.00  0.00     0.071 A 
HETATM    7  C6  UNL     1      20.018   1.207  50.025  1.00  0.00     0.075 A 
HETATM    8  N1  UNL     1      18.831   0.575  49.990  1.00  0.00    -0.241 NA
HETATM    9  C9  UNL     1      20.649   1.361  51.231  1.00  0.00     0.042 A 
HETATM   10  C7  UNL     1      18.276   0.101  51.121  1.00  0.00     0.236 A 
HETATM   11  N2  UNL     1      18.889   0.239  52.331  1.00  0.00    -0.223 NA
HETATM   12  C8  UNL     1      20.072   0.869  52.376  1.00  0.00     0.149 A 
HETATM   13  N4  UNL     1      20.656   0.912  53.659  1.00  0.00    -0.299 N 
HETATM   14  C20 UNL     1      21.882   0.337  53.710  1.00  0.00     0.017 C 
HETATM   15  H12 UNL     1      20.177   1.345  54.474  1.00  0.00     0.178 HD
HETATM   16  C19 UNL     1      22.920  -0.142  53.772  1.00  0.00    -0.052 C 
HETATM   17  C18 UNL     1      24.163  -0.698  53.865  1.00  0.00     0.110 C 
HETATM   18  C17 UNL     1      25.357  -0.454  53.460  1.00  0.00     0.142 C 
HETATM   19  C16 UNL     1      26.251   0.374  52.744  1.00  0.00     0.057 A 
HETATM   20  F1  UNL     1      26.161  -1.464  53.936  1.00  0.00    -0.204 F 
HETATM   21  C15 UNL     1      26.742   1.321  52.028  1.00  0.00     0.141 A 
HETATM   22 CL1  UNL     1      27.999   0.445  52.769  1.00  0.00    -0.169 Cl
HETATM   23  C14 UNL     1      26.654   2.439  51.144  1.00  0.00     0.004 C 
HETATM   24  C13 UNL     1      26.253   3.385  50.360  1.00  0.00     0.072 C 
HETATM   25  C12 UNL     1      24.928   3.698  49.946  1.00  0.00     0.245 C 
HETATM   26  N3  UNL     1      23.703   3.069  50.094  1.00  0.00    -0.321 N 
HETATM   27  O2  UNL     1      24.352   4.608  49.334  1.00  0.00    -0.268 OA
HETATM   28  C11 UNL     1      22.436   2.421  50.247  1.00  0.00     0.069 A 
HETATM   29  H7  UNL     1      24.010   2.132  50.333  1.00  0.00     0.169 HD
HETATM   30  C10 UNL     1      21.855   1.958  51.425  1.00  0.00     0.050 A 
ENDBRANCH   4   5
ENDBRANCH   3   4
TORSDOF 2
ENDMDL
MODEL 5
REMARK VINA RESULT:      -8.4      4.725      8.215
REMARK  2 active torsions:
REMARK  status: ('A' for Active; 'I' for Inactive)
REMARK    1  A    between atoms: C3_3  and  O1_4 
REMARK    2  A    between atoms: O1_4  and  C4_5 
ROOT
HETATM    1  C1  UNL     1      21.382   5.128  47.228  1.00  0.00     0.014 C 
HETATM    2  C2  UNL     1      20.533   5.038  48.100  1.00  0.00    -0.091 C 
HETATM    3  C3  UNL     1      19.496   4.930  49.141  1.00  0.00     0.268 C 
ENDROOT
BRANCH   3   4
HETATM    4  O1  UNL     1      20.002   5.150  50.432  1.00  0.00    -0.337 OA
BRANCH   4   5
HETATM    5  C4  UNL     1      20.690   4.114  51.061  1.00  0.00     0.099 A 
HETATM    6  C5  UNL     1      20.216   2.844  51.331  1.00  0.00     0.071 A 
HETATM    7  C6  UNL     1      21.165   2.070  51.952  1.00  0.00     0.075 A 
HETATM    8  N1  UNL     1      20.853   0.798  52.254  1.00  0.00    -0.241 NA
HETATM    9  C9  UNL     1      22.418   2.534  52.254  1.00  0.00     0.042 A 
HETATM   10  C7  UNL     1      21.760  -0.006  52.842  1.00  0.00     0.236 A 
HETATM   11  N2  UNL     1      23.013   0.434  53.148  1.00  0.00    -0.223 NA
HETATM   12  C8  UNL     1      23.332   1.702  52.851  1.00  0.00     0.149 A 
HETATM   13  N4  UNL     1      24.667   2.047  53.150  1.00  0.00    -0.299 N 
HETATM   14  C20 UNL     1      25.364   2.479  52.071  1.00  0.00     0.017 C 
HETATM   15  H12 UNL     1      25.060   1.970  54.109  1.00  0.00     0.178 HD
HETATM   16  C19 UNL     1      25.968   2.849  51.172  1.00  0.00    -0.052 C 
HETATM   17  C18 UNL     1      26.702   3.303  50.114  1.00  0.00     0.110 C 
HETATM   18  C17 UNL     1      26.748   4.333  49.349  1.00  0.00     0.142 C 
HETATM   19  C16 UNL     1      26.233   5.597  48.981  1.00  0.00     0.057 A 
HETATM   20  F1  UNL     1      27.777   4.130  48.458  1.00  0.00    -0.204 F 
HETATM   21  C15 UNL     1      25.523   6.667  48.932  1.00  0.00     0.141 A 
HETATM   22 CL1  UNL     1      26.922   6.855  47.981  1.00  0.00    -0.169 Cl
HETATM   23  C14 UNL     1      24.389   7.470  49.259  1.00  0.00     0.004 C 
HETATM   24  C13 UNL     1      23.269   7.928  49.715  1.00  0.00     0.072 C 
HETATM   25  C12 UNL     1      22.295   7.264  50.512  1.00  0.00     0.245 C 
HETATM   26  N3  UNL     1      22.127   5.954  50.930  1.00  0.00    -0.321 N 
HETATM   27  O2  UNL     1      21.267   7.562  51.136  1.00  0.00    -0.268 OA
HETATM   28  C11 UNL     1      21.952   4.601  51.362  1.00  0.00     0.069 A 
HETATM   29  H7  UNL     1      22.733   5.477  50.269  1.00  0.00     0.169 HD
HETATM   30  C10 UNL     1      22.885   3.784  51.996  1.00  0.00     0.050 A 
ENDBRANCH   4   5
ENDBRANCH   3   4
TORSDOF 2
ENDMDL
MODEL 6
REMARK VINA RESULT:      -8.2      3.434      6.231
REMARK  2 active torsions:
REMARK  status: ('A' for Active; 'I' for Inactive)
REMARK    1  A    between atoms: C3_3  and  O1_4 
REMARK    2  A    between atoms: O1_4  and  C4_5 
ROOT
HETATM    1  C1  UNL     1      18.244   4.688  48.654  1.00  0.00     0.014 C 
HETATM    2  C2  UNL     1      18.840   4.535  49.709  1.00  0.00    -0.091 C 
HETATM    3  C3  UNL     1      19.553   4.364  50.988  1.00  0.00     0.268 C 
ENDROOT
BRANCH   3   4
HETATM    4  O1  UNL     1      20.589   3.421  50.906  1.00  0.00    -0.337 OA
BRANCH   4   5
HETATM    5  C4  UNL     1      21.843   3.847  50.471  1.00  0.00     0.099 A 
HETATM    6  C5  UNL     1      22.192   5.120  50.059  1.00  0.00     0.071 A 
HETATM    7  C6  UNL     1      23.517   5.193  49.709  1.00  0.00     0.075 A 
HETATM    8  N1  UNL     1      24.008   6.380  49.309  1.00  0.00    -0.241 NA
HETATM    9  C9  UNL     1      24.361   4.116  49.770  1.00  0.00     0.042 A 
HETATM   10  C7  UNL     1      25.307   6.505  48.979  1.00  0.00     0.236 A 
HETATM   11  N2  UNL     1      26.165   5.447  49.037  1.00  0.00    -0.223 NA
HETATM   12  C8  UNL     1      25.685   4.260  49.433  1.00  0.00     0.149 A 
HETATM   13  N4  UNL     1      26.657   3.242  49.518  1.00  0.00    -0.299 N 
HETATM   14  C20 UNL     1      26.756   2.696  50.755  1.00  0.00     0.017 C 
HETATM   15  H12 UNL     1      27.233   2.954  48.703  1.00  0.00     0.178 HD
HETATM   16  C19 UNL     1      26.851   2.221  51.791  1.00  0.00    -0.052 C 
HETATM   17  C18 UNL     1      26.973   1.634  53.018  1.00  0.00     0.110 C 
HETATM   18  C17 UNL     1      26.291   0.862  53.785  1.00  0.00     0.142 C 
HETATM   19  C16 UNL     1      25.115   0.113  54.019  1.00  0.00     0.057 A 
HETATM   20  F1  UNL     1      27.040   0.654  54.920  1.00  0.00    -0.204 F 
HETATM   21  C15 UNL     1      23.955  -0.425  53.891  1.00  0.00     0.141 A 
HETATM   22 CL1  UNL     1      24.785  -1.142  55.193  1.00  0.00    -0.169 Cl
HETATM   23  C14 UNL     1      22.675  -0.581  53.280  1.00  0.00     0.004 C 
HETATM   24  C13 UNL     1      21.619  -0.474  52.542  1.00  0.00     0.072 C 
HETATM   25  C12 UNL     1      21.354   0.455  51.496  1.00  0.00     0.245 C 
HETATM   26  N3  UNL     1      22.008   1.582  51.025  1.00  0.00    -0.321 N 
HETATM   27  O2  UNL     1      20.496   0.624  50.619  1.00  0.00    -0.268 OA
HETATM   28  C11 UNL     1      22.682   2.746  50.537  1.00  0.00     0.069 A 
HETATM   29  H7  UNL     1      22.609   1.784  51.818  1.00  0.00     0.169 HD
HETATM   30  C10 UNL     1      24.020   2.862  50.170  1.00  0.00     0.050 A 
ENDBRANCH   4   5
ENDBRANCH   3   4
TORSDOF 2
ENDMDL
MODEL 7
REMARK VINA RESULT:      -8.0      3.595      6.479
REMARK  2 active torsions:
REMARK  status: ('A' for Active; 'I' for Inactive)
REMARK    1  A    between atoms: C3_3  and  O1_4 
REMARK    2  A    between atoms: O1_4  and  C4_5 
ROOT
HETATM    1  C1  UNL     1      18.431   5.350  47.905  1.00  0.00     0.014 C 
HETATM    2  C2  UNL     1      19.112   5.648  48.873  1.00  0.00    -0.091 C 
HETATM    3  C3  UNL     1      19.931   6.024  50.040  1.00  0.00     0.268 C 
ENDROOT
BRANCH   3   4
HETATM    4  O1  UNL     1      20.794   4.995  50.447  1.00  0.00    -0.337 OA
BRANCH   4   5
HETATM    5  C4  UNL     1      22.147   5.096  50.127  1.00  0.00     0.099 A 
HETATM    6  C5  UNL     1      22.859   6.256  49.888  1.00  0.00     0.071 A 
HETATM    7  C6  UNL     1      24.178   5.992  49.613  1.00  0.00     0.075 A 
HETATM    8  N1  UNL     1      25.003   7.029  49.382  1.00  0.00    -0.241 NA
HETATM    9  C9  UNL     1      24.691   4.722  49.586  1.00  0.00     0.042 A 
HETATM   10  C7  UNL     1      26.309   6.820  49.132  1.00  0.00     0.236 A 
HETATM   11  N2  UNL     1      26.840   5.565  49.105  1.00  0.00    -0.223 NA
HETATM   12  C8  UNL     1      26.026   4.525  49.333  1.00  0.00     0.149 A 
HETATM   13  N4  UNL     1      26.675   3.273  49.343  1.00  0.00    -0.299 N 
HETATM   14  C20 UNL     1      26.524   2.599  50.509  1.00  0.00     0.017 C 
HETATM   15  H12 UNL     1      27.215   2.920  48.528  1.00  0.00     0.178 HD
HETATM   16  C19 UNL     1      26.403   2.014  51.485  1.00  0.00    -0.052 C 
HETATM   17  C18 UNL     1      26.264   1.295  52.637  1.00  0.00     0.110 C 
HETATM   18  C17 UNL     1      25.339   0.670  53.272  1.00  0.00     0.142 C 
HETATM   19  C16 UNL     1      23.990   0.258  53.359  1.00  0.00     0.057 A 
HETATM   20  F1  UNL     1      25.911   0.147  54.410  1.00  0.00    -0.204 F 
HETATM   21  C15 UNL     1      22.741   0.081  53.112  1.00  0.00     0.141 A 
HETATM   22 CL1  UNL     1      23.239  -0.967  54.357  1.00  0.00    -0.169 Cl
HETATM   23  C14 UNL     1      21.519   0.350  52.425  1.00  0.00     0.004 C 
HETATM   24  C13 UNL     1      20.594   0.822  51.655  1.00  0.00     0.072 C 
HETATM   25  C12 UNL     1      20.675   1.889  50.715  1.00  0.00     0.245 C 
HETATM   26  N3  UNL     1      21.646   2.831  50.415  1.00  0.00    -0.321 N 
HETATM   27  O2  UNL     1      19.968   2.378  49.825  1.00  0.00    -0.268 OA
HETATM   28  C11 UNL     1      22.647   3.804  50.102  1.00  0.00     0.069 A 
HETATM   29  H7  UNL     1      22.214   2.776  51.254  1.00  0.00     0.169 HD
HETATM   30  C10 UNL     1      23.991   3.579  49.816  1.00  0.00     0.050 A 
ENDBRANCH   4   5
ENDBRANCH   3   4
TORSDOF 2
ENDMDL
MODEL 8
REMARK VINA RESULT:      -7.8      3.142      5.931
REMARK  2 active torsions:
REMARK  status: ('A' for Active; 'I' for Inactive)
REMARK    1  A    between atoms: C3_3  and  O1_4 
REMARK    2  A    between atoms: O1_4  and  C4_5 
ROOT
HETATM    1  C1  UNL     1      20.819   7.403  49.295  1.00  0.00     0.014 C 
HETATM    2  C2  UNL     1      21.307   6.621  50.096  1.00  0.00    -0.091 C 
HETATM    3  C3  UNL     1      21.899   5.689  51.073  1.00  0.00     0.268 C 
ENDROOT
BRANCH   3   4
HETATM    4  O1  UNL     1      22.239   4.453  50.502  1.00  0.00    -0.337 OA
BRANCH   4   5
HETATM    5  C4  UNL     1      22.983   3.552  51.262  1.00  0.00     0.099 A 
HETATM    6  C5  UNL     1      24.041   3.848  52.101  1.00  0.00     0.071 A 
HETATM    7  C6  UNL     1      24.538   2.720  52.706  1.00  0.00     0.075 A 
HETATM    8  N1  UNL     1      25.558   2.857  53.572  1.00  0.00    -0.241 NA
HETATM    9  C9  UNL     1      24.024   1.470  52.481  1.00  0.00     0.042 A 
HETATM   10  C7  UNL     1      26.062   1.782  54.208  1.00  0.00     0.236 A 
HETATM   11  N2  UNL     1      25.563   0.531  54.002  1.00  0.00    -0.223 NA
HETATM   12  C8  UNL     1      24.547   0.385  53.140  1.00  0.00     0.149 A 
HETATM   13  N4  UNL     1      24.060  -0.935  53.037  1.00  0.00    -0.299 N 
HETATM   14  C20 UNL     1      22.744  -1.047  53.342  1.00  0.00     0.017 C 
HETATM   15  H12 UNL     1      24.667  -1.731  52.756  1.00  0.00     0.178 HD
HETATM   16  C19 UNL     1      21.634  -1.161  53.593  1.00  0.00    -0.052 C 
HETATM   17  C18 UNL     1      20.308  -1.316  53.878  1.00  0.00     0.110 C 
HETATM   18  C17 UNL     1      19.173  -1.000  53.368  1.00  0.00     0.142 C 
HETATM   19  C16 UNL     1      18.437  -0.375  52.335  1.00  0.00     0.057 A 
HETATM   20  F1  UNL     1      18.199  -1.492  54.207  1.00  0.00    -0.204 F 
HETATM   21  C15 UNL     1      18.119   0.273  51.272  1.00  0.00     0.141 A 
HETATM   22 CL1  UNL     1      16.749  -0.519  51.898  1.00  0.00    -0.169 Cl
HETATM   23  C14 UNL     1      18.394   1.120  50.156  1.00  0.00     0.004 C 
HETATM   24  C13 UNL     1      18.942   1.895  49.278  1.00  0.00     0.072 C 
HETATM   25  C12 UNL     1      20.278   2.385  49.233  1.00  0.00     0.245 C 
HETATM   26  N3  UNL     1      21.347   2.340  50.113  1.00  0.00    -0.321 N 
HETATM   27  O2  UNL     1      21.000   3.000  48.436  1.00  0.00    -0.268 OA
HETATM   28  C11 UNL     1      22.452   2.295  51.021  1.00  0.00     0.069 A 
HETATM   29  H7  UNL     1      20.860   2.115  50.975  1.00  0.00     0.169 HD
HETATM   30  C10 UNL     1      22.987   1.176  51.653  1.00  0.00     0.050 A 
ENDBRANCH   4   5
ENDBRANCH   3   4
TORSDOF 2
ENDMDL
MODEL 9
REMARK VINA RESULT:      -7.6      9.915     12.833
REMARK  2 active torsions:
REMARK  status: ('A' for Active; 'I' for Inactive)
REMARK    1  A    between atoms: C3_3  and  O1_4 
REMARK    2  A    between atoms: O1_4  and  C4_5 
ROOT
HETATM    1  C1  UNL     1      30.832  11.317  48.544  1.00  0.00     0.014 C 
HETATM    2  C2  UNL     1      31.832  11.475  47.862  1.00  0.00    -0.091 C 
HETATM    3  C3  UNL     1      33.040  11.680  47.042  1.00  0.00     0.268 C 
ENDROOT
BRANCH   3   4
HETATM    4  O1  UNL     1      33.252  10.640  46.124  1.00  0.00    -0.337 OA
BRANCH   4   5
HETATM    5  C4  UNL     1      33.544   9.369  46.616  1.00  0.00     0.099 A 
HETATM    6  C5  UNL     1      34.613   9.013  47.417  1.00  0.00     0.071 A 
HETATM    7  C6  UNL     1      34.588   7.676  47.728  1.00  0.00     0.075 A 
HETATM    8  N1  UNL     1      35.556   7.187  48.523  1.00  0.00    -0.241 NA
HETATM    9  C9  UNL     1      33.610   6.827  47.280  1.00  0.00     0.042 A 
HETATM   10  C7  UNL     1      35.560   5.887  48.875  1.00  0.00     0.236 A 
HETATM   11  N2  UNL     1      34.594   5.028  48.444  1.00  0.00    -0.223 NA
HETATM   12  C8  UNL     1      33.625   5.505  47.650  1.00  0.00     0.149 A 
HETATM   13  N4  UNL     1      32.640   4.556  47.304  1.00  0.00    -0.299 N 
HETATM   14  C20 UNL     1      31.390   4.922  47.676  1.00  0.00     0.017 C 
HETATM   15  H12 UNL     1      32.871   3.669  46.814  1.00  0.00     0.178 HD
HETATM   16  C19 UNL     1      30.326   5.215  47.979  1.00  0.00    -0.052 C 
HETATM   17  C18 UNL     1      29.048   5.551  48.324  1.00  0.00     0.110 C 
HETATM   18  C17 UNL     1      28.155   6.407  47.979  1.00  0.00     0.142 C 
HETATM   19  C16 UNL     1      27.763   7.492  47.163  1.00  0.00     0.057 A 
HETATM   20  F1  UNL     1      27.048   6.176  48.765  1.00  0.00    -0.204 F 
HETATM   21  C15 UNL     1      27.762   8.434  46.289  1.00  0.00     0.141 A 
HETATM   22 CL1  UNL     1      26.175   8.148  46.833  1.00  0.00    -0.169 Cl
HETATM   23  C14 UNL     1      28.384   9.325  45.364  1.00  0.00     0.004 C 
HETATM   24  C13 UNL     1      29.220   9.988  44.633  1.00  0.00     0.072 C 
HETATM   25  C12 UNL     1      30.639   9.890  44.593  1.00  0.00     0.245 C 
HETATM   26  N3  UNL     1      31.577   9.219  45.360  1.00  0.00    -0.321 N 
HETATM   27  O2  UNL     1      31.566  10.323  43.895  1.00  0.00    -0.268 OA
HETATM   28  C11 UNL     1      32.547   8.525  46.152  1.00  0.00     0.069 A 
HETATM   29  H7  UNL     1      31.023   9.022  46.188  1.00  0.00     0.169 HD
HETATM   30  C10 UNL     1      32.561   7.174  46.488  1.00  0.00     0.050 A 
ENDBRANCH   4   5
ENDBRANCH   3   4
TORSDOF 2
ENDMDL
