MODEL 1
REMARK VINA RESULT:      -8.2      0.000      0.000
REMARK  7 active torsions:
REMARK  status: ('A' for Active; 'I' for Inactive)
REMARK    1  A    between atoms: O1_2  and  C2_3 
REMARK    2  A    between atoms: C5_9  and  N4_10 
REMARK    3  A    between atoms: N4_10  and  C6_11 
REMARK    4  A    between atoms: C14_21  and  O2_22 
REMARK    5  A    between atoms: O2_22  and  C15_23 
REMARK    6  A    between atoms: C15_23  and  C16_24 
REMARK    7  A    between atoms: C16_24  and  N5_25 
ROOT
HETATM    1  C2  UNL     1      22.931   4.012  48.425  1.00  0.00     0.102 C 
HETATM    2  C3  UNL     1      23.490   5.241  48.719  1.00  0.00     0.060 C 
HETATM    3  C4  UNL     1      24.410   5.415  49.740  1.00  0.00     0.145 C 
HETATM    4  N1  UNL     1      25.727   5.204  50.013  1.00  0.00    -0.143 NA
HETATM    5  N2  UNL     1      26.305   4.209  49.349  1.00  0.00    -0.042 NA
HETATM    6  N3  UNL     1      26.260   2.974  49.813  1.00  0.00    -0.112 NA
HETATM    7  C5  UNL     1      25.843   2.728  51.052  1.00  0.00     0.151 C 
HETATM    8  C12 UNL     1      24.525   2.325  51.241  1.00  0.00     0.055 C 
HETATM    9  C13 UNL     1      23.577   2.697  50.311  1.00  0.00     0.043 C 
HETATM   10  C14 UNL     1      22.625   3.085  49.395  1.00  0.00     0.102 C 
ENDROOT
BRANCH   7  11
HETATM   11  N4  UNL     1      26.582   2.822  52.264  1.00  0.00    -0.340 N 
HETATM   12  H6  UNL     1      26.625   3.655  52.892  1.00  0.00     0.167 HD
BRANCH  11  13
HETATM   13  C6  UNL     1      27.337   1.690  52.672  1.00  0.00     0.035 A 
HETATM   14  C7  UNL     1      28.541   1.779  53.339  1.00  0.00     0.032 A 
HETATM   15  C8  UNL     1      29.285   0.687  53.742  1.00  0.00     0.046 A 
HETATM   16  C9  UNL     1      28.801  -0.583  53.464  1.00  0.00     0.138 A 
HETATM   17  F1  UNL     1      29.462  -1.716  53.821  1.00  0.00    -0.204 F 
HETATM   18  C10 UNL     1      27.619  -0.734  52.809  1.00  0.00     0.074 A 
HETATM   19 CL1  UNL     1      26.965  -2.313  52.434  1.00  0.00    -0.081 Cl
HETATM   20  C11 UNL     1      26.908   0.390  52.423  1.00  0.00     0.056 A 
ENDBRANCH  11  13
ENDBRANCH   7  11
BRANCH  10  21
HETATM   21  O2  UNL     1      21.348   2.545  49.443  1.00  0.00    -0.347 OA
BRANCH  21  22
HETATM   22  C15 UNL     1      21.086   1.181  49.576  1.00  0.00     0.206 C 
BRANCH  22  23
HETATM   23  C16 UNL     1      19.956   1.029  50.569  1.00  0.00     0.299 C 
BRANCH  23  24
HETATM   24  N5  UNL     1      20.207  -0.047  51.512  1.00  0.00     0.093 N 
HETATM   25  C17 UNL     1      21.493   0.179  52.105  1.00  0.00     0.302 C 
HETATM   26  C18 UNL     1      21.275   0.602  53.544  1.00  0.00     0.302 C 
HETATM   27  N6  UNL     1      20.714  -0.525  54.244  1.00  0.00     0.087 N 
HETATM   28  C19 UNL     1      21.602  -1.663  54.056  1.00  0.00     0.310 C 
HETATM   29  C20 UNL     1      19.419  -0.852  53.695  1.00  0.00     0.302 C 
HETATM   30  C21 UNL     1      19.108  -0.109  52.421  1.00  0.00     0.302 C 
ENDBRANCH  23  24
ENDBRANCH  22  23
ENDBRANCH  21  22
ENDBRANCH  10  21
BRANCH   1  31
HETATM   31  O1  UNL     1      22.621   3.580  47.141  1.00  0.00    -0.353 OA
HETATM   32  C1  UNL     1      21.815   4.292  46.250  1.00  0.00     0.210 C 
ENDBRANCH   1  31
TORSDOF 7
ENDMDL
MODEL 2
REMARK VINA RESULT:      -8.0      5.037      8.670
REMARK  7 active torsions:
REMARK  status: ('A' for Active; 'I' for Inactive)
REMARK    1  A    between atoms: O1_2  and  C2_3 
REMARK    2  A    between atoms: C5_9  and  N4_10 
REMARK    3  A    between atoms: N4_10  and  C6_11 
REMARK    4  A    between atoms: C14_21  and  O2_22 
REMARK    5  A    between atoms: O2_22  and  C15_23 
REMARK    6  A    between atoms: C15_23  and  C16_24 
REMARK    7  A    between atoms: C16_24  and  N5_25 
ROOT
HETATM    1  C2  UNL     1      26.842   7.457  48.467  1.00  0.00     0.102 C 
HETATM    2  C3  UNL     1      25.537   7.606  48.038  1.00  0.00     0.060 C 
HETATM    3  C4  UNL     1      24.594   6.599  48.159  1.00  0.00     0.145 C 
HETATM    4  N1  UNL     1      23.792   6.018  49.095  1.00  0.00    -0.143 NA
HETATM    5  N2  UNL     1      24.227   6.080  50.349  1.00  0.00    -0.042 NA
HETATM    6  N3  UNL     1      25.043   5.158  50.826  1.00  0.00    -0.112 NA
HETATM    7  C5  UNL     1      25.267   4.034  50.150  1.00  0.00     0.151 C 
HETATM    8  C12 UNL     1      26.415   3.947  49.369  1.00  0.00     0.055 C 
HETATM    9  C13 UNL     1      26.974   5.108  48.879  1.00  0.00     0.043 C 
HETATM   10  C14 UNL     1      27.522   6.264  48.371  1.00  0.00     0.102 C 
ENDROOT
BRANCH   7  11
HETATM   11  N4  UNL     1      24.468   2.858  50.109  1.00  0.00    -0.340 N 
HETATM   12  H6  UNL     1      23.835   2.574  49.328  1.00  0.00     0.167 HD
BRANCH  11  13
HETATM   13  C6  UNL     1      24.522   1.978  51.223  1.00  0.00     0.035 A 
HETATM   14  C7  UNL     1      25.691   1.412  51.689  1.00  0.00     0.032 A 
HETATM   15  C8  UNL     1      25.760   0.556  52.771  1.00  0.00     0.046 A 
HETATM   16  C9  UNL     1      24.586   0.238  53.438  1.00  0.00     0.138 A 
HETATM   17  F1  UNL     1      24.553  -0.595  54.512  1.00  0.00    -0.204 F 
HETATM   18  C10 UNL     1      23.402   0.765  53.025  1.00  0.00     0.074 A 
HETATM   19 CL1  UNL     1      21.893   0.396  53.831  1.00  0.00    -0.081 Cl
HETATM   20  C11 UNL     1      23.382   1.619  51.934  1.00  0.00     0.056 A 
ENDBRANCH  11  13
ENDBRANCH   7  11
BRANCH  10  21
HETATM   21  O2  UNL     1      28.766   6.238  47.756  1.00  0.00    -0.347 OA
BRANCH  21  22
HETATM   22  C15 UNL     1      29.789   5.359  48.113  1.00  0.00     0.206 C 
BRANCH  22  23
HETATM   23  C16 UNL     1      30.971   6.191  48.556  1.00  0.00     0.299 C 
BRANCH  23  24
HETATM   24  N5  UNL     1      32.174   5.389  48.696  1.00  0.00     0.093 N 
HETATM   25  C17 UNL     1      32.231   4.483  47.586  1.00  0.00     0.302 C 
HETATM   26  C18 UNL     1      33.346   4.940  46.668  1.00  0.00     0.302 C 
HETATM   27  N6  UNL     1      34.587   4.766  47.377  1.00  0.00     0.087 N 
HETATM   28  C19 UNL     1      34.668   3.381  47.816  1.00  0.00     0.310 C 
HETATM   29  C20 UNL     1      34.614   5.623  48.540  1.00  0.00     0.302 C 
HETATM   30  C21 UNL     1      33.287   6.274  48.831  1.00  0.00     0.302 C 
ENDBRANCH  23  24
ENDBRANCH  22  23
ENDBRANCH  21  22
ENDBRANCH  10  21
BRANCH   1  31
HETATM   31  O1  UNL     1      27.600   8.474  49.034  1.00  0.00    -0.353 OA
HETATM   32  C1  UNL     1      27.247   9.154  50.202  1.00  0.00     0.210 C 
ENDBRANCH   1  31
TORSDOF 7
ENDMDL
MODEL 3
REMARK VINA RESULT:      -8.0      4.084      7.672
REMARK  7 active torsions:
REMARK  status: ('A' for Active; 'I' for Inactive)
REMARK    1  A    between atoms: O1_2  and  C2_3 
REMARK    2  A    between atoms: C5_9  and  N4_10 
REMARK    3  A    between atoms: N4_10  and  C6_11 
REMARK    4  A    between atoms: C14_21  and  O2_22 
REMARK    5  A    between atoms: O2_22  and  C15_23 
REMARK    6  A    between atoms: C15_23  and  C16_24 
REMARK    7  A    between atoms: C16_24  and  N5_25 
ROOT
HETATM    1  C2  UNL     1      24.608   5.674  48.971  1.00  0.00     0.102 C 
HETATM    2  C3  UNL     1      23.515   4.896  48.640  1.00  0.00     0.060 C 
HETATM    3  C4  UNL     1      23.368   3.592  49.085  1.00  0.00     0.145 C 
HETATM    4  N1  UNL     1      23.014   2.897  50.201  1.00  0.00    -0.143 NA
HETATM    5  N2  UNL     1      23.227   3.514  51.359  1.00  0.00    -0.042 NA
HETATM    6  N3  UNL     1      24.396   3.421  51.966  1.00  0.00    -0.112 NA
HETATM    7  C5  UNL     1      25.304   2.537  51.561  1.00  0.00     0.151 C 
HETATM    8  C12 UNL     1      26.325   2.971  50.723  1.00  0.00     0.055 C 
HETATM    9  C13 UNL     1      26.103   4.070  49.920  1.00  0.00     0.043 C 
HETATM   10  C14 UNL     1      25.876   5.154  49.102  1.00  0.00     0.102 C 
ENDROOT
BRANCH   7  11
HETATM   11  N4  UNL     1      25.384   1.152  51.876  1.00  0.00    -0.340 N 
HETATM   12  H6  UNL     1      24.651   0.436  51.678  1.00  0.00     0.167 HD
BRANCH  11  13
HETATM   13  C6  UNL     1      26.561   0.684  52.519  1.00  0.00     0.035 A 
HETATM   14  C7  UNL     1      27.400   1.496  53.255  1.00  0.00     0.032 A 
HETATM   15  C8  UNL     1      28.547   1.055  53.886  1.00  0.00     0.046 A 
HETATM   16  C9  UNL     1      28.887  -0.286  53.780  1.00  0.00     0.138 A 
HETATM   17  F1  UNL     1      29.995  -0.812  54.366  1.00  0.00    -0.204 F 
HETATM   18  C10 UNL     1      28.098  -1.135  53.068  1.00  0.00     0.074 A 
HETATM   19 CL1  UNL     1      28.481  -2.835  52.904  1.00  0.00    -0.081 Cl
HETATM   20  C11 UNL     1      26.957  -0.647  52.452  1.00  0.00     0.056 A 
ENDBRANCH  11  13
ENDBRANCH   7  11
BRANCH  10  21
HETATM   21  O2  UNL     1      26.924   5.733  48.401  1.00  0.00    -0.347 OA
BRANCH  21  22
HETATM   22  C15 UNL     1      28.231   5.243  48.415  1.00  0.00     0.206 C 
BRANCH  22  23
HETATM   23  C16 UNL     1      29.137   6.349  47.923  1.00  0.00     0.299 C 
BRANCH  23  24
HETATM   24  N5  UNL     1      30.445   6.296  48.552  1.00  0.00     0.093 N 
HETATM   25  C17 UNL     1      31.308   5.520  47.710  1.00  0.00     0.302 C 
HETATM   26  C18 UNL     1      32.304   6.464  47.067  1.00  0.00     0.302 C 
HETATM   27  N6  UNL     1      33.144   6.984  48.114  1.00  0.00     0.087 N 
HETATM   28  C19 UNL     1      33.725   5.857  48.830  1.00  0.00     0.310 C 
HETATM   29  C20 UNL     1      32.355   7.762  49.039  1.00  0.00     0.302 C 
HETATM   30  C21 UNL     1      30.871   7.635  48.810  1.00  0.00     0.302 C 
ENDBRANCH  23  24
ENDBRANCH  22  23
ENDBRANCH  21  22
ENDBRANCH  10  21
BRANCH   1  31
HETATM   31  O1  UNL     1      24.552   7.042  49.207  1.00  0.00    -0.353 OA
HETATM   32  C1  UNL     1      24.517   7.615  50.481  1.00  0.00     0.210 C 
ENDBRANCH   1  31
TORSDOF 7
ENDMDL
MODEL 4
REMARK VINA RESULT:      -8.0      4.165      7.738
REMARK  7 active torsions:
REMARK  status: ('A' for Active; 'I' for Inactive)
REMARK    1  A    between atoms: O1_2  and  C2_3 
REMARK    2  A    between atoms: C5_9  and  N4_10 
REMARK    3  A    between atoms: N4_10  and  C6_11 
REMARK    4  A    between atoms: C14_21  and  O2_22 
REMARK    5  A    between atoms: O2_22  and  C15_23 
REMARK    6  A    between atoms: C15_23  and  C16_24 
REMARK    7  A    between atoms: C16_24  and  N5_25 
ROOT
HETATM    1  C2  UNL     1      24.554   5.659  49.024  1.00  0.00     0.102 C 
HETATM    2  C3  UNL     1      23.459   4.895  48.669  1.00  0.00     0.060 C 
HETATM    3  C4  UNL     1      23.308   3.578  49.072  1.00  0.00     0.145 C 
HETATM    4  N1  UNL     1      22.953   2.849  50.166  1.00  0.00    -0.143 NA
HETATM    5  N2  UNL     1      23.168   3.427  51.342  1.00  0.00    -0.042 NA
HETATM    6  N3  UNL     1      24.337   3.312  51.946  1.00  0.00    -0.112 NA
HETATM    7  C5  UNL     1      25.243   2.439  51.513  1.00  0.00     0.151 C 
HETATM    8  C12 UNL     1      26.264   2.897  50.688  1.00  0.00     0.055 C 
HETATM    9  C13 UNL     1      26.045   4.022  49.921  1.00  0.00     0.043 C 
HETATM   10  C14 UNL     1      25.821   5.132  49.138  1.00  0.00     0.102 C 
ENDROOT
BRANCH   7  11
HETATM   11  N4  UNL     1      25.320   1.045  51.783  1.00  0.00    -0.340 N 
HETATM   12  H6  UNL     1      24.586   0.336  51.559  1.00  0.00     0.167 HD
BRANCH  11  13
HETATM   13  C6  UNL     1      26.493   0.554  52.416  1.00  0.00     0.035 A 
HETATM   14  C7  UNL     1      26.864  -0.775  52.404  1.00  0.00     0.032 A 
HETATM   15  C8  UNL     1      28.002  -1.266  53.013  1.00  0.00     0.046 A 
HETATM   16  C9  UNL     1      28.831  -0.378  53.683  1.00  0.00     0.138 A 
HETATM   17  F1  UNL     1      29.971  -0.767  54.312  1.00  0.00    -0.204 F 
HETATM   18  C10 UNL     1      28.517   0.945  53.729  1.00  0.00     0.074 A 
HETATM   19 CL1  UNL     1      29.528   2.107  54.559  1.00  0.00    -0.081 Cl
HETATM   20  C11 UNL     1      27.365   1.392  53.103  1.00  0.00     0.056 A 
ENDBRANCH  11  13
ENDBRANCH   7  11
BRANCH  10  21
HETATM   21  O2  UNL     1      26.870   5.730  48.455  1.00  0.00    -0.347 OA
BRANCH  21  22
HETATM   22  C15 UNL     1      28.172   5.229  48.441  1.00  0.00     0.206 C 
BRANCH  22  23
HETATM   23  C16 UNL     1      29.083   6.340  47.969  1.00  0.00     0.299 C 
BRANCH  23  24
HETATM   24  N5  UNL     1      30.399   6.256  48.578  1.00  0.00     0.093 N 
HETATM   25  C17 UNL     1      31.238   5.484  47.709  1.00  0.00     0.302 C 
HETATM   26  C18 UNL     1      32.238   6.425  47.069  1.00  0.00     0.302 C 
HETATM   27  N6  UNL     1      33.102   6.912  48.114  1.00  0.00     0.087 N 
HETATM   28  C19 UNL     1      33.675   5.763  48.799  1.00  0.00     0.310 C 
HETATM   29  C20 UNL     1      32.337   7.684  49.065  1.00  0.00     0.302 C 
HETATM   30  C21 UNL     1      30.848   7.583  48.855  1.00  0.00     0.302 C 
ENDBRANCH  23  24
ENDBRANCH  22  23
ENDBRANCH  21  22
ENDBRANCH  10  21
BRANCH   1  31
HETATM   31  O1  UNL     1      24.502   7.019  49.304  1.00  0.00    -0.353 OA
HETATM   32  C1  UNL     1      24.463   7.550  50.595  1.00  0.00     0.210 C 
ENDBRANCH   1  31
TORSDOF 7
ENDMDL
MODEL 5
REMARK VINA RESULT:      -7.7      1.887      2.660
REMARK  7 active torsions:
REMARK  status: ('A' for Active; 'I' for Inactive)
REMARK    1  A    between atoms: O1_2  and  C2_3 
REMARK    2  A    between atoms: C5_9  and  N4_10 
REMARK    3  A    between atoms: N4_10  and  C6_11 
REMARK    4  A    between atoms: C14_21  and  O2_22 
REMARK    5  A    between atoms: O2_22  and  C15_23 
REMARK    6  A    between atoms: C15_23  and  C16_24 
REMARK    7  A    between atoms: C16_24  and  N5_25 
ROOT
HETATM    1  C2  UNL     1      21.914   5.613  48.880  1.00  0.00     0.102 C 
HETATM    2  C3  UNL     1      21.920   6.075  50.182  1.00  0.00     0.060 C 
HETATM    3  C4  UNL     1      22.877   5.687  51.106  1.00  0.00     0.145 C 
HETATM    4  N1  UNL     1      24.174   5.933  51.441  1.00  0.00    -0.143 NA
HETATM    5  N2  UNL     1      24.960   6.342  50.451  1.00  0.00    -0.042 NA
HETATM    6  N3  UNL     1      25.579   5.469  49.677  1.00  0.00    -0.112 NA
HETATM    7  C5  UNL     1      25.617   4.179  50.004  1.00  0.00     0.151 C 
HETATM    8  C12 UNL     1      24.701   3.317  49.411  1.00  0.00     0.055 C 
HETATM    9  C13 UNL     1      23.499   3.827  48.969  1.00  0.00     0.043 C 
HETATM   10  C14 UNL     1      22.289   4.331  48.546  1.00  0.00     0.102 C 
ENDROOT
BRANCH   7  11
HETATM   11  N4  UNL     1      26.498   3.527  50.911  1.00  0.00    -0.340 N 
HETATM   12  H6  UNL     1      27.509   3.750  51.048  1.00  0.00     0.167 HD
BRANCH  11  13
HETATM   13  C6  UNL     1      25.972   2.477  51.709  1.00  0.00     0.035 A 
HETATM   14  C7  UNL     1      24.896   2.633  52.559  1.00  0.00     0.032 A 
HETATM   15  C8  UNL     1      24.374   1.621  53.340  1.00  0.00     0.046 A 
HETATM   16  C9  UNL     1      24.959   0.365  53.276  1.00  0.00     0.138 A 
HETATM   17  F1  UNL     1      24.515  -0.692  54.006  1.00  0.00    -0.204 F 
HETATM   18  C10 UNL     1      26.023   0.150  52.456  1.00  0.00     0.074 A 
HETATM   19 CL1  UNL     1      26.797  -1.414  52.336  1.00  0.00    -0.081 Cl
HETATM   20  C11 UNL     1      26.513   1.196  51.690  1.00  0.00     0.056 A 
ENDBRANCH  11  13
ENDBRANCH   7  11
BRANCH  10  21
HETATM   21  O2  UNL     1      21.435   3.550  47.780  1.00  0.00    -0.347 OA
BRANCH  21  22
HETATM   22  C15 UNL     1      20.981   2.289  48.167  1.00  0.00     0.206 C 
BRANCH  22  23
HETATM   23  C16 UNL     1      19.973   2.487  49.276  1.00  0.00     0.299 C 
BRANCH  23  24
HETATM   24  N5  UNL     1      20.500   2.074  50.565  1.00  0.00     0.093 N 
HETATM   25  C17 UNL     1      19.389   1.864  51.448  1.00  0.00     0.302 C 
HETATM   26  C18 UNL     1      19.254   0.373  51.681  1.00  0.00     0.302 C 
HETATM   27  N6  UNL     1      20.420  -0.056  52.412  1.00  0.00     0.087 N 
HETATM   28  C19 UNL     1      20.525   0.758  53.614  1.00  0.00     0.310 C 
HETATM   29  C20 UNL     1      21.605   0.145  51.611  1.00  0.00     0.302 C 
HETATM   30  C21 UNL     1      21.349   0.944  50.359  1.00  0.00     0.302 C 
ENDBRANCH  23  24
ENDBRANCH  22  23
ENDBRANCH  21  22
ENDBRANCH  10  21
BRANCH   1  31
HETATM   31  O1  UNL     1      21.538   6.375  47.781  1.00  0.00    -0.353 OA
HETATM   32  C1  UNL     1      22.433   7.100  46.990  1.00  0.00     0.210 C 
ENDBRANCH   1  31
TORSDOF 7
ENDMDL
MODEL 6
REMARK VINA RESULT:      -7.6      4.754      8.610
REMARK  7 active torsions:
REMARK  status: ('A' for Active; 'I' for Inactive)
REMARK    1  A    between atoms: O1_2  and  C2_3 
REMARK    2  A    between atoms: C5_9  and  N4_10 
REMARK    3  A    between atoms: N4_10  and  C6_11 
REMARK    4  A    between atoms: C14_21  and  O2_22 
REMARK    5  A    between atoms: O2_22  and  C15_23 
REMARK    6  A    between atoms: C15_23  and  C16_24 
REMARK    7  A    between atoms: C16_24  and  N5_25 
ROOT
HETATM    1  C2  UNL     1      26.702   7.249  48.546  1.00  0.00     0.102 C 
HETATM    2  C3  UNL     1      25.386   7.385  48.149  1.00  0.00     0.060 C 
HETATM    3  C4  UNL     1      24.454   6.370  48.300  1.00  0.00     0.145 C 
HETATM    4  N1  UNL     1      23.680   5.790  49.259  1.00  0.00    -0.143 NA
HETATM    5  N2  UNL     1      24.145   5.864  50.501  1.00  0.00    -0.042 NA
HETATM    6  N3  UNL     1      24.980   4.952  50.964  1.00  0.00    -0.112 NA
HETATM    7  C5  UNL     1      25.197   3.825  50.291  1.00  0.00     0.151 C 
HETATM    8  C12 UNL     1      26.326   3.742  49.483  1.00  0.00     0.055 C 
HETATM    9  C13 UNL     1      26.864   4.904  48.971  1.00  0.00     0.043 C 
HETATM   10  C14 UNL     1      27.389   6.061  48.442  1.00  0.00     0.102 C 
ENDROOT
BRANCH   7  11
HETATM   11  N4  UNL     1      24.406   2.642  50.277  1.00  0.00    -0.340 N 
HETATM   12  H6  UNL     1      23.737   2.362  49.527  1.00  0.00     0.167 HD
BRANCH  11  13
HETATM   13  C6  UNL     1      24.525   1.751  51.377  1.00  0.00     0.035 A 
HETATM   14  C7  UNL     1      23.459   1.375  52.170  1.00  0.00     0.032 A 
HETATM   15  C8  UNL     1      23.559   0.510  53.241  1.00  0.00     0.046 A 
HETATM   16  C9  UNL     1      24.804  -0.020  53.550  1.00  0.00     0.138 A 
HETATM   17  F1  UNL     1      25.000  -0.879  54.585  1.00  0.00    -0.204 F 
HETATM   18  C10 UNL     1      25.891   0.313  52.806  1.00  0.00     0.074 A 
HETATM   19 CL1  UNL     1      27.482  -0.327  53.152  1.00  0.00    -0.081 Cl
HETATM   20  C11 UNL     1      25.743   1.186  51.739  1.00  0.00     0.056 A 
ENDBRANCH  11  13
ENDBRANCH   7  11
BRANCH  10  21
HETATM   21  O2  UNL     1      28.618   6.040  47.797  1.00  0.00    -0.347 OA
BRANCH  21  22
HETATM   22  C15 UNL     1      29.837   5.878  48.456  1.00  0.00     0.206 C 
BRANCH  22  23
HETATM   23  C16 UNL     1      30.929   6.318  47.508  1.00  0.00     0.299 C 
BRANCH  23  24
HETATM   24  N5  UNL     1      31.418   7.648  47.827  1.00  0.00     0.093 N 
HETATM   25  C17 UNL     1      31.111   8.508  46.721  1.00  0.00     0.302 C 
HETATM   26  C18 UNL     1      30.004   9.448  47.155  1.00  0.00     0.302 C 
HETATM   27  N6  UNL     1      30.544  10.306  48.178  1.00  0.00     0.087 N 
HETATM   28  C19 UNL     1      31.736  10.949  47.647  1.00  0.00     0.310 C 
HETATM   29  C20 UNL     1      30.915   9.522  49.333  1.00  0.00     0.302 C 
HETATM   30  C21 UNL     1      30.867   8.036  49.086  1.00  0.00     0.302 C 
ENDBRANCH  23  24
ENDBRANCH  22  23
ENDBRANCH  21  22
ENDBRANCH  10  21
BRANCH   1  31
HETATM   31  O1  UNL     1      27.466   8.276  49.088  1.00  0.00    -0.353 OA
HETATM   32  C1  UNL     1      27.091   9.021  50.208  1.00  0.00     0.210 C 
ENDBRANCH   1  31
TORSDOF 7
ENDMDL
MODEL 7
REMARK VINA RESULT:      -7.5      3.976      6.764
REMARK  7 active torsions:
REMARK  status: ('A' for Active; 'I' for Inactive)
REMARK    1  A    between atoms: O1_2  and  C2_3 
REMARK    2  A    between atoms: C5_9  and  N4_10 
REMARK    3  A    between atoms: N4_10  and  C6_11 
REMARK    4  A    between atoms: C14_21  and  O2_22 
REMARK    5  A    between atoms: O2_22  and  C15_23 
REMARK    6  A    between atoms: C15_23  and  C16_24 
REMARK    7  A    between atoms: C16_24  and  N5_25 
ROOT
HETATM    1  C2  UNL     1      21.541   1.590  51.829  1.00  0.00     0.102 C 
HETATM    2  C3  UNL     1      20.957   2.771  52.246  1.00  0.00     0.060 C 
HETATM    3  C4  UNL     1      21.637   3.978  52.247  1.00  0.00     0.145 C 
HETATM    4  N1  UNL     1      22.044   4.955  51.389  1.00  0.00    -0.143 NA
HETATM    5  N2  UNL     1      22.252   4.573  50.134  1.00  0.00    -0.042 NA
HETATM    6  N3  UNL     1      23.425   4.093  49.761  1.00  0.00    -0.112 NA
HETATM    7  C5  UNL     1      24.484   4.190  50.560  1.00  0.00     0.151 C 
HETATM    8  C12 UNL     1      24.831   3.091  51.339  1.00  0.00     0.055 C 
HETATM    9  C13 UNL     1      23.850   2.188  51.689  1.00  0.00     0.043 C 
HETATM   10  C14 UNL     1      22.866   1.297  52.058  1.00  0.00     0.102 C 
ENDROOT
BRANCH   7  11
HETATM   11  N4  UNL     1      25.350   5.304  50.741  1.00  0.00    -0.340 N 
HETATM   12  H6  UNL     1      25.801   5.590  51.638  1.00  0.00     0.167 HD
BRANCH  11  13
HETATM   13  C6  UNL     1      25.639   6.112  49.609  1.00  0.00     0.035 A 
HETATM   14  C7  UNL     1      24.707   6.928  49.000  1.00  0.00     0.032 A 
HETATM   15  C8  UNL     1      24.973   7.720  47.899  1.00  0.00     0.046 A 
HETATM   16  C9  UNL     1      26.253   7.700  47.364  1.00  0.00     0.138 A 
HETATM   17  F1  UNL     1      26.609   8.444  46.283  1.00  0.00    -0.204 F 
HETATM   18  C10 UNL     1      27.214   6.915  47.921  1.00  0.00     0.074 A 
HETATM   19 CL1  UNL     1      28.843   6.855  47.285  1.00  0.00    -0.081 Cl
HETATM   20  C11 UNL     1      26.900   6.138  49.025  1.00  0.00     0.056 A 
ENDBRANCH  11  13
ENDBRANCH   7  11
BRANCH  10  21
HETATM   21  O2  UNL     1      23.203   0.096  52.664  1.00  0.00    -0.347 OA
BRANCH  21  22
HETATM   22  C15 UNL     1      24.206  -0.034  53.625  1.00  0.00     0.206 C 
BRANCH  22  23
HETATM   23  C16 UNL     1      25.312  -0.868  53.020  1.00  0.00     0.299 C 
BRANCH  23  24
HETATM   24  N5  UNL     1      26.577  -0.154  52.997  1.00  0.00     0.093 N 
HETATM   25  C17 UNL     1      26.591   0.752  54.109  1.00  0.00     0.302 C 
HETATM   26  C18 UNL     1      27.579   0.222  55.129  1.00  0.00     0.302 C 
HETATM   27  N6  UNL     1      28.891   0.304  54.541  1.00  0.00     0.087 N 
HETATM   28  C19 UNL     1      29.111   1.678  54.114  1.00  0.00     0.310 C 
HETATM   29  C20 UNL     1      28.969  -0.558  53.385  1.00  0.00     0.302 C 
HETATM   30  C21 UNL     1      27.632  -1.116  52.967  1.00  0.00     0.302 C 
ENDBRANCH  23  24
ENDBRANCH  22  23
ENDBRANCH  21  22
ENDBRANCH  10  21
BRANCH   1  31
HETATM   31  O1  UNL     1      20.870   0.585  51.144  1.00  0.00    -0.353 OA
HETATM   32  C1  UNL     1      19.479   0.495  51.054  1.00  0.00     0.210 C 
ENDBRANCH   1  31
TORSDOF 7
ENDMDL
MODEL 8
REMARK VINA RESULT:      -7.4      3.445      7.252
REMARK  7 active torsions:
REMARK  status: ('A' for Active; 'I' for Inactive)
REMARK    1  A    between atoms: O1_2  and  C2_3 
REMARK    2  A    between atoms: C5_9  and  N4_10 
REMARK    3  A    between atoms: N4_10  and  C6_11 
REMARK    4  A    between atoms: C14_21  and  O2_22 
REMARK    5  A    between atoms: O2_22  and  C15_23 
REMARK    6  A    between atoms: C15_23  and  C16_24 
REMARK    7  A    between atoms: C16_24  and  N5_25 
ROOT
HETATM    1  C2  UNL     1      24.479   5.923  48.935  1.00  0.00     0.102 C 
HETATM    2  C3  UNL     1      23.341   5.173  48.707  1.00  0.00     0.060 C 
HETATM    3  C4  UNL     1      23.220   3.859  49.127  1.00  0.00     0.145 C 
HETATM    4  N1  UNL     1      22.980   3.135  50.255  1.00  0.00    -0.143 NA
HETATM    5  N2  UNL     1      23.334   3.711  51.399  1.00  0.00    -0.042 NA
HETATM    6  N3  UNL     1      24.562   3.582  51.867  1.00  0.00    -0.112 NA
HETATM    7  C5  UNL     1      25.402   2.697  51.337  1.00  0.00     0.151 C 
HETATM    8  C12 UNL     1      26.330   3.141  50.401  1.00  0.00     0.055 C 
HETATM    9  C13 UNL     1      26.040   4.268  49.661  1.00  0.00     0.043 C 
HETATM   10  C14 UNL     1      25.743   5.380  48.906  1.00  0.00     0.102 C 
ENDROOT
BRANCH   7  11
HETATM   11  N4  UNL     1      25.490   1.302  51.600  1.00  0.00    -0.340 N 
HETATM   12  H6  UNL     1      24.793   0.579  51.314  1.00  0.00     0.167 HD
BRANCH  11  13
HETATM   13  C6  UNL     1      26.624   0.831  52.316  1.00  0.00     0.035 A 
HETATM   14  C7  UNL     1      27.456   1.654  53.047  1.00  0.00     0.032 A 
HETATM   15  C8  UNL     1      28.561   1.211  53.748  1.00  0.00     0.046 A 
HETATM   16  C9  UNL     1      28.862  -0.144  53.722  1.00  0.00     0.138 A 
HETATM   17  F1  UNL     1      29.928  -0.672  54.380  1.00  0.00    -0.204 F 
HETATM   18  C10 UNL     1      28.079  -1.003  53.018  1.00  0.00     0.074 A 
HETATM   19 CL1  UNL     1      28.414  -2.719  52.952  1.00  0.00    -0.081 Cl
HETATM   20  C11 UNL     1      26.980  -0.513  52.330  1.00  0.00     0.056 A 
ENDBRANCH  11  13
ENDBRANCH   7  11
BRANCH  10  21
HETATM   21  O2  UNL     1      26.717   5.964  48.108  1.00  0.00    -0.347 OA
BRANCH  21  22
HETATM   22  C15 UNL     1      28.057   6.077  48.477  1.00  0.00     0.206 C 
BRANCH  22  23
HETATM   23  C16 UNL     1      28.730   6.990  47.477  1.00  0.00     0.299 C 
BRANCH  23  24
HETATM   24  N5  UNL     1      28.709   8.376  47.911  1.00  0.00     0.093 N 
HETATM   25  C17 UNL     1      27.930   9.122  46.966  1.00  0.00     0.302 C 
HETATM   26  C18 UNL     1      26.626   9.504  47.635  1.00  0.00     0.302 C 
HETATM   27  N6  UNL     1      26.940  10.426  48.696  1.00  0.00     0.087 N 
HETATM   28  C19 UNL     1      27.696  11.531  48.126  1.00  0.00     0.310 C 
HETATM   29  C20 UNL     1      27.755   9.772  49.693  1.00  0.00     0.302 C 
HETATM   30  C21 UNL     1      28.248   8.414  49.262  1.00  0.00     0.302 C 
ENDBRANCH  23  24
ENDBRANCH  22  23
ENDBRANCH  21  22
ENDBRANCH  10  21
BRANCH   1  31
HETATM   31  O1  UNL     1      24.476   7.284  49.215  1.00  0.00    -0.353 OA
HETATM   32  C1  UNL     1      24.634   7.818  50.496  1.00  0.00     0.210 C 
ENDBRANCH   1  31
TORSDOF 7
ENDMDL
MODEL 9
REMARK VINA RESULT:      -7.4      4.918      6.591
REMARK  7 active torsions:
REMARK  status: ('A' for Active; 'I' for Inactive)
REMARK    1  A    between atoms: O1_2  and  C2_3 
REMARK    2  A    between atoms: C5_9  and  N4_10 
REMARK    3  A    between atoms: N4_10  and  C6_11 
REMARK    4  A    between atoms: C14_21  and  O2_22 
REMARK    5  A    between atoms: O2_22  and  C15_23 
REMARK    6  A    between atoms: C15_23  and  C16_24 
REMARK    7  A    between atoms: C16_24  and  N5_25 
ROOT
HETATM    1  C2  UNL     1      24.778   5.972  49.231  1.00  0.00     0.102 C 
HETATM    2  C3  UNL     1      24.858   7.152  49.945  1.00  0.00     0.060 C 
HETATM    3  C4  UNL     1      26.021   7.900  50.019  1.00  0.00     0.145 C 
HETATM    4  N1  UNL     1      26.757   8.773  49.276  1.00  0.00    -0.143 NA
HETATM    5  N2  UNL     1      26.644   8.650  47.958  1.00  0.00    -0.042 NA
HETATM    6  N3  UNL     1      27.414   7.810  47.291  1.00  0.00    -0.112 NA
HETATM    7  C5  UNL     1      28.464   7.240  47.876  1.00  0.00     0.151 C 
HETATM    8  C12 UNL     1      28.327   5.951  48.377  1.00  0.00     0.055 C 
HETATM    9  C13 UNL     1      27.074   5.514  48.752  1.00  0.00     0.043 C 
HETATM   10  C14 UNL     1      25.827   5.083  49.148  1.00  0.00     0.102 C 
ENDROOT
BRANCH   7  11
HETATM   11  N4  UNL     1      29.764   7.785  48.072  1.00  0.00    -0.340 N 
HETATM   12  H6  UNL     1      29.987   8.790  48.241  1.00  0.00     0.167 HD
BRANCH  11  13
HETATM   13  C6  UNL     1      30.870   6.894  48.037  1.00  0.00     0.035 A 
HETATM   14  C7  UNL     1      31.579   6.517  49.159  1.00  0.00     0.032 A 
HETATM   15  C8  UNL     1      32.655   5.652  49.141  1.00  0.00     0.046 A 
HETATM   16  C9  UNL     1      33.058   5.122  47.923  1.00  0.00     0.138 A 
HETATM   17  F1  UNL     1      34.105   4.263  47.805  1.00  0.00    -0.204 F 
HETATM   18  C10 UNL     1      32.398   5.456  46.782  1.00  0.00     0.074 A 
HETATM   19 CL1  UNL     1      32.864   4.817  45.222  1.00  0.00    -0.081 Cl
HETATM   20  C11 UNL     1      31.323   6.329  46.850  1.00  0.00     0.056 A 
ENDBRANCH  11  13
ENDBRANCH   7  11
BRANCH  10  21
HETATM   21  O2  UNL     1      25.616   3.750  49.466  1.00  0.00    -0.347 OA
BRANCH  21  22
HETATM   22  C15 UNL     1      26.582   2.929  50.049  1.00  0.00     0.206 C 
BRANCH  22  23
HETATM   23  C16 UNL     1      25.997   2.373  51.327  1.00  0.00     0.299 C 
BRANCH  23  24
HETATM   24  N5  UNL     1      26.968   1.589  52.070  1.00  0.00     0.093 N 
HETATM   25  C17 UNL     1      26.992   2.080  53.418  1.00  0.00     0.302 C 
HETATM   26  C18 UNL     1      26.344   1.037  54.305  1.00  0.00     0.302 C 
HETATM   27  N6  UNL     1      27.195  -0.125  54.298  1.00  0.00     0.087 N 
HETATM   28  C19 UNL     1      28.531   0.290  54.696  1.00  0.00     0.310 C 
HETATM   29  C20 UNL     1      27.260  -0.679  52.966  1.00  0.00     0.302 C 
HETATM   30  C21 UNL     1      26.636   0.208  51.920  1.00  0.00     0.302 C 
ENDBRANCH  23  24
ENDBRANCH  22  23
ENDBRANCH  21  22
ENDBRANCH  10  21
BRANCH   1  31
HETATM   31  O1  UNL     1      23.654   5.556  48.529  1.00  0.00    -0.353 OA
HETATM   32  C1  UNL     1      23.114   6.246  47.441  1.00  0.00     0.210 C 
ENDBRANCH   1  31
TORSDOF 7
ENDMDL
