MODEL 1
REMARK VINA RESULT:      -7.7      0.000      0.000
REMARK  5 active torsions:
REMARK  status: ('A' for Active; 'I' for Inactive)
REMARK    1  A    between atoms: O1_2  and  C2_3 
REMARK    2  A    between atoms: C7_9  and  C8_10 
REMARK    3  A    between atoms: C8_10  and  N2_11 
REMARK    4  A    between atoms: C8_10  and  N3_14 
REMARK    5  A    between atoms: N3_14  and  C10_15 
ROOT
HETATM    1  C8  UNL     1      25.345   0.980  53.295  1.00  0.00     0.261 C 
ENDROOT
BRANCH   1   2
HETATM    2  C7  UNL     1      26.772   0.810  53.513  1.00  0.00     0.111 A 
HETATM    3  C2  UNL     1      27.660  -0.226  53.606  1.00  0.00     0.102 A 
HETATM    4  C3  UNL     1      29.016  -0.092  53.768  1.00  0.00    -0.025 A 
HETATM    5  C4  UNL     1      29.850  -1.309  53.851  1.00  0.00     0.051 C 
HETATM    6  C5  UNL     1      29.528   1.183  53.843  1.00  0.00     0.029 A 
HETATM    7  C6  UNL     1      28.659   2.247  53.753  1.00  0.00     0.117 A 
HETATM    8  N1  UNL     1      27.347   2.033  53.596  1.00  0.00    -0.259 NA
BRANCH   3   9
HETATM    9  O1  UNL     1      27.141  -1.508  53.536  1.00  0.00    -0.353 OA
HETATM   10  C1  UNL     1      26.890  -1.983  52.192  1.00  0.00     0.210 C 
ENDBRANCH   3   9
ENDBRANCH   1   2
BRANCH   1  11
HETATM   11  N2  UNL     1      24.911   2.365  53.471  1.00  0.00    -0.268 N 
HETATM   12  C9  UNL     1      24.582   3.011  52.405  1.00  0.00     0.132 A 
HETATM   13  O2  UNL     1      24.467   3.751  53.556  1.00  0.00     0.000 OA
HETATM   14  H11 UNL     1      24.148   4.714  53.567  1.00  0.00     0.000 HD
ENDBRANCH   1  11
BRANCH   1  15
HETATM   15  N3  UNL     1      24.466   0.029  53.898  1.00  0.00    -0.362 N 
HETATM   16  H12 UNL     1      24.731  -0.688  54.588  1.00  0.00     0.162 HD
BRANCH  15  17
HETATM   17  C10 UNL     1      23.080  -0.068  53.606  1.00  0.00     0.030 A 
HETATM   18  C11 UNL     1      22.123  -0.502  54.511  1.00  0.00     0.029 A 
HETATM   19  C12 UNL     1      20.786  -0.617  54.266  1.00  0.00     0.003 A 
HETATM   20  C13 UNL     1      20.312  -0.282  53.029  1.00  0.00     0.007 A 
HETATM   21  C14 UNL     1      21.179   0.154  52.075  1.00  0.00    -0.060 A 
HETATM   22  C15 UNL     1      20.627   0.507  50.747  1.00  0.00     0.048 C 
HETATM   23  C16 UNL     1      22.516   0.247  52.388  1.00  0.00     0.036 A 
ENDBRANCH  15  17
ENDBRANCH   1  15
TORSDOF 5
ENDMDL
MODEL 2
REMARK VINA RESULT:      -7.6      1.690      2.338
REMARK  5 active torsions:
REMARK  status: ('A' for Active; 'I' for Inactive)
REMARK    1  A    between atoms: O1_2  and  C2_3 
REMARK    2  A    between atoms: C7_9  and  C8_10 
REMARK    3  A    between atoms: C8_10  and  N2_11 
REMARK    4  A    between atoms: C8_10  and  N3_14 
REMARK    5  A    between atoms: N3_14  and  C10_15 
ROOT
HETATM    1  C8  UNL     1      26.233   2.005  51.773  1.00  0.00     0.261 C 
ENDROOT
BRANCH   1   2
HETATM    2  C7  UNL     1      27.301   1.423  52.568  1.00  0.00     0.111 A 
HETATM    3  C2  UNL     1      27.850   0.185  52.767  1.00  0.00     0.102 A 
HETATM    4  C3  UNL     1      28.932  -0.080  53.566  1.00  0.00    -0.025 A 
HETATM    5  C4  UNL     1      29.413  -1.472  53.681  1.00  0.00     0.051 C 
HETATM    6  C5  UNL     1      29.517   0.979  54.223  1.00  0.00     0.029 A 
HETATM    7  C6  UNL     1      28.988   2.237  54.044  1.00  0.00     0.117 A 
HETATM    8  N1  UNL     1      27.927   2.414  53.245  1.00  0.00    -0.259 NA
BRANCH   3   9
HETATM    9  O1  UNL     1      27.256  -0.879  52.108  1.00  0.00    -0.353 OA
HETATM   10  C1  UNL     1      26.151  -1.486  52.818  1.00  0.00     0.210 C 
ENDBRANCH   3   9
ENDBRANCH   1   2
BRANCH   1  11
HETATM   11  N2  UNL     1      26.705   3.070  50.891  1.00  0.00    -0.268 N 
HETATM   12  C9  UNL     1      26.005   3.304  49.834  1.00  0.00     0.132 A 
HETATM   13  O2  UNL     1      27.106   4.115  49.956  1.00  0.00     0.000 OA
HETATM   14  H11 UNL     1      27.342   4.834  49.281  1.00  0.00     0.000 HD
ENDBRANCH   1  11
BRANCH   1  15
HETATM   15  N3  UNL     1      25.010   2.321  52.441  1.00  0.00    -0.362 N 
HETATM   16  H12 UNL     1      24.853   3.119  53.072  1.00  0.00     0.162 HD
BRANCH  15  17
HETATM   17  C10 UNL     1      23.824   1.548  52.333  1.00  0.00     0.030 A 
HETATM   18  C11 UNL     1      22.979   1.568  51.234  1.00  0.00     0.029 A 
HETATM   19  C12 UNL     1      21.828   0.848  51.097  1.00  0.00     0.003 A 
HETATM   20  C13 UNL     1      21.444   0.022  52.116  1.00  0.00     0.007 A 
HETATM   21  C14 UNL     1      22.211  -0.062  53.237  1.00  0.00    -0.060 A 
HETATM   22  C15 UNL     1      21.761  -0.968  54.318  1.00  0.00     0.048 C 
HETATM   23  C16 UNL     1      23.361   0.692  53.310  1.00  0.00     0.036 A 
ENDBRANCH  15  17
ENDBRANCH   1  15
TORSDOF 5
ENDMDL
MODEL 3
REMARK VINA RESULT:      -7.6      2.414      4.770
REMARK  5 active torsions:
REMARK  status: ('A' for Active; 'I' for Inactive)
REMARK    1  A    between atoms: O1_2  and  C2_3 
REMARK    2  A    between atoms: C7_9  and  C8_10 
REMARK    3  A    between atoms: C8_10  and  N2_11 
REMARK    4  A    between atoms: C8_10  and  N3_14 
REMARK    5  A    between atoms: N3_14  and  C10_15 
ROOT
HETATM    1  C8  UNL     1      26.153   1.739  52.288  1.00  0.00     0.261 C 
ENDROOT
BRANCH   1   2
HETATM    2  C7  UNL     1      25.730   2.580  51.181  1.00  0.00     0.111 A 
HETATM    3  C2  UNL     1      24.552   2.965  50.601  1.00  0.00     0.102 A 
HETATM    4  C3  UNL     1      24.437   3.849  49.558  1.00  0.00    -0.025 A 
HETATM    5  C4  UNL     1      23.092   4.169  49.037  1.00  0.00     0.051 C 
HETATM    6  C5  UNL     1      25.595   4.394  49.050  1.00  0.00     0.029 A 
HETATM    7  C6  UNL     1      26.797   4.026  49.612  1.00  0.00     0.117 A 
HETATM    8  N1  UNL     1      26.825   3.155  50.630  1.00  0.00    -0.259 NA
BRANCH   3   9
HETATM    9  O1  UNL     1      23.390   2.411  51.111  1.00  0.00    -0.353 OA
HETATM   10  C1  UNL     1      22.859   3.088  52.274  1.00  0.00     0.210 C 
ENDBRANCH   3   9
ENDBRANCH   1   2
BRANCH   1  11
HETATM   11  N2  UNL     1      27.582   1.861  52.572  1.00  0.00    -0.268 N 
HETATM   12  C9  UNL     1      27.911   2.159  53.783  1.00  0.00     0.132 A 
HETATM   13  O2  UNL     1      28.984   2.004  52.942  1.00  0.00     0.000 OA
HETATM   14  H11 UNL     1      29.947   2.108  53.247  1.00  0.00     0.000 HD
ENDBRANCH   1  11
BRANCH   1  15
HETATM   15  N3  UNL     1      25.684   0.390  52.309  1.00  0.00    -0.362 N 
HETATM   16  H12 UNL     1      25.838  -0.317  51.578  1.00  0.00     0.162 HD
BRANCH  15  17
HETATM   17  C10 UNL     1      24.907  -0.164  53.361  1.00  0.00     0.030 A 
HETATM   18  C11 UNL     1      25.426  -0.568  54.582  1.00  0.00     0.029 A 
HETATM   19  C12 UNL     1      24.716  -1.111  55.612  1.00  0.00     0.003 A 
HETATM   20  C13 UNL     1      23.369  -1.287  55.462  1.00  0.00     0.007 A 
HETATM   21  C14 UNL     1      22.771  -0.919  54.296  1.00  0.00    -0.060 A 
HETATM   22  C15 UNL     1      21.310  -1.125  54.172  1.00  0.00     0.048 C 
HETATM   23  C16 UNL     1      23.547  -0.377  53.296  1.00  0.00     0.036 A 
ENDBRANCH  15  17
ENDBRANCH   1  15
TORSDOF 5
ENDMDL
MODEL 4
REMARK VINA RESULT:      -7.6      2.385      4.056
REMARK  5 active torsions:
REMARK  status: ('A' for Active; 'I' for Inactive)
REMARK    1  A    between atoms: O1_2  and  C2_3 
REMARK    2  A    between atoms: C7_9  and  C8_10 
REMARK    3  A    between atoms: C8_10  and  N2_11 
REMARK    4  A    between atoms: C8_10  and  N3_14 
REMARK    5  A    between atoms: N3_14  and  C10_15 
ROOT
HETATM    1  C8  UNL     1      25.333  -0.051  54.014  1.00  0.00     0.261 C 
ENDROOT
BRANCH   1   2
HETATM    2  C7  UNL     1      26.668  -0.536  53.708  1.00  0.00     0.111 A 
HETATM    3  C2  UNL     1      27.959  -0.118  53.889  1.00  0.00     0.102 A 
HETATM    4  C3  UNL     1      29.077  -0.829  53.535  1.00  0.00    -0.025 A 
HETATM    5  C4  UNL     1      30.409  -0.246  53.795  1.00  0.00     0.051 C 
HETATM    6  C5  UNL     1      28.892  -2.062  52.950  1.00  0.00     0.029 A 
HETATM    7  C6  UNL     1      27.605  -2.511  52.754  1.00  0.00     0.117 A 
HETATM    8  N1  UNL     1      26.565  -1.755  53.128  1.00  0.00    -0.259 NA
BRANCH   3   9
HETATM    9  O1  UNL     1      28.141   1.124  54.473  1.00  0.00    -0.353 OA
HETATM   10  C1  UNL     1      28.142   2.233  53.543  1.00  0.00     0.210 C 
ENDBRANCH   3   9
ENDBRANCH   1   2
BRANCH   1  11
HETATM   11  N2  UNL     1      24.643  -0.885  54.996  1.00  0.00    -0.268 N 
HETATM   12  C9  UNL     1      23.373  -1.040  54.839  1.00  0.00     0.132 A 
HETATM   13  O2  UNL     1      23.878  -1.701  55.931  1.00  0.00     0.000 OA
HETATM   14  H11 UNL     1      23.305  -2.263  56.552  1.00  0.00     0.000 HD
ENDBRANCH   1  11
BRANCH   1  15
HETATM   15  N3  UNL     1      24.504   0.338  52.918  1.00  0.00    -0.362 N 
HETATM   16  H12 UNL     1      23.806  -0.253  52.446  1.00  0.00     0.162 HD
BRANCH  15  17
HETATM   17  C10 UNL     1      24.546   1.619  52.306  1.00  0.00     0.030 A 
HETATM   18  C11 UNL     1      23.723   2.677  52.659  1.00  0.00     0.029 A 
HETATM   19  C12 UNL     1      23.727   3.918  52.091  1.00  0.00     0.003 A 
HETATM   20  C13 UNL     1      24.609   4.175  51.080  1.00  0.00     0.007 A 
HETATM   21  C14 UNL     1      25.458   3.195  50.665  1.00  0.00    -0.060 A 
HETATM   22  C15 UNL     1      26.399   3.514  49.567  1.00  0.00     0.048 C 
HETATM   23  C16 UNL     1      25.401   1.966  51.281  1.00  0.00     0.036 A 
ENDBRANCH  15  17
ENDBRANCH   1  15
TORSDOF 5
ENDMDL
MODEL 5
REMARK VINA RESULT:      -7.5      1.732      2.848
REMARK  5 active torsions:
REMARK  status: ('A' for Active; 'I' for Inactive)
REMARK    1  A    between atoms: O1_2  and  C2_3 
REMARK    2  A    between atoms: C7_9  and  C8_10 
REMARK    3  A    between atoms: C8_10  and  N2_11 
REMARK    4  A    between atoms: C8_10  and  N3_14 
REMARK    5  A    between atoms: N3_14  and  C10_15 
ROOT
HETATM    1  C8  UNL     1      25.958   1.225  51.890  1.00  0.00     0.261 C 
ENDROOT
BRANCH   1   2
HETATM    2  C7  UNL     1      26.911   0.220  52.329  1.00  0.00     0.111 A 
HETATM    3  C2  UNL     1      28.167   0.192  52.873  1.00  0.00     0.102 A 
HETATM    4  C3  UNL     1      28.836  -0.942  53.256  1.00  0.00    -0.025 A 
HETATM    5  C4  UNL     1      30.191  -0.814  53.832  1.00  0.00     0.051 C 
HETATM    6  C5  UNL     1      28.199  -2.151  53.082  1.00  0.00     0.029 A 
HETATM    7  C6  UNL     1      26.936  -2.155  52.536  1.00  0.00     0.117 A 
HETATM    8  N1  UNL     1      26.349  -1.003  52.187  1.00  0.00    -0.259 NA
BRANCH   3   9
HETATM    9  O1  UNL     1      28.806   1.409  53.043  1.00  0.00    -0.353 OA
HETATM   10  C1  UNL     1      28.459   2.107  54.261  1.00  0.00     0.210 C 
ENDBRANCH   3   9
ENDBRANCH   1   2
BRANCH   1  11
HETATM   11  N2  UNL     1      26.604   2.384  51.278  1.00  0.00    -0.268 N 
HETATM   12  C9  UNL     1      25.835   3.244  50.703  1.00  0.00     0.132 A 
HETATM   13  O2  UNL     1      27.168   3.568  50.642  1.00  0.00     0.000 OA
HETATM   14  H11 UNL     1      27.513   4.410  50.191  1.00  0.00     0.000 HD
ENDBRANCH   1  11
BRANCH   1  15
HETATM   15  N3  UNL     1      24.903   1.572  52.788  1.00  0.00    -0.362 N 
HETATM   16  H12 UNL     1      24.957   2.263  53.549  1.00  0.00     0.162 HD
BRANCH  15  17
HETATM   17  C10 UNL     1      23.611   0.983  52.760  1.00  0.00     0.030 A 
HETATM   18  C11 UNL     1      22.614   1.336  51.864  1.00  0.00     0.029 A 
HETATM   19  C12 UNL     1      21.360   0.801  51.812  1.00  0.00     0.003 A 
HETATM   20  C13 UNL     1      21.022  -0.173  52.708  1.00  0.00     0.007 A 
HETATM   21  C14 UNL     1      21.937  -0.584  53.628  1.00  0.00    -0.060 A 
HETATM   22  C15 UNL     1      21.533  -1.642  54.582  1.00  0.00     0.048 C 
HETATM   23  C16 UNL     1      23.185  -0.002  53.626  1.00  0.00     0.036 A 
ENDBRANCH  15  17
ENDBRANCH   1  15
TORSDOF 5
ENDMDL
MODEL 6
REMARK VINA RESULT:      -7.5      1.608      5.970
REMARK  5 active torsions:
REMARK  status: ('A' for Active; 'I' for Inactive)
REMARK    1  A    between atoms: O1_2  and  C2_3 
REMARK    2  A    between atoms: C7_9  and  C8_10 
REMARK    3  A    between atoms: C8_10  and  N2_11 
REMARK    4  A    between atoms: C8_10  and  N3_14 
REMARK    5  A    between atoms: N3_14  and  C10_15 
ROOT
HETATM    1  C8  UNL     1      24.806   1.885  52.635  1.00  0.00     0.261 C 
ENDROOT
BRANCH   1   2
HETATM    2  C7  UNL     1      23.547   1.224  52.935  1.00  0.00     0.111 A 
HETATM    3  C2  UNL     1      23.136   0.016  53.429  1.00  0.00     0.102 A 
HETATM    4  C3  UNL     1      21.833  -0.337  53.670  1.00  0.00    -0.025 A 
HETATM    5  C4  UNL     1      21.543  -1.683  54.207  1.00  0.00     0.051 C 
HETATM    6  C5  UNL     1      20.856   0.594  53.395  1.00  0.00     0.029 A 
HETATM    7  C6  UNL     1      21.238   1.819  52.897  1.00  0.00     0.117 A 
HETATM    8  N1  UNL     1      22.534   2.087  52.688  1.00  0.00    -0.259 NA
BRANCH   3   9
HETATM    9  O1  UNL     1      24.120  -0.920  53.699  1.00  0.00    -0.353 OA
HETATM   10  C1  UNL     1      24.677  -0.842  55.032  1.00  0.00     0.210 C 
ENDBRANCH   3   9
ENDBRANCH   1   2
BRANCH   1  11
HETATM   11  N2  UNL     1      24.619   3.171  51.966  1.00  0.00    -0.268 N 
HETATM   12  C9  UNL     1      25.234   3.340  50.846  1.00  0.00     0.132 A 
HETATM   13  O2  UNL     1      24.488   4.425  51.234  1.00  0.00     0.000 OA
HETATM   14  H11 UNL     1      24.423   5.277  50.686  1.00  0.00     0.000 HD
ENDBRANCH   1  11
BRANCH   1  15
HETATM   15  N3  UNL     1      25.848   1.094  52.062  1.00  0.00    -0.362 N 
HETATM   16  H12 UNL     1      25.823   0.634  51.141  1.00  0.00     0.162 HD
BRANCH  15  17
HETATM   17  C10 UNL     1      27.080   0.814  52.710  1.00  0.00     0.030 A 
HETATM   18  C11 UNL     1      27.865   1.771  53.334  1.00  0.00     0.029 A 
HETATM   19  C12 UNL     1      29.057   1.545  53.959  1.00  0.00     0.003 A 
HETATM   20  C13 UNL     1      29.551   0.271  53.991  1.00  0.00     0.007 A 
HETATM   21  C14 UNL     1      28.849  -0.736  53.401  1.00  0.00    -0.060 A 
HETATM   22  C15 UNL     1      29.417  -2.102  53.457  1.00  0.00     0.048 C 
HETATM   23  C16 UNL     1      27.653  -0.438  52.788  1.00  0.00     0.036 A 
ENDBRANCH  15  17
ENDBRANCH   1  15
TORSDOF 5
ENDMDL
MODEL 7
REMARK VINA RESULT:      -7.4      1.805      6.218
REMARK  5 active torsions:
REMARK  status: ('A' for Active; 'I' for Inactive)
REMARK    1  A    between atoms: O1_2  and  C2_3 
REMARK    2  A    between atoms: C7_9  and  C8_10 
REMARK    3  A    between atoms: C8_10  and  N2_11 
REMARK    4  A    between atoms: C8_10  and  N3_14 
REMARK    5  A    between atoms: N3_14  and  C10_15 
ROOT
HETATM    1  C8  UNL     1      24.480   0.986  53.229  1.00  0.00     0.261 C 
ENDROOT
BRANCH   1   2
HETATM    2  C7  UNL     1      23.189   0.350  53.426  1.00  0.00     0.111 A 
HETATM    3  C2  UNL     1      21.921   0.468  52.924  1.00  0.00     0.102 A 
HETATM    4  C3  UNL     1      20.859  -0.332  53.265  1.00  0.00    -0.025 A 
HETATM    5  C4  UNL     1      19.546  -0.084  52.636  1.00  0.00     0.051 C 
HETATM    6  C5  UNL     1      21.082  -1.333  54.183  1.00  0.00     0.029 A 
HETATM    7  C6  UNL     1      22.347  -1.476  54.707  1.00  0.00     0.117 A 
HETATM    8  N1  UNL     1      23.331  -0.653  54.323  1.00  0.00    -0.259 NA
BRANCH   3   9
HETATM    9  O1  UNL     1      21.700   1.479  52.005  1.00  0.00    -0.353 OA
HETATM   10  C1  UNL     1      22.044   1.139  50.641  1.00  0.00     0.210 C 
ENDBRANCH   3   9
ENDBRANCH   1   2
BRANCH   1  11
HETATM   11  N2  UNL     1      24.386   2.443  53.169  1.00  0.00    -0.268 N 
HETATM   12  C9  UNL     1      24.891   3.017  52.131  1.00  0.00     0.132 A 
HETATM   13  O2  UNL     1      24.336   3.893  53.030  1.00  0.00     0.000 OA
HETATM   14  H11 UNL     1      24.320   4.898  52.886  1.00  0.00     0.000 HD
ENDBRANCH   1  11
BRANCH   1  15
HETATM   15  N3  UNL     1      25.345   0.432  52.236  1.00  0.00    -0.362 N 
HETATM   16  H12 UNL     1      25.237   0.525  51.217  1.00  0.00     0.162 HD
BRANCH  15  17
HETATM   17  C10 UNL     1      26.489  -0.357  52.531  1.00  0.00     0.030 A 
HETATM   18  C11 UNL     1      26.525  -1.740  52.436  1.00  0.00     0.029 A 
HETATM   19  C12 UNL     1      27.599  -2.533  52.718  1.00  0.00     0.003 A 
HETATM   20  C13 UNL     1      28.760  -1.944  53.133  1.00  0.00     0.007 A 
HETATM   21  C14 UNL     1      28.819  -0.589  53.257  1.00  0.00    -0.060 A 
HETATM   22  C15 UNL     1      30.095   0.011  53.709  1.00  0.00     0.048 C 
HETATM   23  C16 UNL     1      27.698   0.151  52.956  1.00  0.00     0.036 A 
ENDBRANCH  15  17
ENDBRANCH   1  15
TORSDOF 5
ENDMDL
MODEL 8
REMARK VINA RESULT:      -7.3      1.916      3.968
REMARK  5 active torsions:
REMARK  status: ('A' for Active; 'I' for Inactive)
REMARK    1  A    between atoms: O1_2  and  C2_3 
REMARK    2  A    between atoms: C7_9  and  C8_10 
REMARK    3  A    between atoms: C8_10  and  N2_11 
REMARK    4  A    between atoms: C8_10  and  N3_14 
REMARK    5  A    between atoms: N3_14  and  C10_15 
ROOT
HETATM    1  C8  UNL     1      25.347   0.969  53.335  1.00  0.00     0.261 C 
ENDROOT
BRANCH   1   2
HETATM    2  C7  UNL     1      26.773   0.806  53.560  1.00  0.00     0.111 A 
HETATM    3  C2  UNL     1      27.671  -0.224  53.633  1.00  0.00     0.102 A 
HETATM    4  C3  UNL     1      29.024  -0.081  53.810  1.00  0.00    -0.025 A 
HETATM    5  C4  UNL     1      29.870  -1.292  53.867  1.00  0.00     0.051 C 
HETATM    6  C5  UNL     1      29.523   1.197  53.924  1.00  0.00     0.029 A 
HETATM    7  C6  UNL     1      28.645   2.254  53.857  1.00  0.00     0.117 A 
HETATM    8  N1  UNL     1      27.336   2.032  53.682  1.00  0.00    -0.259 NA
BRANCH   3   9
HETATM    9  O1  UNL     1      27.165  -1.508  53.522  1.00  0.00    -0.353 OA
HETATM   10  C1  UNL     1      26.911  -1.941  52.165  1.00  0.00     0.210 C 
ENDBRANCH   3   9
ENDBRANCH   1   2
BRANCH   1  11
HETATM   11  N2  UNL     1      24.548  -0.017  54.059  1.00  0.00    -0.268 N 
HETATM   12  C9  UNL     1      23.456  -0.409  53.496  1.00  0.00     0.132 A 
HETATM   13  O2  UNL     1      23.691  -0.998  54.714  1.00  0.00     0.000 OA
HETATM   14  H11 UNL     1      23.065  -1.681  55.128  1.00  0.00     0.000 HD
ENDBRANCH   1  11
BRANCH   1  15
HETATM   15  N3  UNL     1      24.910   1.177  51.991  1.00  0.00    -0.362 N 
HETATM   16  H12 UNL     1      24.523   0.461  51.362  1.00  0.00     0.162 HD
BRANCH  15  17
HETATM   17  C10 UNL     1      24.969   2.428  51.321  1.00  0.00     0.030 A 
HETATM   18  C11 UNL     1      23.984   3.400  51.400  1.00  0.00     0.029 A 
HETATM   19  C12 UNL     1      24.001   4.608  50.766  1.00  0.00     0.003 A 
HETATM   20  C13 UNL     1      25.069   4.921  49.975  1.00  0.00     0.007 A 
HETATM   21  C14 UNL     1      26.086   4.027  49.836  1.00  0.00    -0.060 A 
HETATM   22  C15 UNL     1      27.226   4.403  48.970  1.00  0.00     0.048 C 
HETATM   23  C16 UNL     1      26.006   2.825  50.503  1.00  0.00     0.036 A 
ENDBRANCH  15  17
ENDBRANCH   1  15
TORSDOF 5
ENDMDL
MODEL 9
REMARK VINA RESULT:      -7.3      2.059      3.548
REMARK  5 active torsions:
REMARK  status: ('A' for Active; 'I' for Inactive)
REMARK    1  A    between atoms: O1_2  and  C2_3 
REMARK    2  A    between atoms: C7_9  and  C8_10 
REMARK    3  A    between atoms: C8_10  and  N2_11 
REMARK    4  A    between atoms: C8_10  and  N3_14 
REMARK    5  A    between atoms: N3_14  and  C10_15 
ROOT
HETATM    1  C8  UNL     1      24.927  -0.181  54.073  1.00  0.00     0.261 C 
ENDROOT
BRANCH   1   2
HETATM    2  C7  UNL     1      26.279  -0.581  53.723  1.00  0.00     0.111 A 
HETATM    3  C2  UNL     1      27.549  -0.103  53.898  1.00  0.00     0.102 A 
HETATM    4  C3  UNL     1      28.696  -0.739  53.494  1.00  0.00    -0.025 A 
HETATM    5  C4  UNL     1      30.000  -0.097  53.755  1.00  0.00     0.051 C 
HETATM    6  C5  UNL     1      28.564  -1.955  52.862  1.00  0.00     0.029 A 
HETATM    7  C6  UNL     1      27.298  -2.463  52.670  1.00  0.00     0.117 A 
HETATM    8  N1  UNL     1      26.228  -1.779  53.094  1.00  0.00    -0.259 NA
BRANCH   3   9
HETATM    9  O1  UNL     1      27.678   1.122  54.530  1.00  0.00    -0.353 OA
HETATM   10  C1  UNL     1      27.723   2.260  53.637  1.00  0.00     0.210 C 
ENDBRANCH   3   9
ENDBRANCH   1   2
BRANCH   1  11
HETATM   11  N2  UNL     1      24.333  -1.040  55.095  1.00  0.00    -0.268 N 
HETATM   12  C9  UNL     1      23.050  -1.165  55.078  1.00  0.00     0.132 A 
HETATM   13  O2  UNL     1      23.660  -1.877  56.081  1.00  0.00     0.000 OA
HETATM   14  H11 UNL     1      23.148  -2.452  56.742  1.00  0.00     0.000 HD
ENDBRANCH   1  11
BRANCH   1  15
HETATM   15  N3  UNL     1      24.032   0.130  53.004  1.00  0.00    -0.362 N 
HETATM   16  H12 UNL     1      23.686  -0.528  52.292  1.00  0.00     0.162 HD
BRANCH  15  17
HETATM   17  C10 UNL     1      23.501   1.425  52.764  1.00  0.00     0.030 A 
HETATM   18  C11 UNL     1      24.255   2.589  52.773  1.00  0.00     0.029 A 
HETATM   19  C12 UNL     1      23.781   3.850  52.557  1.00  0.00     0.003 A 
HETATM   20  C13 UNL     1      22.449   4.018  52.305  1.00  0.00     0.007 A 
HETATM   21  C14 UNL     1      21.629   2.931  52.277  1.00  0.00    -0.060 A 
HETATM   22  C15 UNL     1      20.192   3.155  52.001  1.00  0.00     0.048 C 
HETATM   23  C16 UNL     1      22.172   1.687  52.504  1.00  0.00     0.036 A 
ENDBRANCH  15  17
ENDBRANCH   1  15
TORSDOF 5
ENDMDL
