MODEL 1
REMARK VINA RESULT:      -8.9      0.000      0.000
REMARK  5 active torsions:
REMARK  status: ('A' for Active; 'I' for Inactive)
REMARK    1  A    between atoms: C3_4  and  C4_5 
REMARK    2  A    between atoms: C10_12  and  N2_13 
REMARK    3  A    between atoms: C11_14  and  C12_15 
REMARK    4  A    between atoms: C14_17  and  S1_18 
REMARK    5  A    between atoms: C14_17  and  C16_21 
ROOT
HETATM    1  C1  UNL     1      27.512   4.589  48.759  1.00  0.00     0.072 C 
HETATM    2  C2  UNL     1      26.447   4.102  49.668  1.00  0.00     0.049 C 
HETATM    3  N1  UNL     1      26.670   3.050  50.414  1.00  0.00    -0.249 NA
HETATM    4  C3  UNL     1      25.935   2.304  51.374  1.00  0.00     0.096 C 
HETATM    5  C10 UNL     1      24.634   2.233  51.609  1.00  0.00     0.087 C 
HETATM    6  C17 UNL     1      23.396   2.807  51.077  1.00  0.00     0.053 C 
HETATM    7  C18 UNL     1      23.192   3.897  50.340  1.00  0.00     0.118 C 
HETATM    8  N3  UNL     1      23.994   4.941  49.762  1.00  0.00    -0.271 NA
HETATM    9  C19 UNL     1      25.279   4.993  49.509  1.00  0.00     0.143 C 
ENDROOT
BRANCH   5  10
HETATM   10  N2  UNL     1      24.323   1.350  52.682  1.00  0.00    -0.262 NA
HETATM   11  C11 UNL     1      23.135   0.835  52.614  1.00  0.00     0.102 C 
BRANCH  11  12
HETATM   12  C12 UNL     1      22.294  -0.085  53.377  1.00  0.00     0.026 A 
HETATM   13  C13 UNL     1      21.688  -1.234  53.305  1.00  0.00     0.007 A 
HETATM   14  C14 UNL     1      20.617  -0.592  53.737  1.00  0.00     0.062 A 
HETATM   15  C16 UNL     1      21.669  -0.190  54.700  1.00  0.00     0.052 A 
BRANCH  14  16
HETATM   16  S1  UNL     1      18.935  -0.527  53.153  1.00  0.00     0.022 S 
HETATM   17  C15 UNL     1      18.189  -2.140  53.542  1.00  0.00     0.128 C 
HETATM   18  O1  UNL     1      18.902  -0.372  51.638  1.00  0.00    -0.258 OA
ENDBRANCH  14  16
ENDBRANCH  11  12
ENDBRANCH   5  10
BRANCH   4  19
HETATM   19  C4  UNL     1      26.825   1.482  52.175  1.00  0.00    -0.005 A 
HETATM   20  C5  UNL     1      27.725   2.050  53.045  1.00  0.00     0.017 A 
HETATM   21  C6  UNL     1      28.634   1.385  53.847  1.00  0.00     0.043 A 
HETATM   22  C7  UNL     1      28.611   0.000  53.739  1.00  0.00     0.116 A 
HETATM   23  F1  UNL     1      29.475  -0.701  54.499  1.00  0.00    -0.206 F 
HETATM   24  C8  UNL     1      27.743  -0.660  52.894  1.00  0.00     0.043 A 
HETATM   25  C9  UNL     1      26.858   0.093  52.118  1.00  0.00     0.017 A 
ENDBRANCH   4  19
TORSDOF 5
ENDMDL
MODEL 2
REMARK VINA RESULT:      -8.5      3.735      6.459
REMARK  5 active torsions:
REMARK  status: ('A' for Active; 'I' for Inactive)
REMARK    1  A    between atoms: C3_4  and  C4_5 
REMARK    2  A    between atoms: C10_12  and  N2_13 
REMARK    3  A    between atoms: C11_14  and  C12_15 
REMARK    4  A    between atoms: C14_17  and  S1_18 
REMARK    5  A    between atoms: C14_17  and  C16_21 
ROOT
HETATM    1  C1  UNL     1      28.707  -2.772  53.085  1.00  0.00     0.072 C 
HETATM    2  C2  UNL     1      28.195  -1.412  53.377  1.00  0.00     0.049 C 
HETATM    3  N1  UNL     1      26.905  -1.196  53.366  1.00  0.00    -0.249 NA
HETATM    4  C3  UNL     1      26.054  -0.079  53.586  1.00  0.00     0.096 C 
HETATM    5  C10 UNL     1      26.304   1.221  53.563  1.00  0.00     0.087 C 
HETATM    6  C17 UNL     1      27.444   2.110  53.327  1.00  0.00     0.053 C 
HETATM    7  C18 UNL     1      28.753   1.871  53.368  1.00  0.00     0.118 C 
HETATM    8  N3  UNL     1      29.609   0.747  53.638  1.00  0.00    -0.271 NA
HETATM    9  C19 UNL     1      29.359  -0.540  53.634  1.00  0.00     0.143 C 
ENDROOT
BRANCH   5  10
HETATM   10  N2  UNL     1      25.147   2.001  53.845  1.00  0.00    -0.262 NA
HETATM   11  C11 UNL     1      24.812   2.813  52.891  1.00  0.00     0.102 C 
BRANCH  11  12
HETATM   12  C12 UNL     1      23.781   3.810  52.610  1.00  0.00     0.026 A 
HETATM   13  C13 UNL     1      22.846   4.121  51.761  1.00  0.00     0.007 A 
HETATM   14  C14 UNL     1      23.394   5.323  51.738  1.00  0.00     0.062 A 
HETATM   15  C16 UNL     1      23.237   5.045  53.185  1.00  0.00     0.052 A 
BRANCH  14  16
HETATM   16  S1  UNL     1      23.904   6.389  50.405  1.00  0.00     0.022 S 
HETATM   17  C15 UNL     1      25.564   5.837  49.906  1.00  0.00     0.128 C 
HETATM   18  O1  UNL     1      24.036   7.826  50.892  1.00  0.00    -0.258 OA
ENDBRANCH  14  16
ENDBRANCH  11  12
ENDBRANCH   5  10
BRANCH   4  19
HETATM   19  C4  UNL     1      24.693  -0.515  53.843  1.00  0.00    -0.005 A 
HETATM   20  C5  UNL     1      24.320  -0.989  55.078  1.00  0.00     0.017 A 
HETATM   21  C6  UNL     1      23.068  -1.448  55.445  1.00  0.00     0.043 A 
HETATM   22  C7  UNL     1      22.111  -1.413  54.440  1.00  0.00     0.116 A 
HETATM   23  F1  UNL     1      20.871  -1.847  54.742  1.00  0.00    -0.206 F 
HETATM   24  C8  UNL     1      22.390  -0.954  53.169  1.00  0.00     0.043 A 
HETATM   25  C9  UNL     1      23.685  -0.509  52.885  1.00  0.00     0.017 A 
ENDBRANCH   4  19
TORSDOF 5
ENDMDL
MODEL 3
REMARK VINA RESULT:      -8.5      1.667      2.078
REMARK  5 active torsions:
REMARK  status: ('A' for Active; 'I' for Inactive)
REMARK    1  A    between atoms: C3_4  and  C4_5 
REMARK    2  A    between atoms: C10_12  and  N2_13 
REMARK    3  A    between atoms: C11_14  and  C12_15 
REMARK    4  A    between atoms: C14_17  and  S1_18 
REMARK    5  A    between atoms: C14_17  and  C16_21 
ROOT
HETATM    1  C1  UNL     1      28.433   5.094  48.495  1.00  0.00     0.072 C 
HETATM    2  C2  UNL     1      27.146   4.714  49.124  1.00  0.00     0.049 C 
HETATM    3  N1  UNL     1      27.082   3.629  49.853  1.00  0.00    -0.249 NA
HETATM    4  C3  UNL     1      26.075   2.953  50.593  1.00  0.00     0.096 C 
HETATM    5  C10 UNL     1      24.755   3.026  50.531  1.00  0.00     0.087 C 
HETATM    6  C17 UNL     1      23.736   3.748  49.766  1.00  0.00     0.053 C 
HETATM    7  C18 UNL     1      23.820   4.869  49.051  1.00  0.00     0.118 C 
HETATM    8  N3  UNL     1      24.838   5.825  48.712  1.00  0.00    -0.271 NA
HETATM    9  C19 UNL     1      26.145   5.735  48.752  1.00  0.00     0.143 C 
ENDROOT
BRANCH   5  10
HETATM   10  N2  UNL     1      24.118   2.164  51.468  1.00  0.00    -0.262 NA
HETATM   11  C11 UNL     1      22.849   2.004  51.261  1.00  0.00     0.102 C 
BRANCH  11  12
HETATM   12  C12 UNL     1      21.724   1.281  51.851  1.00  0.00     0.026 A 
HETATM   13  C13 UNL     1      20.833   1.348  52.797  1.00  0.00     0.007 A 
HETATM   14  C14 UNL     1      21.218   0.127  53.120  1.00  0.00     0.062 A 
HETATM   15  C16 UNL     1      20.975   0.034  51.662  1.00  0.00     0.052 A 
BRANCH  14  16
HETATM   16  S1  UNL     1      21.697  -0.614  54.668  1.00  0.00     0.022 S 
HETATM   17  C15 UNL     1      23.490  -0.905  54.572  1.00  0.00     0.128 C 
HETATM   18  O1  UNL     1      21.030  -1.973  54.838  1.00  0.00    -0.258 OA
ENDBRANCH  14  16
ENDBRANCH  11  12
ENDBRANCH   5  10
BRANCH   4  19
HETATM   19  C4  UNL     1      26.670   2.019  51.533  1.00  0.00    -0.005 A 
HETATM   20  C5  UNL     1      27.527   2.452  52.517  1.00  0.00     0.017 A 
HETATM   21  C6  UNL     1      28.169   1.668  53.457  1.00  0.00     0.043 A 
HETATM   22  C7  UNL     1      27.901   0.308  53.373  1.00  0.00     0.116 A 
HETATM   23  F1  UNL     1      28.499  -0.505  54.266  1.00  0.00    -0.206 F 
HETATM   24  C8  UNL     1      27.055  -0.220  52.420  1.00  0.00     0.043 A 
HETATM   25  C9  UNL     1      26.448   0.647  51.506  1.00  0.00     0.017 A 
ENDBRANCH   4  19
TORSDOF 5
ENDMDL
MODEL 4
REMARK VINA RESULT:      -8.5      3.106      5.740
REMARK  5 active torsions:
REMARK  status: ('A' for Active; 'I' for Inactive)
REMARK    1  A    between atoms: C3_4  and  C4_5 
REMARK    2  A    between atoms: C10_12  and  N2_13 
REMARK    3  A    between atoms: C11_14  and  C12_15 
REMARK    4  A    between atoms: C14_17  and  S1_18 
REMARK    5  A    between atoms: C14_17  and  C16_21 
ROOT
HETATM    1  C1  UNL     1      28.663  -2.729  53.129  1.00  0.00     0.072 C 
HETATM    2  C2  UNL     1      28.142  -1.363  53.377  1.00  0.00     0.049 C 
HETATM    3  N1  UNL     1      26.851  -1.153  53.350  1.00  0.00    -0.249 NA
HETATM    4  C3  UNL     1      25.994  -0.035  53.530  1.00  0.00     0.096 C 
HETATM    5  C10 UNL     1      26.238   1.265  53.472  1.00  0.00     0.087 C 
HETATM    6  C17 UNL     1      27.376   2.152  53.220  1.00  0.00     0.053 C 
HETATM    7  C18 UNL     1      28.686   1.920  53.280  1.00  0.00     0.118 C 
HETATM    8  N3  UNL     1      29.544   0.809  53.589  1.00  0.00    -0.271 NA
HETATM    9  C19 UNL     1      29.300  -0.478  53.619  1.00  0.00     0.143 C 
ENDROOT
BRANCH   5  10
HETATM   10  N2  UNL     1      25.075   2.048  53.721  1.00  0.00    -0.262 NA
HETATM   11  C11 UNL     1      24.814   2.916  52.794  1.00  0.00     0.102 C 
BRANCH  11  12
HETATM   12  C12 UNL     1      23.816   3.943  52.503  1.00  0.00     0.026 A 
HETATM   13  C13 UNL     1      22.757   4.523  52.987  1.00  0.00     0.007 A 
HETATM   14  C14 UNL     1      22.198   4.272  51.816  1.00  0.00     0.062 A 
HETATM   15  C16 UNL     1      23.484   4.911  51.452  1.00  0.00     0.052 A 
BRANCH  14  16
HETATM   16  S1  UNL     1      20.647   3.523  51.359  1.00  0.00     0.022 S 
HETATM   17  C15 UNL     1      19.750   4.754  50.365  1.00  0.00     0.128 C 
HETATM   18  O1  UNL     1      19.804   3.244  52.596  1.00  0.00    -0.258 OA
ENDBRANCH  14  16
ENDBRANCH  11  12
ENDBRANCH   5  10
BRANCH   4  19
HETATM   19  C4  UNL     1      24.632  -0.469  53.787  1.00  0.00    -0.005 A 
HETATM   20  C5  UNL     1      24.266  -0.969  55.015  1.00  0.00     0.017 A 
HETATM   21  C6  UNL     1      23.015  -1.430  55.381  1.00  0.00     0.043 A 
HETATM   22  C7  UNL     1      22.050  -1.368  54.383  1.00  0.00     0.116 A 
HETATM   23  F1  UNL     1      20.810  -1.803  54.685  1.00  0.00    -0.206 F 
HETATM   24  C8  UNL     1      22.322  -0.882  53.121  1.00  0.00     0.043 A 
HETATM   25  C9  UNL     1      23.617  -0.437  52.838  1.00  0.00     0.017 A 
ENDBRANCH   4  19
TORSDOF 5
ENDMDL
MODEL 5
REMARK VINA RESULT:      -8.2      2.972      5.101
REMARK  5 active torsions:
REMARK  status: ('A' for Active; 'I' for Inactive)
REMARK    1  A    between atoms: C3_4  and  C4_5 
REMARK    2  A    between atoms: C10_12  and  N2_13 
REMARK    3  A    between atoms: C11_14  and  C12_15 
REMARK    4  A    between atoms: C14_17  and  S1_18 
REMARK    5  A    between atoms: C14_17  and  C16_21 
ROOT
HETATM    1  C1  UNL     1      29.183   2.074  54.138  1.00  0.00     0.072 C 
HETATM    2  C2  UNL     1      27.922   1.481  53.631  1.00  0.00     0.049 C 
HETATM    3  N1  UNL     1      27.118   2.209  52.900  1.00  0.00    -0.249 NA
HETATM    4  C3  UNL     1      25.868   2.015  52.252  1.00  0.00     0.096 C 
HETATM    5  C10 UNL     1      24.924   1.107  52.440  1.00  0.00     0.087 C 
HETATM    6  C17 UNL     1      24.677  -0.047  53.308  1.00  0.00     0.053 C 
HETATM    7  C18 UNL     1      25.519  -0.790  54.024  1.00  0.00     0.118 C 
HETATM    8  N3  UNL     1      26.934  -0.829  54.275  1.00  0.00    -0.271 NA
HETATM    9  C19 UNL     1      27.859   0.085  54.109  1.00  0.00     0.143 C 
ENDROOT
BRANCH   5  10
HETATM   10  N2  UNL     1      23.819   1.280  51.559  1.00  0.00    -0.262 NA
HETATM   11  C11 UNL     1      22.693   0.848  52.033  1.00  0.00     0.102 C 
BRANCH  11  12
HETATM   12  C12 UNL     1      21.294   0.755  51.622  1.00  0.00     0.026 A 
HETATM   13  C13 UNL     1      20.513   0.830  50.583  1.00  0.00     0.007 A 
HETATM   14  C14 UNL     1      19.788   1.667  51.303  1.00  0.00     0.062 A 
HETATM   15  C16 UNL     1      19.972   0.508  52.208  1.00  0.00     0.052 A 
BRANCH  14  16
HETATM   16  S1  UNL     1      19.130   3.287  50.964  1.00  0.00     0.022 S 
HETATM   17  C15 UNL     1      20.493   4.465  51.215  1.00  0.00     0.128 C 
HETATM   18  O1  UNL     1      18.041   3.641  51.968  1.00  0.00    -0.258 OA
ENDBRANCH  14  16
ENDBRANCH  11  12
ENDBRANCH   5  10
BRANCH   4  19
HETATM   19  C4  UNL     1      25.646   3.042  51.249  1.00  0.00    -0.005 A 
HETATM   20  C5  UNL     1      26.490   3.176  50.172  1.00  0.00     0.017 A 
HETATM   21  C6  UNL     1      26.399   4.117  49.162  1.00  0.00     0.043 A 
HETATM   22  C7  UNL     1      25.336   5.002  49.277  1.00  0.00     0.116 A 
HETATM   23  F1  UNL     1      25.198   5.941  48.320  1.00  0.00    -0.206 F 
HETATM   24  C8  UNL     1      24.437   4.946  50.322  1.00  0.00     0.043 A 
HETATM   25  C9  UNL     1      24.605   3.961  51.300  1.00  0.00     0.017 A 
ENDBRANCH   4  19
TORSDOF 5
ENDMDL
MODEL 6
REMARK VINA RESULT:      -8.0      3.579      6.427
REMARK  5 active torsions:
REMARK  status: ('A' for Active; 'I' for Inactive)
REMARK    1  A    between atoms: C3_4  and  C4_5 
REMARK    2  A    between atoms: C10_12  and  N2_13 
REMARK    3  A    between atoms: C11_14  and  C12_15 
REMARK    4  A    between atoms: C14_17  and  S1_18 
REMARK    5  A    between atoms: C14_17  and  C16_21 
ROOT
HETATM    1  C1  UNL     1      21.542  -1.770  54.795  1.00  0.00     0.072 C 
HETATM    2  C2  UNL     1      21.917  -0.633  53.919  1.00  0.00     0.049 C 
HETATM    3  N1  UNL     1      23.159  -0.224  53.894  1.00  0.00    -0.249 NA
HETATM    4  C3  UNL     1      23.888   0.790  53.216  1.00  0.00     0.096 C 
HETATM    5  C10 UNL     1      23.480   1.892  52.606  1.00  0.00     0.087 C 
HETATM    6  C17 UNL     1      22.220   2.585  52.331  1.00  0.00     0.053 C 
HETATM    7  C18 UNL     1      20.965   2.138  52.338  1.00  0.00     0.118 C 
HETATM    8  N3  UNL     1      20.294   0.892  52.589  1.00  0.00    -0.271 NA
HETATM    9  C19 UNL     1      20.696  -0.186  53.218  1.00  0.00     0.143 C 
ENDROOT
BRANCH   5  10
HETATM   10  N2  UNL     1      24.559   2.636  52.049  1.00  0.00    -0.262 NA
HETATM   11  C11 UNL     1      24.265   3.246  50.944  1.00  0.00     0.102 C 
BRANCH  11  12
HETATM   12  C12 UNL     1      24.916   4.111  49.963  1.00  0.00     0.026 A 
HETATM   13  C13 UNL     1      26.055   4.666  49.667  1.00  0.00     0.007 A 
HETATM   14  C14 UNL     1      25.373   5.792  49.555  1.00  0.00     0.062 A 
HETATM   15  C16 UNL     1      24.597   4.838  48.729  1.00  0.00     0.052 A 
BRANCH  14  16
HETATM   16  S1  UNL     1      25.621   7.422  50.230  1.00  0.00     0.022 S 
HETATM   17  C15 UNL     1      23.982   8.030  50.734  1.00  0.00     0.128 C 
HETATM   18  O1  UNL     1      26.141   8.370  49.157  1.00  0.00    -0.258 OA
ENDBRANCH  14  16
ENDBRANCH  11  12
ENDBRANCH   5  10
BRANCH   4  19
HETATM   19  C4  UNL     1      25.314   0.519  53.269  1.00  0.00    -0.005 A 
HETATM   20  C5  UNL     1      25.856  -0.563  52.618  1.00  0.00     0.017 A 
HETATM   21  C6  UNL     1      27.187  -0.939  52.604  1.00  0.00     0.043 A 
HETATM   22  C7  UNL     1      28.038  -0.118  53.333  1.00  0.00     0.116 A 
HETATM   23  F1  UNL     1      29.347  -0.436  53.354  1.00  0.00    -0.206 F 
HETATM   24  C8  UNL     1      27.586   0.990  54.019  1.00  0.00     0.043 A 
HETATM   25  C9  UNL     1      26.223   1.296  53.979  1.00  0.00     0.017 A 
ENDBRANCH   4  19
TORSDOF 5
ENDMDL
MODEL 7
REMARK VINA RESULT:      -7.7      3.792      6.220
REMARK  5 active torsions:
REMARK  status: ('A' for Active; 'I' for Inactive)
REMARK    1  A    between atoms: C3_4  and  C4_5 
REMARK    2  A    between atoms: C10_12  and  N2_13 
REMARK    3  A    between atoms: C11_14  and  C12_15 
REMARK    4  A    between atoms: C14_17  and  S1_18 
REMARK    5  A    between atoms: C14_17  and  C16_21 
ROOT
HETATM    1  C1  UNL     1      18.047   3.685  51.050  1.00  0.00     0.072 C 
HETATM    2  C2  UNL     1      19.520   3.732  51.211  1.00  0.00     0.049 C 
HETATM    3  N1  UNL     1      20.110   2.857  51.984  1.00  0.00    -0.249 NA
HETATM    4  C3  UNL     1      21.446   2.581  52.382  1.00  0.00     0.096 C 
HETATM    5  C10 UNL     1      22.534   3.335  52.352  1.00  0.00     0.087 C 
HETATM    6  C17 UNL     1      22.912   4.691  51.948  1.00  0.00     0.053 C 
HETATM    7  C18 UNL     1      22.305   5.555  51.137  1.00  0.00     0.118 C 
HETATM    8  N3  UNL     1      21.110   5.587  50.339  1.00  0.00    -0.271 NA
HETATM    9  C19 UNL     1      20.025   4.853  50.391  1.00  0.00     0.143 C 
ENDROOT
BRANCH   5  10
HETATM   10  N2  UNL     1      23.680   2.655  52.853  1.00  0.00    -0.262 NA
HETATM   11  C11 UNL     1      24.663   2.586  52.011  1.00  0.00     0.102 C 
BRANCH  11  12
HETATM   12  C12 UNL     1      26.019   2.044  51.951  1.00  0.00     0.026 A 
HETATM   13  C13 UNL     1      26.706   1.015  51.547  1.00  0.00     0.007 A 
HETATM   14  C14 UNL     1      27.226   1.003  52.761  1.00  0.00     0.062 A 
HETATM   15  C16 UNL     1      27.387   2.412  52.335  1.00  0.00     0.052 A 
BRANCH  14  16
HETATM   16  S1  UNL     1      27.435  -0.291  53.968  1.00  0.00     0.022 S 
HETATM   17  C15 UNL     1      26.054  -0.134  55.141  1.00  0.00     0.128 C 
HETATM   18  O1  UNL     1      28.720  -0.082  54.758  1.00  0.00    -0.258 OA
ENDBRANCH  14  16
ENDBRANCH  11  12
ENDBRANCH   5  10
BRANCH   4  19
HETATM   19  C4  UNL     1      21.551   1.241  52.931  1.00  0.00    -0.005 A 
HETATM   20  C5  UNL     1      21.004   0.931  54.154  1.00  0.00     0.017 A 
HETATM   21  C6  UNL     1      21.049  -0.295  54.793  1.00  0.00     0.043 A 
HETATM   22  C7  UNL     1      21.723  -1.294  54.103  1.00  0.00     0.116 A 
HETATM   23  F1  UNL     1      21.797  -2.511  54.678  1.00  0.00    -0.206 F 
HETATM   24  C8  UNL     1      22.305  -1.077  52.870  1.00  0.00     0.043 A 
HETATM   25  C9  UNL     1      22.212   0.195  52.298  1.00  0.00     0.017 A 
ENDBRANCH   4  19
TORSDOF 5
ENDMDL
MODEL 8
REMARK VINA RESULT:      -7.3      3.640      6.146
REMARK  5 active torsions:
REMARK  status: ('A' for Active; 'I' for Inactive)
REMARK    1  A    between atoms: C3_4  and  C4_5 
REMARK    2  A    between atoms: C10_12  and  N2_13 
REMARK    3  A    between atoms: C11_14  and  C12_15 
REMARK    4  A    between atoms: C14_17  and  S1_18 
REMARK    5  A    between atoms: C14_17  and  C16_21 
ROOT
HETATM    1  C1  UNL     1      26.139   0.253  53.194  1.00  0.00     0.072 C 
HETATM    2  C2  UNL     1      24.665   0.096  53.223  1.00  0.00     0.049 C 
HETATM    3  N1  UNL     1      23.932   0.757  52.364  1.00  0.00    -0.249 NA
HETATM    4  C3  UNL     1      22.544   0.871  52.081  1.00  0.00     0.096 C 
HETATM    5  C10 UNL     1      21.481   0.586  52.816  1.00  0.00     0.087 C 
HETATM    6  C17 UNL     1      21.186   0.065  54.153  1.00  0.00     0.053 C 
HETATM    7  C18 UNL     1      21.944  -0.629  55.000  1.00  0.00     0.118 C 
HETATM    8  N3  UNL     1      23.281  -1.156  55.024  1.00  0.00    -0.271 NA
HETATM    9  C19 UNL     1      24.336  -0.849  54.309  1.00  0.00     0.143 C 
ENDROOT
BRANCH   5  10
HETATM   10  N2  UNL     1      20.260   0.856  52.135  1.00  0.00    -0.262 NA
HETATM   11  C11 UNL     1      19.337  -0.033  52.334  1.00  0.00     0.102 C 
BRANCH  11  12
HETATM   12  C12 UNL     1      17.957  -0.288  51.929  1.00  0.00     0.026 A 
HETATM   13  C13 UNL     1      17.138  -0.188  50.923  1.00  0.00     0.007 A 
HETATM   14  C14 UNL     1      16.316   0.407  51.769  1.00  0.00     0.062 A 
HETATM   15  C16 UNL     1      16.711  -0.828  52.486  1.00  0.00     0.052 A 
BRANCH  14  16
HETATM   16  S1  UNL     1      15.399   1.932  51.685  1.00  0.00     0.022 S 
HETATM   17  C15 UNL     1      16.625   3.276  51.702  1.00  0.00     0.128 C 
HETATM   18  O1  UNL     1      14.531   2.100  52.926  1.00  0.00    -0.258 OA
ENDBRANCH  14  16
ENDBRANCH  11  12
ENDBRANCH   5  10
BRANCH   4  19
HETATM   19  C4  UNL     1      22.336   1.432  50.757  1.00  0.00    -0.005 A 
HETATM   20  C5  UNL     1      22.819   2.677  50.430  1.00  0.00     0.017 A 
HETATM   21  C6  UNL     1      22.675   3.328  49.219  1.00  0.00     0.043 A 
HETATM   22  C7  UNL     1      21.964   2.625  48.254  1.00  0.00     0.116 A 
HETATM   23  F1  UNL     1      21.794   3.211  47.052  1.00  0.00    -0.206 F 
HETATM   24  C8  UNL     1      21.442   1.370  48.490  1.00  0.00     0.043 A 
HETATM   25  C9  UNL     1      21.634   0.787  49.745  1.00  0.00     0.017 A 
ENDBRANCH   4  19
TORSDOF 5
ENDMDL
MODEL 9
REMARK VINA RESULT:      -7.1      3.844      6.663
REMARK  5 active torsions:
REMARK  status: ('A' for Active; 'I' for Inactive)
REMARK    1  A    between atoms: C3_4  and  C4_5 
REMARK    2  A    between atoms: C10_12  and  N2_13 
REMARK    3  A    between atoms: C11_14  and  C12_15 
REMARK    4  A    between atoms: C14_17  and  S1_18 
REMARK    5  A    between atoms: C14_17  and  C16_21 
ROOT
HETATM    1  C1  UNL     1      26.764  -1.302  52.928  1.00  0.00     0.072 C 
HETATM    2  C2  UNL     1      26.142  -0.007  52.560  1.00  0.00     0.049 C 
HETATM    3  N1  UNL     1      24.847   0.057  52.387  1.00  0.00    -0.249 NA
HETATM    4  C3  UNL     1      23.911   1.070  52.044  1.00  0.00     0.096 C 
HETATM    5  C10 UNL     1      24.079   2.247  51.462  1.00  0.00     0.087 C 
HETATM    6  C17 UNL     1      25.177   3.049  50.918  1.00  0.00     0.053 C 
HETATM    7  C18 UNL     1      26.490   2.980  51.130  1.00  0.00     0.118 C 
HETATM    8  N3  UNL     1      27.387   2.175  51.914  1.00  0.00    -0.271 NA
HETATM    9  C19 UNL     1      27.221   0.998  52.467  1.00  0.00     0.143 C 
ENDROOT
BRANCH   5  10
HETATM   10  N2  UNL     1      22.854   2.956  51.306  1.00  0.00    -0.262 NA
HETATM   11  C11 UNL     1      23.004   4.222  51.070  1.00  0.00     0.102 C 
BRANCH  11  12
HETATM   12  C12 UNL     1      22.170   5.399  50.833  1.00  0.00     0.026 A 
HETATM   13  C13 UNL     1      20.950   5.767  50.569  1.00  0.00     0.007 A 
HETATM   14  C14 UNL     1      21.476   6.488  49.595  1.00  0.00     0.062 A 
HETATM   15  C16 UNL     1      22.292   6.860  50.775  1.00  0.00     0.052 A 
BRANCH  14  16
HETATM   16  S1  UNL     1      21.087   6.637  47.863  1.00  0.00     0.022 S 
HETATM   17  C15 UNL     1      22.502   5.947  46.951  1.00  0.00     0.128 C 
HETATM   18  O1  UNL     1      20.970   8.103  47.468  1.00  0.00    -0.258 OA
ENDBRANCH  14  16
ENDBRANCH  11  12
ENDBRANCH   5  10
BRANCH   4  19
HETATM   19  C4  UNL     1      22.562   0.661  52.394  1.00  0.00    -0.005 A 
HETATM   20  C5  UNL     1      22.207   0.433  53.702  1.00  0.00     0.017 A 
HETATM   21  C6  UNL     1      20.968   0.026  54.164  1.00  0.00     0.043 A 
HETATM   22  C7  UNL     1      20.007  -0.164  53.180  1.00  0.00     0.116 A 
HETATM   23  F1  UNL     1      18.780  -0.560  53.573  1.00  0.00    -0.206 F 
HETATM   24  C8  UNL     1      20.270   0.039  51.841  1.00  0.00     0.043 A 
HETATM   25  C9  UNL     1      21.551   0.450  51.463  1.00  0.00     0.017 A 
ENDBRANCH   4  19
TORSDOF 5
ENDMDL
