MODEL 1
REMARK VINA RESULT:      -8.4      0.000      0.000
REMARK  6 active torsions:
REMARK  status: ('A' for Active; 'I' for Inactive)
REMARK    1  A    between atoms: O1_1  and  C1_2 
REMARK    2  A    between atoms: C1_2  and  C2_3 
REMARK    3  A    between atoms: C2_3  and  N1_4 
REMARK    4  A    between atoms: C4_6  and  C5_7 
REMARK    5  A    between atoms: C13_15  and  N2_16 
REMARK    6  A    between atoms: C14_18  and  C15_19 
ROOT
HETATM    1  N1  UNL     1      27.867  -0.501  53.630  1.00  0.00    -0.277 N 
HETATM    2  C3  UNL     1      27.506   0.647  53.022  1.00  0.00     0.127 A 
HETATM    3  C4  UNL     1      26.116   0.782  53.013  1.00  0.00     0.023 A 
HETATM    4  C14 UNL     1      25.685  -0.355  53.651  1.00  0.00     0.100 A 
HETATM    5  N4  UNL     1      26.739  -1.114  54.017  1.00  0.00    -0.171 NA
ENDROOT
BRANCH   3   6
HETATM    6  C5  UNL     1      25.474   1.924  52.423  1.00  0.00    -0.022 A 
HETATM    7  C6  UNL     1      25.821   2.220  51.108  1.00  0.00     0.013 A 
HETATM    8  C7  UNL     1      25.277   3.294  50.431  1.00  0.00     0.011 A 
HETATM    9  C8  UNL     1      24.343   4.135  51.049  1.00  0.00    -0.026 A 
HETATM   10  C9  UNL     1      23.992   3.848  52.354  1.00  0.00    -0.049 A 
HETATM   11  C13 UNL     1      23.594   5.340  50.603  1.00  0.00     0.151 C 
HETATM   12  C10 UNL     1      24.554   2.769  53.003  1.00  0.00     0.020 A 
HETATM   13  C11 UNL     1      22.993   4.867  52.804  1.00  0.00     0.041 C 
HETATM   14  C12 UNL     1      22.345   5.234  51.480  1.00  0.00     0.037 C 
BRANCH  11  15
HETATM   15  N2  UNL     1      24.253   6.545  51.038  1.00  0.00    -0.235 NA
HETATM   16  S1  UNL     1      25.275   7.164  50.349  1.00  0.00     0.063 SA
ENDBRANCH  11  15
ENDBRANCH   3   6
BRANCH   4  17
HETATM   17  C15 UNL     1      24.273  -0.642  53.872  1.00  0.00    -0.002 A 
HETATM   18  C16 UNL     1      23.178  -0.498  53.053  1.00  0.00     0.033 A 
HETATM   19  C17 UNL     1      21.931  -0.854  53.519  1.00  0.00     0.117 A 
HETATM   20  N3  UNL     1      21.740  -1.341  54.765  1.00  0.00    -0.273 NA
HETATM   21  C18 UNL     1      22.789  -1.488  55.576  1.00  0.00     0.117 A 
HETATM   22  C19 UNL     1      24.083  -1.147  55.165  1.00  0.00     0.033 A 
ENDBRANCH   4  17
BRANCH   1  23
HETATM   23  C2  UNL     1      29.199  -1.028  53.857  1.00  0.00     0.176 C 
BRANCH  23  24
HETATM   24  C1  UNL     1      29.434  -2.225  52.978  1.00  0.00     0.185 C 
BRANCH  24  25
HETATM   25  O1  UNL     1      28.718  -3.295  53.518  1.00  0.00    -0.399 OA
HETATM   26  H1  UNL     1      28.341  -3.885  52.817  1.00  0.00     0.209 HD
ENDBRANCH  24  25
ENDBRANCH  23  24
ENDBRANCH   1  23
TORSDOF 6
ENDMDL
MODEL 2
REMARK VINA RESULT:      -8.3      1.611      2.042
REMARK  6 active torsions:
REMARK  status: ('A' for Active; 'I' for Inactive)
REMARK    1  A    between atoms: O1_1  and  C1_2 
REMARK    2  A    between atoms: C1_2  and  C2_3 
REMARK    3  A    between atoms: C2_3  and  N1_4 
REMARK    4  A    between atoms: C4_6  and  C5_7 
REMARK    5  A    between atoms: C13_15  and  N2_16 
REMARK    6  A    between atoms: C14_18  and  C15_19 
ROOT
HETATM    1  N1  UNL     1      27.631   0.232  54.135  1.00  0.00    -0.277 N 
HETATM    2  C3  UNL     1      27.144   1.247  53.394  1.00  0.00     0.127 A 
HETATM    3  C4  UNL     1      25.761   1.122  53.239  1.00  0.00     0.023 A 
HETATM    4  C14 UNL     1      25.469  -0.026  53.934  1.00  0.00     0.100 A 
HETATM    5  N4  UNL     1      26.593  -0.550  54.466  1.00  0.00    -0.171 NA
ENDROOT
BRANCH   3   6
HETATM    6  C5  UNL     1      24.997   2.081  52.490  1.00  0.00    -0.022 A 
HETATM    7  C6  UNL     1      24.398   3.103  53.222  1.00  0.00     0.013 A 
HETATM    8  C7  UNL     1      23.634   4.084  52.619  1.00  0.00     0.011 A 
HETATM    9  C8  UNL     1      23.432   4.087  51.233  1.00  0.00    -0.026 A 
HETATM   10  C9  UNL     1      24.023   3.077  50.500  1.00  0.00    -0.049 A 
HETATM   11  C13 UNL     1      22.683   4.979  50.308  1.00  0.00     0.151 C 
HETATM   12  C10 UNL     1      24.779   2.112  51.131  1.00  0.00     0.020 A 
HETATM   13  C11 UNL     1      23.675   3.280  49.059  1.00  0.00     0.041 C 
HETATM   14  C12 UNL     1      23.488   4.788  49.021  1.00  0.00     0.037 C 
BRANCH  11  15
HETATM   15  N2  UNL     1      21.380   4.438  50.016  1.00  0.00    -0.235 NA
HETATM   16  S1  UNL     1      20.349   4.355  50.929  1.00  0.00     0.063 SA
ENDBRANCH  11  15
ENDBRANCH   3   6
BRANCH   4  17
HETATM   17  C15 UNL     1      24.113  -0.552  54.043  1.00  0.00    -0.002 A 
HETATM   18  C16 UNL     1      23.059  -0.533  53.163  1.00  0.00     0.033 A 
HETATM   19  C17 UNL     1      21.863  -1.117  53.523  1.00  0.00     0.117 A 
HETATM   20  N3  UNL     1      21.685  -1.711  54.723  1.00  0.00    -0.273 NA
HETATM   21  C18 UNL     1      22.697  -1.740  55.593  1.00  0.00     0.117 A 
HETATM   22  C19 UNL     1      23.937  -1.167  55.290  1.00  0.00     0.033 A 
ENDBRANCH   4  17
BRANCH   1  23
HETATM   23  C2  UNL     1      29.001  -0.023  54.537  1.00  0.00     0.176 C 
BRANCH  23  24
HETATM   24  C1  UNL     1      29.654  -0.966  53.563  1.00  0.00     0.185 C 
BRANCH  24  25
HETATM   25  O1  UNL     1      28.879  -2.125  53.513  1.00  0.00    -0.399 OA
HETATM   26  H1  UNL     1      29.357  -2.878  53.080  1.00  0.00     0.209 HD
ENDBRANCH  24  25
ENDBRANCH  23  24
ENDBRANCH   1  23
TORSDOF 6
ENDMDL
MODEL 3
REMARK VINA RESULT:      -8.2      3.606      5.708
REMARK  6 active torsions:
REMARK  status: ('A' for Active; 'I' for Inactive)
REMARK    1  A    between atoms: O1_1  and  C1_2 
REMARK    2  A    between atoms: C1_2  and  C2_3 
REMARK    3  A    between atoms: C2_3  and  N1_4 
REMARK    4  A    between atoms: C4_6  and  C5_7 
REMARK    5  A    between atoms: C13_15  and  N2_16 
REMARK    6  A    between atoms: C14_18  and  C15_19 
ROOT
HETATM    1  N1  UNL     1      25.958   4.089  50.072  1.00  0.00    -0.277 N 
HETATM    2  C3  UNL     1      24.679   3.670  50.164  1.00  0.00     0.127 A 
HETATM    3  C4  UNL     1      24.593   2.530  50.966  1.00  0.00     0.023 A 
HETATM    4  C14 UNL     1      25.897   2.306  51.337  1.00  0.00     0.100 A 
HETATM    5  N4  UNL     1      26.703   3.244  50.798  1.00  0.00    -0.171 NA
ENDROOT
BRANCH   3   6
HETATM    6  C5  UNL     1      23.336   1.885  51.227  1.00  0.00    -0.022 A 
HETATM    7  C6  UNL     1      22.623   1.444  50.114  1.00  0.00     0.013 A 
HETATM    8  C7  UNL     1      21.400   0.814  50.231  1.00  0.00     0.011 A 
HETATM    9  C8  UNL     1      20.824   0.590  51.488  1.00  0.00    -0.026 A 
HETATM   10  C9  UNL     1      21.524   1.023  52.597  1.00  0.00    -0.049 A 
HETATM   11  C13 UNL     1      19.556  -0.044  51.937  1.00  0.00     0.151 C 
HETATM   12  C10 UNL     1      22.743   1.651  52.447  1.00  0.00     0.020 A 
HETATM   13  C11 UNL     1      20.727   0.682  53.816  1.00  0.00     0.041 C 
HETATM   14  C12 UNL     1      19.966  -0.538  53.326  1.00  0.00     0.037 C 
BRANCH  11  15
HETATM   15  N2  UNL     1      18.542   0.951  52.180  1.00  0.00    -0.235 NA
HETATM   16  S1  UNL     1      17.554   1.290  51.280  1.00  0.00     0.063 SA
ENDBRANCH  11  15
ENDBRANCH   3   6
BRANCH   4  17
HETATM   17  C15 UNL     1      26.287   1.193  52.195  1.00  0.00    -0.002 A 
HETATM   18  C16 UNL     1      26.449  -0.145  51.929  1.00  0.00     0.033 A 
HETATM   19  C17 UNL     1      26.834  -0.996  52.942  1.00  0.00     0.117 A 
HETATM   20  N3  UNL     1      27.059  -0.562  54.201  1.00  0.00    -0.273 NA
HETATM   21  C18 UNL     1      26.907   0.734  54.481  1.00  0.00     0.117 A 
HETATM   22  C19 UNL     1      26.518   1.653  53.498  1.00  0.00     0.033 A 
ENDBRANCH   4  17
BRANCH   1  23
HETATM   23  C2  UNL     1      26.490   5.227  49.347  1.00  0.00     0.176 C 
BRANCH  23  24
HETATM   24  C1  UNL     1      27.689   4.806  48.542  1.00  0.00     0.185 C 
BRANCH  24  25
HETATM   25  O1  UNL     1      28.829   5.154  49.267  1.00  0.00    -0.399 OA
HETATM   26  H1  UNL     1      28.670   5.924  49.869  1.00  0.00     0.209 HD
ENDBRANCH  24  25
ENDBRANCH  23  24
ENDBRANCH   1  23
TORSDOF 6
ENDMDL
MODEL 4
REMARK VINA RESULT:      -8.1      2.569      4.852
REMARK  6 active torsions:
REMARK  status: ('A' for Active; 'I' for Inactive)
REMARK    1  A    between atoms: O1_1  and  C1_2 
REMARK    2  A    between atoms: C1_2  and  C2_3 
REMARK    3  A    between atoms: C2_3  and  N1_4 
REMARK    4  A    between atoms: C4_6  and  C5_7 
REMARK    5  A    between atoms: C13_15  and  N2_16 
REMARK    6  A    between atoms: C14_18  and  C15_19 
ROOT
HETATM    1  N1  UNL     1      22.044  -0.648  53.866  1.00  0.00    -0.277 N 
HETATM    2  C3  UNL     1      22.210   0.449  53.100  1.00  0.00     0.127 A 
HETATM    3  C4  UNL     1      23.564   0.777  52.998  1.00  0.00     0.023 A 
HETATM    4  C14 UNL     1      24.180  -0.192  53.752  1.00  0.00     0.100 A 
HETATM    5  N4  UNL     1      23.263  -1.039  54.264  1.00  0.00    -0.171 NA
ENDROOT
BRANCH   3   6
HETATM    6  C5  UNL     1      24.010   1.908  52.232  1.00  0.00    -0.022 A 
HETATM    7  C6  UNL     1      23.461   3.142  52.572  1.00  0.00     0.013 A 
HETATM    8  C7  UNL     1      23.804   4.303  51.908  1.00  0.00     0.011 A 
HETATM    9  C8  UNL     1      24.730   4.284  50.857  1.00  0.00    -0.026 A 
HETATM   10  C9  UNL     1      25.280   3.064  50.515  1.00  0.00    -0.049 A 
HETATM   11  C13 UNL     1      25.295   5.334  49.968  1.00  0.00     0.151 C 
HETATM   12  C10 UNL     1      24.916   1.922  51.196  1.00  0.00     0.020 A 
HETATM   13  C11 UNL     1      26.231   3.282  49.380  1.00  0.00     0.041 C 
HETATM   14  C12 UNL     1      26.656   4.718  49.638  1.00  0.00     0.037 C 
BRANCH  11  15
HETATM   15  N2  UNL     1      24.591   5.377  48.712  1.00  0.00    -0.235 NA
HETATM   16  S1  UNL     1      23.825   6.442  48.286  1.00  0.00     0.063 SA
ENDBRANCH  11  15
ENDBRANCH   3   6
BRANCH   4  17
HETATM   17  C15 UNL     1      25.626  -0.243  53.931  1.00  0.00    -0.002 A 
HETATM   18  C16 UNL     1      26.450   0.370  54.844  1.00  0.00     0.033 A 
HETATM   19  C17 UNL     1      27.809   0.144  54.791  1.00  0.00     0.117 A 
HETATM   20  N3  UNL     1      28.368  -0.664  53.865  1.00  0.00    -0.273 NA
HETATM   21  C18 UNL     1      27.586  -1.269  52.969  1.00  0.00     0.117 A 
HETATM   22  C19 UNL     1      26.199  -1.083  52.967  1.00  0.00     0.033 A 
ENDBRANCH   4  17
BRANCH   1  23
HETATM   23  C2  UNL     1      20.814  -1.326  54.227  1.00  0.00     0.176 C 
BRANCH  23  24
HETATM   24  C1  UNL     1      19.652  -0.698  53.506  1.00  0.00     0.185 C 
BRANCH  24  25
HETATM   25  O1  UNL     1      18.495  -1.371  53.899  1.00  0.00    -0.399 OA
HETATM   26  H1  UNL     1      17.925  -1.619  53.128  1.00  0.00     0.209 HD
ENDBRANCH  24  25
ENDBRANCH  23  24
ENDBRANCH   1  23
TORSDOF 6
ENDMDL
MODEL 5
REMARK VINA RESULT:      -7.9      3.148      5.748
REMARK  6 active torsions:
REMARK  status: ('A' for Active; 'I' for Inactive)
REMARK    1  A    between atoms: O1_1  and  C1_2 
REMARK    2  A    between atoms: C1_2  and  C2_3 
REMARK    3  A    between atoms: C2_3  and  N1_4 
REMARK    4  A    between atoms: C4_6  and  C5_7 
REMARK    5  A    between atoms: C13_15  and  N2_16 
REMARK    6  A    between atoms: C14_18  and  C15_19 
ROOT
HETATM    1  N1  UNL     1      26.672  -0.351  52.971  1.00  0.00    -0.277 N 
HETATM    2  C3  UNL     1      25.399  -0.762  53.142  1.00  0.00     0.127 A 
HETATM    3  C4  UNL     1      24.507   0.282  52.886  1.00  0.00     0.023 A 
HETATM    4  C14 UNL     1      25.334   1.327  52.554  1.00  0.00     0.100 A 
HETATM    5  N4  UNL     1      26.624   0.938  52.607  1.00  0.00    -0.171 NA
ENDROOT
BRANCH   3   6
HETATM    6  C5  UNL     1      23.086   0.103  52.995  1.00  0.00    -0.022 A 
HETATM    7  C6  UNL     1      22.600  -0.238  54.255  1.00  0.00     0.013 A 
HETATM    8  C7  UNL     1      21.254  -0.441  54.490  1.00  0.00     0.011 A 
HETATM    9  C8  UNL     1      20.316  -0.310  53.458  1.00  0.00    -0.026 A 
HETATM   10  C9  UNL     1      20.790   0.029  52.205  1.00  0.00    -0.049 A 
HETATM   11  C13 UNL     1      18.838  -0.458  53.389  1.00  0.00     0.151 C 
HETATM   12  C10 UNL     1      22.140   0.225  52.003  1.00  0.00     0.020 A 
HETATM   13  C11 UNL     1      19.624   0.113  51.271  1.00  0.00     0.041 C 
HETATM   14  C12 UNL     1      18.513   0.493  52.237  1.00  0.00     0.037 C 
BRANCH  11  15
HETATM   15  N2  UNL     1      18.475  -1.766  52.907  1.00  0.00    -0.235 NA
HETATM   16  S1  UNL     1      17.541  -2.585  53.505  1.00  0.00     0.063 SA
ENDBRANCH  11  15
ENDBRANCH   3   6
BRANCH   4  17
HETATM   17  C15 UNL     1      24.824   2.648  52.204  1.00  0.00    -0.002 A 
HETATM   18  C16 UNL     1      23.933   3.476  52.842  1.00  0.00     0.033 A 
HETATM   19  C17 UNL     1      23.620   4.697  52.283  1.00  0.00     0.117 A 
HETATM   20  N3  UNL     1      24.161   5.114  51.118  1.00  0.00    -0.273 NA
HETATM   21  C18 UNL     1      25.029   4.325  50.482  1.00  0.00     0.117 A 
HETATM   22  C19 UNL     1      25.390   3.074  50.994  1.00  0.00     0.033 A 
ENDBRANCH   4  17
BRANCH   1  23
HETATM   23  C2  UNL     1      27.899  -1.108  53.129  1.00  0.00     0.176 C 
BRANCH  23  24
HETATM   24  C1  UNL     1      27.678  -2.536  52.711  1.00  0.00     0.185 C 
BRANCH  24  25
HETATM   25  O1  UNL     1      28.584  -3.329  53.416  1.00  0.00    -0.399 OA
HETATM   26  H1  UNL     1      28.230  -4.238  53.591  1.00  0.00     0.209 HD
ENDBRANCH  24  25
ENDBRANCH  23  24
ENDBRANCH   1  23
TORSDOF 6
ENDMDL
MODEL 6
REMARK VINA RESULT:      -7.8      2.135      4.207
REMARK  6 active torsions:
REMARK  status: ('A' for Active; 'I' for Inactive)
REMARK    1  A    between atoms: O1_1  and  C1_2 
REMARK    2  A    between atoms: C1_2  and  C2_3 
REMARK    3  A    between atoms: C2_3  and  N1_4 
REMARK    4  A    between atoms: C4_6  and  C5_7 
REMARK    5  A    between atoms: C13_15  and  N2_16 
REMARK    6  A    between atoms: C14_18  and  C15_19 
ROOT
HETATM    1  N1  UNL     1      23.259  -0.322  53.239  1.00  0.00    -0.277 N 
HETATM    2  C3  UNL     1      23.165   0.753  52.431  1.00  0.00     0.127 A 
HETATM    3  C4  UNL     1      24.359   1.477  52.437  1.00  0.00     0.023 A 
HETATM    4  C14 UNL     1      25.157   0.761  53.297  1.00  0.00     0.100 A 
HETATM    5  N4  UNL     1      24.490  -0.312  53.769  1.00  0.00    -0.171 NA
ENDROOT
BRANCH   3   6
HETATM    6  C5  UNL     1      24.522   2.670  51.653  1.00  0.00    -0.022 A 
HETATM    7  C6  UNL     1      25.221   2.535  50.457  1.00  0.00     0.013 A 
HETATM    8  C7  UNL     1      25.448   3.607  49.616  1.00  0.00     0.011 A 
HETATM    9  C8  UNL     1      24.977   4.886  49.939  1.00  0.00    -0.026 A 
HETATM   10  C9  UNL     1      24.281   5.029  51.124  1.00  0.00    -0.049 A 
HETATM   11  C13 UNL     1      25.054   6.209  49.264  1.00  0.00     0.151 C 
HETATM   12  C10 UNL     1      24.071   3.938  51.942  1.00  0.00     0.020 A 
HETATM   13  C11 UNL     1      23.878   6.463  51.259  1.00  0.00     0.041 C 
HETATM   14  C12 UNL     1      23.783   6.871  49.799  1.00  0.00     0.037 C 
BRANCH  11  15
HETATM   15  N2  UNL     1      26.137   6.995  49.797  1.00  0.00    -0.235 NA
HETATM   16  S1  UNL     1      26.935   7.831  49.044  1.00  0.00     0.063 SA
ENDBRANCH  11  15
ENDBRANCH   3   6
BRANCH   4  17
HETATM   17  C15 UNL     1      26.524   1.160  53.611  1.00  0.00    -0.002 A 
HETATM   18  C16 UNL     1      27.260   2.257  53.234  1.00  0.00     0.033 A 
HETATM   19  C17 UNL     1      28.555   2.393  53.684  1.00  0.00     0.117 A 
HETATM   20  N3  UNL     1      29.137   1.479  54.490  1.00  0.00    -0.273 NA
HETATM   21  C18 UNL     1      28.440   0.405  54.868  1.00  0.00     0.117 A 
HETATM   22  C19 UNL     1      27.120   0.206  54.447  1.00  0.00     0.033 A 
ENDBRANCH   4  17
BRANCH   1  23
HETATM   23  C2  UNL     1      22.260  -1.335  53.522  1.00  0.00     0.176 C 
BRANCH  23  24
HETATM   24  C1  UNL     1      21.819  -1.234  54.957  1.00  0.00     0.185 C 
BRANCH  24  25
HETATM   25  O1  UNL     1      22.812  -1.813  55.747  1.00  0.00    -0.399 OA
HETATM   26  H1  UNL     1      22.504  -1.980  56.674  1.00  0.00     0.209 HD
ENDBRANCH  24  25
ENDBRANCH  23  24
ENDBRANCH   1  23
TORSDOF 6
ENDMDL
MODEL 7
REMARK VINA RESULT:      -7.2      2.790      3.856
REMARK  6 active torsions:
REMARK  status: ('A' for Active; 'I' for Inactive)
REMARK    1  A    between atoms: O1_1  and  C1_2 
REMARK    2  A    between atoms: C1_2  and  C2_3 
REMARK    3  A    between atoms: C2_3  and  N1_4 
REMARK    4  A    between atoms: C4_6  and  C5_7 
REMARK    5  A    between atoms: C13_15  and  N2_16 
REMARK    6  A    between atoms: C14_18  and  C15_19 
ROOT
HETATM    1  N1  UNL     1      25.707   0.502  52.737  1.00  0.00    -0.277 N 
HETATM    2  C3  UNL     1      26.258   1.535  52.068  1.00  0.00     0.127 A 
HETATM    3  C4  UNL     1      25.278   2.251  51.377  1.00  0.00     0.023 A 
HETATM    4  C14 UNL     1      24.121   1.575  51.681  1.00  0.00     0.100 A 
HETATM    5  N4  UNL     1      24.389   0.533  52.494  1.00  0.00    -0.171 NA
ENDROOT
BRANCH   3   6
HETATM    6  C5  UNL     1      25.605   3.405  50.586  1.00  0.00    -0.022 A 
HETATM    7  C6  UNL     1      26.719   3.292  49.758  1.00  0.00     0.013 A 
HETATM    8  C7  UNL     1      27.139   4.332  48.952  1.00  0.00     0.011 A 
HETATM    9  C8  UNL     1      26.452   5.552  48.935  1.00  0.00    -0.026 A 
HETATM   10  C9  UNL     1      25.345   5.672  49.752  1.00  0.00    -0.049 A 
HETATM   11  C13 UNL     1      26.645   6.829  48.197  1.00  0.00     0.151 C 
HETATM   12  C10 UNL     1      24.951   4.615  50.547  1.00  0.00     0.020 A 
HETATM   13  C11 UNL     1      24.776   7.044  49.572  1.00  0.00     0.041 C 
HETATM   14  C12 UNL     1      25.206   7.345  48.146  1.00  0.00     0.037 C 
BRANCH  11  15
HETATM   15  N2  UNL     1      27.355   7.787  49.006  1.00  0.00    -0.235 NA
HETATM   16  S1  UNL     1      28.260   8.703  48.513  1.00  0.00     0.063 SA
ENDBRANCH  11  15
ENDBRANCH   3   6
BRANCH   4  17
HETATM   17  C15 UNL     1      22.819   1.980  51.165  1.00  0.00    -0.002 A 
HETATM   18  C16 UNL     1      22.222   1.772  49.945  1.00  0.00     0.033 A 
HETATM   19  C17 UNL     1      20.957   2.271  49.715  1.00  0.00     0.117 A 
HETATM   20  N3  UNL     1      20.277   2.967  50.652  1.00  0.00    -0.273 NA
HETATM   21  C18 UNL     1      20.839   3.180  51.843  1.00  0.00     0.117 A 
HETATM   22  C19 UNL     1      22.120   2.701  52.142  1.00  0.00     0.033 A 
ENDBRANCH   4  17
BRANCH   1  23
HETATM   23  C2  UNL     1      26.358  -0.487  53.575  1.00  0.00     0.176 C 
BRANCH  23  24
HETATM   24  C1  UNL     1      26.879   0.166  54.827  1.00  0.00     0.185 C 
BRANCH  24  25
HETATM   25  O1  UNL     1      28.188  -0.275  55.020  1.00  0.00    -0.399 OA
HETATM   26  H1  UNL     1      28.236  -1.253  55.170  1.00  0.00     0.209 HD
ENDBRANCH  24  25
ENDBRANCH  23  24
ENDBRANCH   1  23
TORSDOF 6
ENDMDL
MODEL 8
REMARK VINA RESULT:      -7.1      3.185      5.572
REMARK  6 active torsions:
REMARK  status: ('A' for Active; 'I' for Inactive)
REMARK    1  A    between atoms: O1_1  and  C1_2 
REMARK    2  A    between atoms: C1_2  and  C2_3 
REMARK    3  A    between atoms: C2_3  and  N1_4 
REMARK    4  A    between atoms: C4_6  and  C5_7 
REMARK    5  A    between atoms: C13_15  and  N2_16 
REMARK    6  A    between atoms: C14_18  and  C15_19 
ROOT
HETATM    1  N1  UNL     1      25.987   0.211  53.238  1.00  0.00    -0.277 N 
HETATM    2  C3  UNL     1      24.725  -0.196  52.996  1.00  0.00     0.127 A 
HETATM    3  C4  UNL     1      23.954   0.861  52.506  1.00  0.00     0.023 A 
HETATM    4  C14 UNL     1      24.841   1.910  52.476  1.00  0.00     0.100 A 
HETATM    5  N4  UNL     1      26.052   1.510  52.914  1.00  0.00    -0.171 NA
ENDROOT
BRANCH   3   6
HETATM    6  C5  UNL     1      22.569   0.689  52.166  1.00  0.00    -0.022 A 
HETATM    7  C6  UNL     1      22.210   0.996  50.856  1.00  0.00     0.013 A 
HETATM    8  C7  UNL     1      20.910   0.877  50.406  1.00  0.00     0.011 A 
HETATM    9  C8  UNL     1      19.891   0.437  51.260  1.00  0.00    -0.026 A 
HETATM   10  C9  UNL     1      20.238   0.129  52.561  1.00  0.00    -0.049 A 
HETATM   11  C13 UNL     1      18.432   0.208  51.085  1.00  0.00     0.151 C 
HETATM   12  C10 UNL     1      21.546   0.259  52.980  1.00  0.00     0.020 A 
HETATM   13  C11 UNL     1      19.004  -0.314  53.282  1.00  0.00     0.041 C 
HETATM   14  C12 UNL     1      18.191  -0.882  52.131  1.00  0.00     0.037 C 
BRANCH  11  15
HETATM   15  N2  UNL     1      17.675   1.343  51.547  1.00  0.00    -0.235 NA
HETATM   16  S1  UNL     1      17.100   2.285  50.719  1.00  0.00     0.063 SA
ENDBRANCH  11  15
ENDBRANCH   3   6
BRANCH   4  17
HETATM   17  C15 UNL     1      24.462   3.243  52.023  1.00  0.00    -0.002 A 
HETATM   18  C16 UNL     1      23.607   4.175  52.559  1.00  0.00     0.033 A 
HETATM   19  C17 UNL     1      23.428   5.381  51.916  1.00  0.00     0.117 A 
HETATM   20  N3  UNL     1      24.066   5.684  50.764  1.00  0.00    -0.273 NA
HETATM   21  C18 UNL     1      24.900   4.792  50.226  1.00  0.00     0.117 A 
HETATM   22  C19 UNL     1      25.127   3.549  50.828  1.00  0.00     0.033 A 
ENDBRANCH   4  17
BRANCH   1  23
HETATM   23  C2  UNL     1      27.107  -0.558  53.747  1.00  0.00     0.176 C 
BRANCH  23  24
HETATM   24  C1  UNL     1      27.948   0.299  54.652  1.00  0.00     0.185 C 
BRANCH  24  25
HETATM   25  O1  UNL     1      28.906   0.936  53.863  1.00  0.00    -0.399 OA
HETATM   26  H1  UNL     1      29.813   0.559  53.996  1.00  0.00     0.209 HD
ENDBRANCH  24  25
ENDBRANCH  23  24
ENDBRANCH   1  23
TORSDOF 6
ENDMDL
MODEL 9
REMARK VINA RESULT:      -7.1      3.818      5.785
REMARK  6 active torsions:
REMARK  status: ('A' for Active; 'I' for Inactive)
REMARK    1  A    between atoms: O1_1  and  C1_2 
REMARK    2  A    between atoms: C1_2  and  C2_3 
REMARK    3  A    between atoms: C2_3  and  N1_4 
REMARK    4  A    between atoms: C4_6  and  C5_7 
REMARK    5  A    between atoms: C13_15  and  N2_16 
REMARK    6  A    between atoms: C14_18  and  C15_19 
ROOT
HETATM    1  N1  UNL     1      24.654   1.650  51.921  1.00  0.00    -0.277 N 
HETATM    2  C3  UNL     1      25.514   2.578  51.455  1.00  0.00     0.127 A 
HETATM    3  C4  UNL     1      24.968   3.245  50.355  1.00  0.00     0.023 A 
HETATM    4  C14 UNL     1      23.739   2.650  50.205  1.00  0.00     0.100 A 
HETATM    5  N4  UNL     1      23.561   1.700  51.146  1.00  0.00    -0.171 NA
ENDROOT
BRANCH   3   6
HETATM    6  C5  UNL     1      25.685   4.286  49.673  1.00  0.00    -0.022 A 
HETATM    7  C6  UNL     1      26.985   3.985  49.274  1.00  0.00     0.013 A 
HETATM    8  C7  UNL     1      27.780   4.902  48.615  1.00  0.00     0.011 A 
HETATM    9  C8  UNL     1      27.302   6.185  48.317  1.00  0.00    -0.026 A 
HETATM   10  C9  UNL     1      26.013   6.492  48.709  1.00  0.00    -0.049 A 
HETATM   11  C13 UNL     1      27.893   7.368  47.637  1.00  0.00     0.151 C 
HETATM   12  C10 UNL     1      25.245   5.554  49.367  1.00  0.00     0.020 A 
HETATM   13  C11 UNL     1      25.720   7.898  48.291  1.00  0.00     0.041 C 
HETATM   14  C12 UNL     1      26.631   8.032  47.082  1.00  0.00     0.037 C 
BRANCH  11  15
HETATM   15  N2  UNL     1      28.416   8.305  48.597  1.00  0.00    -0.235 NA
HETATM   16  S1  UNL     1      29.759   8.520  48.823  1.00  0.00     0.063 SA
ENDBRANCH  11  15
ENDBRANCH   3   6
BRANCH   4  17
HETATM   17  C15 UNL     1      22.804   3.039  49.156  1.00  0.00    -0.002 A 
HETATM   18  C16 UNL     1      22.668   2.612  47.857  1.00  0.00     0.033 A 
HETATM   19  C17 UNL     1      21.680   3.155  47.064  1.00  0.00     0.117 A 
HETATM   20  N3  UNL     1      20.831   4.102  47.519  1.00  0.00    -0.273 NA
HETATM   21  C18 UNL     1      20.946   4.531  48.777  1.00  0.00     0.117 A 
HETATM   22  C19 UNL     1      21.928   4.022  49.635  1.00  0.00     0.033 A 
ENDBRANCH   4  17
BRANCH   1  23
HETATM   23  C2  UNL     1      24.817   0.743  53.040  1.00  0.00     0.176 C 
BRANCH  23  24
HETATM   24  C1  UNL     1      23.589  -0.113  53.190  1.00  0.00     0.185 C 
BRANCH  24  25
HETATM   25  O1  UNL     1      22.554   0.708  53.640  1.00  0.00    -0.399 OA
HETATM   26  H1  UNL     1      21.913   0.933  52.918  1.00  0.00     0.209 HD
ENDBRANCH  24  25
ENDBRANCH  23  24
ENDBRANCH   1  23
TORSDOF 6
ENDMDL
