MODEL 1
REMARK VINA RESULT:      -7.8      0.000      0.000
REMARK  5 active torsions:
REMARK  status: ('A' for Active; 'I' for Inactive)
REMARK    1  A    between atoms: C1_1  and  C2_2 
REMARK    2  A    between atoms: C1_1  and  C13_16 
REMARK    3  A    between atoms: C2_2  and  N1_3 
REMARK    4  A    between atoms: N1_3  and  C3_4 
REMARK    5  A    between atoms: C5_6  and  C6_7 
ROOT
HETATM    1  C3  UNL     1      24.217   3.079  50.138  1.00  0.00     0.130 A 
HETATM    2  C4  UNL     1      24.873   2.214  51.025  1.00  0.00     0.083 A 
HETATM    3  C5  UNL     1      26.245   2.265  51.236  1.00  0.00     0.072 A 
HETATM    4  N2  UNL     1      26.908   3.201  50.533  1.00  0.00    -0.241 NA
HETATM    5  C12 UNL     1      26.311   4.044  49.674  1.00  0.00     0.235 A 
HETATM    6  N3  UNL     1      24.987   3.968  49.495  1.00  0.00    -0.224 NA
ENDROOT
BRANCH   1   7
HETATM    7  N1  UNL     1      22.810   2.807  50.118  1.00  0.00    -0.354 N 
HETATM    8  H3  UNL     1      22.529   3.760  50.450  1.00  0.00     0.166 HD
BRANCH   7   9
HETATM    9  C2  UNL     1      22.112   1.619  49.764  1.00  0.00     0.072 C 
BRANCH   9  10
HETATM   10  C1  UNL     1      21.462   0.965  50.678  1.00  0.00     0.061 C 
BRANCH  10  11
HETATM   11  C13 UNL     1      20.440   0.475  51.554  1.00  0.00     0.017 C 
HETATM   12  C14 UNL     1      21.143  -0.102  52.541  1.00  0.00     0.047 C 
HETATM   13  C15 UNL     1      22.629  -0.141  52.575  1.00  0.00     0.091 C 
HETATM   14  O1  UNL     1      20.523  -0.713  53.617  1.00  0.00    -0.352 OA
HETATM   15  C16 UNL     1      23.138  -0.393  53.957  1.00  0.00    -0.022 C 
HETATM   16  C17 UNL     1      22.516  -1.104  54.887  1.00  0.00    -0.004 C 
HETATM   17  C18 UNL     1      21.210  -1.647  54.399  1.00  0.00     0.202 C 
ENDBRANCH  10  11
ENDBRANCH   9  10
ENDBRANCH   7   9
ENDBRANCH   1   7
BRANCH   3  18
HETATM   18  C6  UNL     1      26.958   1.395  52.161  1.00  0.00    -0.007 A 
HETATM   19  C7  UNL     1      26.763   0.039  52.265  1.00  0.00     0.014 A 
HETATM   20  C8  UNL     1      27.417  -0.800  53.146  1.00  0.00     0.001 A 
HETATM   21  C9  UNL     1      28.355  -0.199  53.996  1.00  0.00     0.000 A 
HETATM   22  C10 UNL     1      28.583   1.181  53.921  1.00  0.00     0.001 A 
HETATM   23  C11 UNL     1      27.888   1.954  53.013  1.00  0.00     0.014 A 
ENDBRANCH   3  18
TORSDOF 5
ENDMDL
MODEL 2
REMARK VINA RESULT:      -7.7      3.166      6.225
REMARK  5 active torsions:
REMARK  status: ('A' for Active; 'I' for Inactive)
REMARK    1  A    between atoms: C1_1  and  C2_2 
REMARK    2  A    between atoms: C1_1  and  C13_16 
REMARK    3  A    between atoms: C2_2  and  N1_3 
REMARK    4  A    between atoms: N1_3  and  C3_4 
REMARK    5  A    between atoms: C5_6  and  C6_7 
ROOT
HETATM    1  C3  UNL     1      24.140   1.729  52.179  1.00  0.00     0.130 A 
HETATM    2  C4  UNL     1      25.489   1.385  52.349  1.00  0.00     0.083 A 
HETATM    3  C5  UNL     1      25.884   0.209  52.973  1.00  0.00     0.072 A 
HETATM    4  N2  UNL     1      24.888  -0.583  53.408  1.00  0.00    -0.241 NA
HETATM    5  C12 UNL     1      23.586  -0.284  53.263  1.00  0.00     0.235 A 
HETATM    6  N3  UNL     1      23.240   0.858  52.655  1.00  0.00    -0.224 NA
ENDROOT
BRANCH   1   7
HETATM    7  N1  UNL     1      24.023   2.988  51.505  1.00  0.00    -0.354 N 
HETATM    8  H3  UNL     1      23.790   3.532  52.369  1.00  0.00     0.166 HD
BRANCH   7   9
HETATM    9  C2  UNL     1      24.178   3.307  50.127  1.00  0.00     0.072 C 
BRANCH   9  10
HETATM   10  C1  UNL     1      25.370   3.468  49.639  1.00  0.00     0.061 C 
BRANCH  10  11
HETATM   11  C13 UNL     1      26.782   3.396  49.407  1.00  0.00     0.017 C 
HETATM   12  C14 UNL     1      27.084   4.642  49.008  1.00  0.00     0.047 C 
HETATM   13  C15 UNL     1      26.077   5.730  48.888  1.00  0.00     0.091 C 
HETATM   14  O1  UNL     1      28.375   5.009  48.675  1.00  0.00    -0.352 OA
HETATM   15  C16 UNL     1      26.724   7.077  48.901  1.00  0.00    -0.022 C 
HETATM   16  C17 UNL     1      27.936   7.352  48.440  1.00  0.00    -0.004 C 
HETATM   17  C18 UNL     1      28.615   6.138  47.887  1.00  0.00     0.202 C 
ENDBRANCH  10  11
ENDBRANCH   9  10
ENDBRANCH   7   9
ENDBRANCH   1   7
BRANCH   3  18
HETATM   18  C6  UNL     1      27.274  -0.190  53.152  1.00  0.00    -0.007 A 
HETATM   19  C7  UNL     1      27.739  -1.476  53.021  1.00  0.00     0.014 A 
HETATM   20  C8  UNL     1      29.049  -1.876  53.202  1.00  0.00     0.001 A 
HETATM   21  C9  UNL     1      29.964  -0.872  53.544  1.00  0.00     0.000 A 
HETATM   22  C10 UNL     1      29.528   0.451  53.687  1.00  0.00     0.001 A 
HETATM   23  C11 UNL     1      28.201   0.773  53.491  1.00  0.00     0.014 A 
ENDBRANCH   3  18
TORSDOF 5
ENDMDL
MODEL 3
REMARK VINA RESULT:      -7.6      2.427      5.488
REMARK  5 active torsions:
REMARK  status: ('A' for Active; 'I' for Inactive)
REMARK    1  A    between atoms: C1_1  and  C2_2 
REMARK    2  A    between atoms: C1_1  and  C13_16 
REMARK    3  A    between atoms: C2_2  and  N1_3 
REMARK    4  A    between atoms: N1_3  and  C3_4 
REMARK    5  A    between atoms: C5_6  and  C6_7 
ROOT
HETATM    1  C3  UNL     1      22.997   1.735  51.319  1.00  0.00     0.130 A 
HETATM    2  C4  UNL     1      24.044   2.599  50.967  1.00  0.00     0.083 A 
HETATM    3  C5  UNL     1      24.134   3.186  49.711  1.00  0.00     0.072 A 
HETATM    4  N2  UNL     1      23.151   2.870  48.849  1.00  0.00    -0.241 NA
HETATM    5  C12 UNL     1      22.136   2.045  49.152  1.00  0.00     0.235 A 
HETATM    6  N3  UNL     1      22.078   1.497  50.372  1.00  0.00    -0.224 NA
ENDROOT
BRANCH   1   7
HETATM    7  N1  UNL     1      23.153   1.280  52.669  1.00  0.00    -0.354 N 
HETATM    8  H3  UNL     1      22.946   2.211  53.102  1.00  0.00     0.166 HD
BRANCH   7   9
HETATM    9  C2  UNL     1      23.484  -0.010  53.169  1.00  0.00     0.072 C 
BRANCH   9  10
HETATM   10  C1  UNL     1      24.601  -0.179  53.808  1.00  0.00     0.061 C 
BRANCH  10  11
HETATM   11  C13 UNL     1      25.608  -0.636  54.718  1.00  0.00     0.017 C 
HETATM   12  C14 UNL     1      26.679   0.097  54.372  1.00  0.00     0.047 C 
HETATM   13  C15 UNL     1      26.663   1.105  53.279  1.00  0.00     0.091 C 
HETATM   14  O1  UNL     1      27.894  -0.036  55.019  1.00  0.00    -0.352 OA
HETATM   15  C16 UNL     1      27.785   2.082  53.419  1.00  0.00    -0.022 C 
HETATM   16  C17 UNL     1      28.971   1.818  53.951  1.00  0.00    -0.004 C 
HETATM   17  C18 UNL     1      29.076   0.398  54.411  1.00  0.00     0.202 C 
ENDBRANCH  10  11
ENDBRANCH   9  10
ENDBRANCH   7   9
ENDBRANCH   1   7
BRANCH   3  18
HETATM   18  C6  UNL     1      25.196   4.102  49.316  1.00  0.00    -0.007 A 
HETATM   19  C7  UNL     1      26.531   3.779  49.281  1.00  0.00     0.014 A 
HETATM   20  C8  UNL     1      27.553   4.637  48.925  1.00  0.00     0.001 A 
HETATM   21  C9  UNL     1      27.177   5.940  48.572  1.00  0.00     0.000 A 
HETATM   22  C10 UNL     1      25.825   6.307  48.595  1.00  0.00     0.001 A 
HETATM   23  C11 UNL     1      24.860   5.392  48.964  1.00  0.00     0.014 A 
ENDBRANCH   3  18
TORSDOF 5
ENDMDL
MODEL 4
REMARK VINA RESULT:      -7.4      2.819      5.040
REMARK  5 active torsions:
REMARK  status: ('A' for Active; 'I' for Inactive)
REMARK    1  A    between atoms: C1_1  and  C2_2 
REMARK    2  A    between atoms: C1_1  and  C13_16 
REMARK    3  A    between atoms: C2_2  and  N1_3 
REMARK    4  A    between atoms: N1_3  and  C3_4 
REMARK    5  A    between atoms: C5_6  and  C6_7 
ROOT
HETATM    1  C3  UNL     1      22.931  -0.614  53.522  1.00  0.00     0.130 A 
HETATM    2  C4  UNL     1      24.302  -0.396  53.322  1.00  0.00     0.083 A 
HETATM    3  C5  UNL     1      25.252  -0.702  54.289  1.00  0.00     0.072 A 
HETATM    4  N2  UNL     1      24.773  -1.220  55.434  1.00  0.00    -0.241 NA
HETATM    5  C12 UNL     1      23.467  -1.440  55.659  1.00  0.00     0.235 A 
HETATM    6  N3  UNL     1      22.578  -1.135  54.706  1.00  0.00    -0.224 NA
ENDROOT
BRANCH   1   7
HETATM    7  N1  UNL     1      22.185  -0.213  52.367  1.00  0.00    -0.354 N 
HETATM    8  H3  UNL     1      22.250  -1.143  51.890  1.00  0.00     0.166 HD
BRANCH   7   9
HETATM    9  C2  UNL     1      21.596   1.042  52.047  1.00  0.00     0.072 C 
BRANCH   9  10
HETATM   10  C1  UNL     1      22.161   1.805  51.162  1.00  0.00     0.061 C 
BRANCH  10  11
HETATM   11  C13 UNL     1      22.482   2.505  49.954  1.00  0.00     0.017 C 
HETATM   12  C14 UNL     1      23.776   2.822  50.127  1.00  0.00     0.047 C 
HETATM   13  C15 UNL     1      24.553   2.460  51.342  1.00  0.00     0.091 C 
HETATM   14  O1  UNL     1      24.490   3.521  49.170  1.00  0.00    -0.352 OA
HETATM   15  C16 UNL     1      26.024   2.496  51.081  1.00  0.00    -0.022 C 
HETATM   16  C17 UNL     1      26.631   3.299  50.219  1.00  0.00    -0.004 C 
HETATM   17  C18 UNL     1      25.666   4.196  49.510  1.00  0.00     0.202 C 
ENDBRANCH  10  11
ENDBRANCH   9  10
ENDBRANCH   7   9
ENDBRANCH   1   7
BRANCH   3  18
HETATM   18  C6  UNL     1      26.685  -0.507  54.110  1.00  0.00    -0.007 A 
HETATM   19  C7  UNL     1      27.428   0.451  54.757  1.00  0.00     0.014 A 
HETATM   20  C8  UNL     1      28.783   0.662  54.589  1.00  0.00     0.001 A 
HETATM   21  C9  UNL     1      29.436  -0.181  53.681  1.00  0.00     0.000 A 
HETATM   22  C10 UNL     1      28.712  -1.170  53.001  1.00  0.00     0.001 A 
HETATM   23  C11 UNL     1      27.358  -1.319  53.222  1.00  0.00     0.014 A 
ENDBRANCH   3  18
TORSDOF 5
ENDMDL
MODEL 5
REMARK VINA RESULT:      -7.4      4.094      7.550
REMARK  5 active torsions:
REMARK  status: ('A' for Active; 'I' for Inactive)
REMARK    1  A    between atoms: C1_1  and  C2_2 
REMARK    2  A    between atoms: C1_1  and  C13_16 
REMARK    3  A    between atoms: C2_2  and  N1_3 
REMARK    4  A    between atoms: N1_3  and  C3_4 
REMARK    5  A    between atoms: C5_6  and  C6_7 
ROOT
HETATM    1  C3  UNL     1      25.742   2.832  51.254  1.00  0.00     0.130 A 
HETATM    2  C4  UNL     1      26.689   1.860  51.610  1.00  0.00     0.083 A 
HETATM    3  C5  UNL     1      26.342   0.696  52.284  1.00  0.00     0.072 A 
HETATM    4  N2  UNL     1      25.036   0.558  52.575  1.00  0.00    -0.241 NA
HETATM    5  C12 UNL     1      24.104   1.468  52.250  1.00  0.00     0.235 A 
HETATM    6  N3  UNL     1      24.472   2.580  51.601  1.00  0.00    -0.224 NA
ENDROOT
BRANCH   1   7
HETATM    7  N1  UNL     1      26.373   3.921  50.570  1.00  0.00    -0.354 N 
HETATM    8  H3  UNL     1      26.579   4.467  51.440  1.00  0.00     0.166 HD
BRANCH   7   9
HETATM    9  C2  UNL     1      26.597   4.123  49.180  1.00  0.00     0.072 C 
BRANCH   9  10
HETATM   10  C1  UNL     1      27.087   5.253  48.770  1.00  0.00     0.061 C 
BRANCH  10  11
HETATM   11  C13 UNL     1      27.236   6.578  48.245  1.00  0.00     0.017 C 
HETATM   12  C14 UNL     1      28.560   6.673  48.044  1.00  0.00     0.047 C 
HETATM   13  C15 UNL     1      29.515   5.574  48.344  1.00  0.00     0.091 C 
HETATM   14  O1  UNL     1      29.139   7.821  47.533  1.00  0.00    -0.352 OA
HETATM   15  C16 UNL     1      30.801   5.750  47.603  1.00  0.00    -0.022 C 
HETATM   16  C17 UNL     1      31.339   6.914  47.263  1.00  0.00    -0.004 C 
HETATM   17  C18 UNL     1      30.503   8.071  47.712  1.00  0.00     0.202 C 
ENDBRANCH  10  11
ENDBRANCH   9  10
ENDBRANCH   7   9
ENDBRANCH   1   7
BRANCH   3  18
HETATM   18  C6  UNL     1      27.294  -0.343  52.654  1.00  0.00    -0.007 A 
HETATM   19  C7  UNL     1      28.529  -0.106  53.209  1.00  0.00     0.014 A 
HETATM   20  C8  UNL     1      29.452  -1.076  53.552  1.00  0.00     0.001 A 
HETATM   21  C9  UNL     1      29.078  -2.404  53.309  1.00  0.00     0.000 A 
HETATM   22  C10 UNL     1      27.827  -2.686  52.744  1.00  0.00     0.001 A 
HETATM   23  C11 UNL     1      26.959  -1.661  52.427  1.00  0.00     0.014 A 
ENDBRANCH   3  18
TORSDOF 5
ENDMDL
MODEL 6
REMARK VINA RESULT:      -7.4      2.794      5.544
REMARK  5 active torsions:
REMARK  status: ('A' for Active; 'I' for Inactive)
REMARK    1  A    between atoms: C1_1  and  C2_2 
REMARK    2  A    between atoms: C1_1  and  C13_16 
REMARK    3  A    between atoms: C2_2  and  N1_3 
REMARK    4  A    between atoms: N1_3  and  C3_4 
REMARK    5  A    between atoms: C5_6  and  C6_7 
ROOT
HETATM    1  C3  UNL     1      23.276   3.766  51.931  1.00  0.00     0.130 A 
HETATM    2  C4  UNL     1      24.437   4.034  51.191  1.00  0.00     0.083 A 
HETATM    3  C5  UNL     1      24.607   5.211  50.473  1.00  0.00     0.072 A 
HETATM    4  N2  UNL     1      23.584   6.083  50.532  1.00  0.00    -0.241 NA
HETATM    5  C12 UNL     1      22.459   5.858  51.230  1.00  0.00     0.235 A 
HETATM    6  N3  UNL     1      22.327   4.713  51.911  1.00  0.00    -0.224 NA
ENDROOT
BRANCH   1   7
HETATM    7  N1  UNL     1      23.371   2.487  52.570  1.00  0.00    -0.354 N 
HETATM    8  H3  UNL     1      22.975   2.813  53.483  1.00  0.00     0.166 HD
BRANCH   7   9
HETATM    9  C2  UNL     1      23.856   1.247  52.069  1.00  0.00     0.072 C 
BRANCH   9  10
HETATM   10  C1  UNL     1      24.640   0.524  52.808  1.00  0.00     0.061 C 
BRANCH  10  11
HETATM   11  C13 UNL     1      25.305  -0.577  53.440  1.00  0.00     0.017 C 
HETATM   12  C14 UNL     1      26.596  -0.207  53.404  1.00  0.00     0.047 C 
HETATM   13  C15 UNL     1      27.065   1.074  52.813  1.00  0.00     0.091 C 
HETATM   14  O1  UNL     1      27.598  -1.007  53.923  1.00  0.00    -0.352 OA
HETATM   15  C16 UNL     1      28.421   1.445  53.320  1.00  0.00    -0.022 C 
HETATM   16  C17 UNL     1      29.367   0.589  53.682  1.00  0.00    -0.004 C 
HETATM   17  C18 UNL     1      28.927  -0.832  53.526  1.00  0.00     0.202 C 
ENDBRANCH  10  11
ENDBRANCH   9  10
ENDBRANCH   7   9
ENDBRANCH   1   7
BRANCH   3  18
HETATM   18  C6  UNL     1      25.805   5.531  49.708  1.00  0.00    -0.007 A 
HETATM   19  C7  UNL     1      26.168   6.798  49.321  1.00  0.00     0.014 A 
HETATM   20  C8  UNL     1      27.290   7.120  48.583  1.00  0.00     0.001 A 
HETATM   21  C9  UNL     1      28.115   6.051  48.207  1.00  0.00     0.000 A 
HETATM   22  C10 UNL     1      27.778   4.744  48.581  1.00  0.00     0.001 A 
HETATM   23  C11 UNL     1      26.637   4.502  49.320  1.00  0.00     0.014 A 
ENDBRANCH   3  18
TORSDOF 5
ENDMDL
MODEL 7
REMARK VINA RESULT:      -7.3      3.565      7.531
REMARK  5 active torsions:
REMARK  status: ('A' for Active; 'I' for Inactive)
REMARK    1  A    between atoms: C1_1  and  C2_2 
REMARK    2  A    between atoms: C1_1  and  C13_16 
REMARK    3  A    between atoms: C2_2  and  N1_3 
REMARK    4  A    between atoms: N1_3  and  C3_4 
REMARK    5  A    between atoms: C5_6  and  C6_7 
ROOT
HETATM    1  C3  UNL     1      26.758   2.036  52.104  1.00  0.00     0.130 A 
HETATM    2  C4  UNL     1      25.431   1.652  52.343  1.00  0.00     0.083 A 
HETATM    3  C5  UNL     1      25.101   0.608  53.199  1.00  0.00     0.072 A 
HETATM    4  N2  UNL     1      26.139  -0.014  53.786  1.00  0.00    -0.241 NA
HETATM    5  C12 UNL     1      27.422   0.327  53.578  1.00  0.00     0.235 A 
HETATM    6  N3  UNL     1      27.705   1.338  52.748  1.00  0.00    -0.224 NA
ENDROOT
BRANCH   1   7
HETATM    7  N1  UNL     1      26.806   3.136  51.187  1.00  0.00    -0.354 N 
HETATM    8  H3  UNL     1      27.213   3.812  51.876  1.00  0.00     0.166 HD
BRANCH   7   9
HETATM    9  C2  UNL     1      26.409   3.209  49.823  1.00  0.00     0.072 C 
BRANCH   9  10
HETATM   10  C1  UNL     1      26.372   4.363  49.230  1.00  0.00     0.061 C 
BRANCH  10  11
HETATM   11  C13 UNL     1      26.066   5.716  48.874  1.00  0.00     0.017 C 
HETATM   12  C14 UNL     1      27.262   6.207  48.511  1.00  0.00     0.047 C 
HETATM   13  C15 UNL     1      28.516   5.409  48.529  1.00  0.00     0.091 C 
HETATM   14  O1  UNL     1      27.415   7.516  48.087  1.00  0.00    -0.352 OA
HETATM   15  C16 UNL     1      29.564   6.015  47.653  1.00  0.00    -0.022 C 
HETATM   16  C17 UNL     1      29.702   7.311  47.405  1.00  0.00    -0.004 C 
HETATM   17  C18 UNL     1      28.670   8.131  48.113  1.00  0.00     0.202 C 
ENDBRANCH  10  11
ENDBRANCH   9  10
ENDBRANCH   7   9
ENDBRANCH   1   7
BRANCH   3  18
HETATM   18  C6  UNL     1      23.735   0.192  53.485  1.00  0.00    -0.007 A 
HETATM   19  C7  UNL     1      23.393  -0.836  54.330  1.00  0.00     0.014 A 
HETATM   20  C8  UNL     1      22.105  -1.255  54.602  1.00  0.00     0.001 A 
HETATM   21  C9  UNL     1      21.075  -0.561  53.953  1.00  0.00     0.000 A 
HETATM   22  C10 UNL     1      21.383   0.494  53.084  1.00  0.00     0.001 A 
HETATM   23  C11 UNL     1      22.697   0.854  52.863  1.00  0.00     0.014 A 
ENDBRANCH   3  18
TORSDOF 5
ENDMDL
MODEL 8
REMARK VINA RESULT:      -7.3      3.502      7.308
REMARK  5 active torsions:
REMARK  status: ('A' for Active; 'I' for Inactive)
REMARK    1  A    between atoms: C1_1  and  C2_2 
REMARK    2  A    between atoms: C1_1  and  C13_16 
REMARK    3  A    between atoms: C2_2  and  N1_3 
REMARK    4  A    between atoms: N1_3  and  C3_4 
REMARK    5  A    between atoms: C5_6  and  C6_7 
ROOT
HETATM    1  C3  UNL     1      26.611   1.845  52.111  1.00  0.00     0.130 A 
HETATM    2  C4  UNL     1      25.273   1.469  52.300  1.00  0.00     0.083 A 
HETATM    3  C5  UNL     1      24.911   0.357  53.050  1.00  0.00     0.072 A 
HETATM    4  N2  UNL     1      25.929  -0.340  53.586  1.00  0.00    -0.241 NA
HETATM    5  C12 UNL     1      27.221  -0.009  53.423  1.00  0.00     0.235 A 
HETATM    6  N3  UNL     1      27.535   1.069  52.695  1.00  0.00    -0.224 NA
ENDROOT
BRANCH   1   7
HETATM    7  N1  UNL     1      26.692   3.025  51.302  1.00  0.00    -0.354 N 
HETATM    8  H3  UNL     1      26.908   3.668  52.101  1.00  0.00     0.166 HD
BRANCH   7   9
HETATM    9  C2  UNL     1      26.519   3.188  49.900  1.00  0.00     0.072 C 
BRANCH   9  10
HETATM   10  C1  UNL     1      26.914   4.285  49.331  1.00  0.00     0.061 C 
BRANCH  10  11
HETATM   11  C13 UNL     1      27.582   5.237  48.494  1.00  0.00     0.017 C 
HETATM   12  C14 UNL     1      26.936   6.382  48.768  1.00  0.00     0.047 C 
HETATM   13  C15 UNL     1      25.812   6.477  49.736  1.00  0.00     0.091 C 
HETATM   14  O1  UNL     1      27.276   7.575  48.157  1.00  0.00    -0.352 OA
HETATM   15  C16 UNL     1      25.606   7.883  50.200  1.00  0.00    -0.022 C 
HETATM   16  C17 UNL     1      25.852   8.971  49.483  1.00  0.00    -0.004 C 
HETATM   17  C18 UNL     1      26.371   8.640  48.120  1.00  0.00     0.202 C 
ENDBRANCH  10  11
ENDBRANCH   9  10
ENDBRANCH   7   9
ENDBRANCH   1   7
BRANCH   3  18
HETATM   18  C6  UNL     1      23.533  -0.053  53.283  1.00  0.00    -0.007 A 
HETATM   19  C7  UNL     1      22.469   0.304  52.490  1.00  0.00     0.014 A 
HETATM   20  C8  UNL     1      21.154  -0.061  52.703  1.00  0.00     0.001 A 
HETATM   21  C9  UNL     1      20.905  -0.864  53.824  1.00  0.00     0.000 A 
HETATM   22  C10 UNL     1      21.964  -1.249  54.656  1.00  0.00     0.001 A 
HETATM   23  C11 UNL     1      23.253  -0.843  54.378  1.00  0.00     0.014 A 
ENDBRANCH   3  18
TORSDOF 5
ENDMDL
MODEL 9
REMARK VINA RESULT:      -7.2      2.892      5.431
REMARK  5 active torsions:
REMARK  status: ('A' for Active; 'I' for Inactive)
REMARK    1  A    between atoms: C1_1  and  C2_2 
REMARK    2  A    between atoms: C1_1  and  C13_16 
REMARK    3  A    between atoms: C2_2  and  N1_3 
REMARK    4  A    between atoms: N1_3  and  C3_4 
REMARK    5  A    between atoms: C5_6  and  C6_7 
ROOT
HETATM    1  C3  UNL     1      22.996   1.429  52.385  1.00  0.00     0.130 A 
HETATM    2  C4  UNL     1      24.336   1.707  52.690  1.00  0.00     0.083 A 
HETATM    3  C5  UNL     1      25.148   0.805  53.367  1.00  0.00     0.072 A 
HETATM    4  N2  UNL     1      24.565  -0.356  53.714  1.00  0.00    -0.241 NA
HETATM    5  C12 UNL     1      23.284  -0.654  53.440  1.00  0.00     0.235 A 
HETATM    6  N3  UNL     1      22.530   0.238  52.785  1.00  0.00    -0.224 NA
ENDROOT
BRANCH   1   7
HETATM    7  N1  UNL     1      22.401   2.529  51.685  1.00  0.00    -0.354 N 
HETATM    8  H3  UNL     1      21.985   2.967  52.541  1.00  0.00     0.166 HD
BRANCH   7   9
HETATM    9  C2  UNL     1      22.411   2.844  50.298  1.00  0.00     0.072 C 
BRANCH   9  10
HETATM   10  C1  UNL     1      22.839   4.007  49.911  1.00  0.00     0.061 C 
BRANCH  10  11
HETATM   11  C13 UNL     1      23.275   5.118  49.118  1.00  0.00     0.017 C 
HETATM   12  C14 UNL     1      24.612   4.995  49.140  1.00  0.00     0.047 C 
HETATM   13  C15 UNL     1      25.323   3.908  49.862  1.00  0.00     0.091 C 
HETATM   14  O1  UNL     1      25.436   5.889  48.480  1.00  0.00    -0.352 OA
HETATM   15  C16 UNL     1      26.712   3.724  49.343  1.00  0.00    -0.022 C 
HETATM   16  C17 UNL     1      27.475   4.683  48.835  1.00  0.00    -0.004 C 
HETATM   17  C18 UNL     1      26.783   6.010  48.835  1.00  0.00     0.202 C 
ENDBRANCH  10  11
ENDBRANCH   9  10
ENDBRANCH   7   9
ENDBRANCH   1   7
BRANCH   3  18
HETATM   18  C6  UNL     1      26.548   1.051  53.684  1.00  0.00    -0.007 A 
HETATM   19  C7  UNL     1      27.255   2.159  53.284  1.00  0.00     0.014 A 
HETATM   20  C8  UNL     1      28.586   2.403  53.561  1.00  0.00     0.001 A 
HETATM   21  C9  UNL     1      29.253   1.429  54.316  1.00  0.00     0.000 A 
HETATM   22  C10 UNL     1      28.566   0.285  54.743  1.00  0.00     0.001 A 
HETATM   23  C11 UNL     1      27.234   0.112  54.425  1.00  0.00     0.014 A 
ENDBRANCH   3  18
TORSDOF 5
ENDMDL
