MODEL 1
REMARK VINA RESULT:      -7.5      0.000      0.000
REMARK  5 active torsions:
REMARK  status: ('A' for Active; 'I' for Inactive)
REMARK    1  A    between atoms: C2_2  and  C3_3 
REMARK    2  A    between atoms: C2_2  and  C11_16 
REMARK       I    between atoms: C3_3  and  N1_5 
REMARK    3  A    between atoms: N1_5  and  S1_6 
REMARK    4  A    between atoms: S1_6  and  C4_9 
REMARK    5  A    between atoms: N2_18  and  C12_19 
ROOT
HETATM    1  C3  UNL     1      25.961   0.006  52.627  1.00  0.00     0.267 C 
HETATM    2  O1  UNL     1      24.851   0.053  53.247  1.00  0.00    -0.267 OA
HETATM    3  N1  UNL     1      26.199   1.073  51.747  1.00  0.00    -0.246 N 
HETATM    4  H3  UNL     1      27.088   1.061  51.233  1.00  0.00     0.182 HD
ENDROOT
BRANCH   3   5
HETATM    5  S1  UNL     1      24.976   2.289  51.619  1.00  0.00     0.265 S 
HETATM    6  O2  UNL     1      23.732   1.644  51.088  1.00  0.00    -0.200 OA
HETATM    7  O3  UNL     1      24.716   2.821  53.009  1.00  0.00    -0.200 OA
BRANCH   5   8
HETATM    8  C4  UNL     1      25.556   3.558  50.582  1.00  0.00     0.080 A 
HETATM    9  C5  UNL     1      24.874   4.755  50.516  1.00  0.00     0.026 A 
HETATM   10  C6  UNL     1      25.307   5.800  49.696  1.00  0.00     0.008 A 
HETATM   11  C7  UNL     1      26.441   5.645  48.928  1.00  0.00    -0.062 A 
HETATM   12  C8  UNL     1      26.777   6.835  48.110  1.00  0.00     0.048 C 
HETATM   13  C9  UNL     1      27.127   4.451  48.989  1.00  0.00     0.008 A 
HETATM   14  C10 UNL     1      26.689   3.424  49.806  1.00  0.00     0.026 A 
ENDBRANCH   5   8
ENDBRANCH   3   5
BRANCH   1  15
HETATM   15  C2  UNL     1      26.990  -1.018  52.736  1.00  0.00     0.063 C 
HETATM   16  C1  UNL     1      26.913  -2.266  52.370  1.00  0.00     0.032 C 
BRANCH  15  17
HETATM   17  C11 UNL     1      28.216  -0.527  53.329  1.00  0.00     0.136 A 
HETATM   18 CL1  UNL     1      29.791  -1.243  53.210  1.00  0.00    -0.045 Cl
HETATM   19  N2  UNL     1      29.167   0.076  53.934  1.00  0.00    -0.287 N 
BRANCH  19  20
HETATM   20  C12 UNL     1      28.872   1.290  54.664  1.00  0.00     0.139 C 
HETATM   21  C13 UNL     1      28.751   2.402  53.648  1.00  0.00     0.028 C 
ENDBRANCH  19  20
ENDBRANCH  15  17
ENDBRANCH   1  15
TORSDOF 5
ENDMDL
MODEL 2
REMARK VINA RESULT:      -7.2      3.099      6.530
REMARK  5 active torsions:
REMARK  status: ('A' for Active; 'I' for Inactive)
REMARK    1  A    between atoms: C2_2  and  C3_3 
REMARK    2  A    between atoms: C2_2  and  C11_16 
REMARK       I    between atoms: C3_3  and  N1_5 
REMARK    3  A    between atoms: N1_5  and  S1_6 
REMARK    4  A    between atoms: S1_6  and  C4_9 
REMARK    5  A    between atoms: N2_18  and  C12_19 
ROOT
HETATM    1  C3  UNL     1      26.289   3.672  49.993  1.00  0.00     0.267 C 
HETATM    2  O1  UNL     1      26.419   2.445  49.684  1.00  0.00    -0.267 OA
HETATM    3  N1  UNL     1      25.628   3.916  51.208  1.00  0.00    -0.246 N 
HETATM    4  H3  UNL     1      25.509   4.899  51.482  1.00  0.00     0.182 HD
ENDROOT
BRANCH   3   5
HETATM    5  S1  UNL     1      25.085   2.544  52.109  1.00  0.00     0.265 S 
HETATM    6  O2  UNL     1      24.278   3.040  53.270  1.00  0.00    -0.200 OA
HETATM    7  O3  UNL     1      24.206   1.719  51.197  1.00  0.00    -0.200 OA
BRANCH   5   8
HETATM    8  C4  UNL     1      26.470   1.622  52.613  1.00  0.00     0.080 A 
HETATM    9  C5  UNL     1      26.474   0.251  52.461  1.00  0.00     0.026 A 
HETATM   10  C6  UNL     1      27.567  -0.526  52.853  1.00  0.00     0.008 A 
HETATM   11  C7  UNL     1      28.674   0.078  53.407  1.00  0.00    -0.062 A 
HETATM   12  C8  UNL     1      29.753  -0.871  53.773  1.00  0.00     0.048 C 
HETATM   13  C9  UNL     1      28.678   1.448  53.561  1.00  0.00     0.008 A 
HETATM   14  C10 UNL     1      27.590   2.207  53.168  1.00  0.00     0.026 A 
ENDBRANCH   5   8
ENDBRANCH   3   5
BRANCH   1  15
HETATM   15  C2  UNL     1      26.747   4.827  49.233  1.00  0.00     0.063 C 
HETATM   16  C1  UNL     1      27.867   4.960  48.583  1.00  0.00     0.032 C 
BRANCH  15  17
HETATM   17  C11 UNL     1      25.799   5.922  49.244  1.00  0.00     0.136 A 
HETATM   18 CL1  UNL     1      24.422   6.117  48.207  1.00  0.00    -0.045 Cl
HETATM   19  N2  UNL     1      25.089   6.970  49.424  1.00  0.00    -0.287 N 
BRANCH  19  20
HETATM   20  C12 UNL     1      25.476   7.905  50.458  1.00  0.00     0.139 C 
HETATM   21  C13 UNL     1      26.793   8.515  50.036  1.00  0.00     0.028 C 
ENDBRANCH  19  20
ENDBRANCH  15  17
ENDBRANCH   1  15
TORSDOF 5
ENDMDL
MODEL 3
REMARK VINA RESULT:      -7.1      1.527      1.804
REMARK  5 active torsions:
REMARK  status: ('A' for Active; 'I' for Inactive)
REMARK    1  A    between atoms: C2_2  and  C3_3 
REMARK    2  A    between atoms: C2_2  and  C11_16 
REMARK       I    between atoms: C3_3  and  N1_5 
REMARK    3  A    between atoms: N1_5  and  S1_6 
REMARK    4  A    between atoms: S1_6  and  C4_9 
REMARK    5  A    between atoms: N2_18  and  C12_19 
ROOT
HETATM    1  C3  UNL     1      24.193   0.583  53.052  1.00  0.00     0.267 C 
HETATM    2  O1  UNL     1      22.925   0.673  53.006  1.00  0.00    -0.267 OA
HETATM    3  N1  UNL     1      24.886   1.495  52.240  1.00  0.00    -0.246 N 
HETATM    4  H3  UNL     1      25.912   1.445  52.257  1.00  0.00     0.182 HD
ENDROOT
BRANCH   3   5
HETATM    5  S1  UNL     1      23.946   2.600  51.299  1.00  0.00     0.265 S 
HETATM    6  O2  UNL     1      23.041   1.801  50.410  1.00  0.00    -0.200 OA
HETATM    7  O3  UNL     1      23.116   3.422  52.258  1.00  0.00    -0.200 OA
BRANCH   5   8
HETATM    8  C4  UNL     1      25.023   3.623  50.397  1.00  0.00     0.080 A 
HETATM    9  C5  UNL     1      24.664   4.927  50.127  1.00  0.00     0.026 A 
HETATM   10  C6  UNL     1      25.501   5.782  49.405  1.00  0.00     0.008 A 
HETATM   11  C7  UNL     1      26.717   5.326  48.946  1.00  0.00    -0.062 A 
HETATM   12  C8  UNL     1      27.494   6.343  48.198  1.00  0.00     0.048 C 
HETATM   13  C9  UNL     1      27.083   4.024  49.213  1.00  0.00     0.008 A 
HETATM   14  C10 UNL     1      26.245   3.187  49.929  1.00  0.00     0.026 A 
ENDBRANCH   5   8
ENDBRANCH   3   5
BRANCH   1  15
HETATM   15  C2  UNL     1      24.985  -0.348  53.844  1.00  0.00     0.063 C 
HETATM   16  C1  UNL     1      24.645  -0.937  54.955  1.00  0.00     0.032 C 
BRANCH  15  17
HETATM   17  C11 UNL     1      26.291  -0.605  53.276  1.00  0.00     0.136 A 
HETATM   18 CL1  UNL     1      26.733  -1.920  52.235  1.00  0.00    -0.045 Cl
HETATM   19  N2  UNL     1      27.508  -0.643  52.885  1.00  0.00    -0.287 N 
BRANCH  19  20
HETATM   20  C12 UNL     1      28.416   0.391  53.330  1.00  0.00     0.139 C 
HETATM   21  C13 UNL     1      28.677   0.152  54.800  1.00  0.00     0.028 C 
ENDBRANCH  19  20
ENDBRANCH  15  17
ENDBRANCH   1  15
TORSDOF 5
ENDMDL
MODEL 4
REMARK VINA RESULT:      -7.1      2.242      2.813
REMARK  5 active torsions:
REMARK  status: ('A' for Active; 'I' for Inactive)
REMARK    1  A    between atoms: C2_2  and  C3_3 
REMARK    2  A    between atoms: C2_2  and  C11_16 
REMARK       I    between atoms: C3_3  and  N1_5 
REMARK    3  A    between atoms: N1_5  and  S1_6 
REMARK    4  A    between atoms: S1_6  and  C4_9 
REMARK    5  A    between atoms: N2_18  and  C12_19 
ROOT
HETATM    1  C3  UNL     1      26.040  -0.149  53.312  1.00  0.00     0.267 C 
HETATM    2  O1  UNL     1      25.532   0.185  54.430  1.00  0.00    -0.267 OA
HETATM    3  N1  UNL     1      25.415   0.403  52.183  1.00  0.00    -0.246 N 
HETATM    4  H3  UNL     1      25.804   0.150  51.267  1.00  0.00     0.182 HD
ENDROOT
BRANCH   3   5
HETATM    5  S1  UNL     1      24.060   1.443  52.451  1.00  0.00     0.265 S 
HETATM    6  O2  UNL     1      23.069   0.707  53.302  1.00  0.00    -0.200 OA
HETATM    7  O3  UNL     1      24.561   2.660  53.196  1.00  0.00    -0.200 OA
BRANCH   5   8
HETATM    8  C4  UNL     1      23.396   1.904  50.912  1.00  0.00     0.080 A 
HETATM    9  C5  UNL     1      23.995   2.908  50.180  1.00  0.00     0.026 A 
HETATM   10  C6  UNL     1      23.493   3.308  48.939  1.00  0.00     0.008 A 
HETATM   11  C7  UNL     1      22.373   2.694  48.422  1.00  0.00    -0.062 A 
HETATM   12  C8  UNL     1      21.958   3.222  47.100  1.00  0.00     0.048 C 
HETATM   13  C9  UNL     1      21.770   1.689  49.147  1.00  0.00     0.008 A 
HETATM   14  C10 UNL     1      22.277   1.302  50.375  1.00  0.00     0.026 A 
ENDBRANCH   5   8
ENDBRANCH   3   5
BRANCH   1  15
HETATM   15  C2  UNL     1      27.181  -1.026  53.088  1.00  0.00     0.063 C 
HETATM   16  C1  UNL     1      27.179  -2.217  52.562  1.00  0.00     0.032 C 
BRANCH  15  17
HETATM   17  C11 UNL     1      28.434  -0.444  53.522  1.00  0.00     0.136 A 
HETATM   18 CL1  UNL     1      30.014  -1.143  53.373  1.00  0.00    -0.045 Cl
HETATM   19  N2  UNL     1      29.411   0.244  53.977  1.00  0.00    -0.287 N 
BRANCH  19  20
HETATM   20  C12 UNL     1      29.138   1.533  54.574  1.00  0.00     0.139 C 
HETATM   21  C13 UNL     1      28.595   2.425  53.480  1.00  0.00     0.028 C 
ENDBRANCH  19  20
ENDBRANCH  15  17
ENDBRANCH   1  15
TORSDOF 5
ENDMDL
MODEL 5
REMARK VINA RESULT:      -7.0      4.161      6.384
REMARK  5 active torsions:
REMARK  status: ('A' for Active; 'I' for Inactive)
REMARK    1  A    between atoms: C2_2  and  C3_3 
REMARK    2  A    between atoms: C2_2  and  C11_16 
REMARK       I    between atoms: C3_3  and  N1_5 
REMARK    3  A    between atoms: N1_5  and  S1_6 
REMARK    4  A    between atoms: S1_6  and  C4_9 
REMARK    5  A    between atoms: N2_18  and  C12_19 
ROOT
HETATM    1  C3  UNL     1      22.706   1.932  51.288  1.00  0.00     0.267 C 
HETATM    2  O1  UNL     1      22.690   3.197  51.426  1.00  0.00    -0.267 OA
HETATM    3  N1  UNL     1      23.906   1.305  51.658  1.00  0.00    -0.246 N 
HETATM    4  H3  UNL     1      23.947   0.284  51.556  1.00  0.00     0.182 HD
ENDROOT
BRANCH   3   5
HETATM    5  S1  UNL     1      25.185   2.313  52.240  1.00  0.00     0.265 S 
HETATM    6  O2  UNL     1      25.523   3.303  51.166  1.00  0.00    -0.200 OA
HETATM    7  O3  UNL     1      24.669   3.045  53.458  1.00  0.00    -0.200 OA
BRANCH   5   8
HETATM    8  C4  UNL     1      26.540   1.309  52.663  1.00  0.00     0.080 A 
HETATM    9  C5  UNL     1      27.686   1.883  53.172  1.00  0.00     0.026 A 
HETATM   10  C6  UNL     1      28.797   1.112  53.524  1.00  0.00     0.008 A 
HETATM   11  C7  UNL     1      28.760  -0.256  53.364  1.00  0.00    -0.062 A 
HETATM   12  C8  UNL     1      30.008  -0.940  53.780  1.00  0.00     0.048 C 
HETATM   13  C9  UNL     1      27.617  -0.837  52.857  1.00  0.00     0.008 A 
HETATM   14  C10 UNL     1      26.524  -0.062  52.512  1.00  0.00     0.026 A 
ENDBRANCH   5   8
ENDBRANCH   3   5
BRANCH   1  15
HETATM   15  C2  UNL     1      21.628   1.084  50.798  1.00  0.00     0.063 C 
HETATM   16  C1  UNL     1      21.356   0.777  49.562  1.00  0.00     0.032 C 
BRANCH  15  17
HETATM   17  C11 UNL     1      20.800   0.553  51.860  1.00  0.00     0.136 A 
HETATM   18 CL1  UNL     1      19.095   0.238  51.793  1.00  0.00    -0.045 Cl
HETATM   19  N2  UNL     1      20.261   0.081  52.919  1.00  0.00    -0.287 N 
BRANCH  19  20
HETATM   20  C12 UNL     1      21.093  -0.153  54.080  1.00  0.00     0.139 C 
HETATM   21  C13 UNL     1      22.154  -1.150  53.674  1.00  0.00     0.028 C 
ENDBRANCH  19  20
ENDBRANCH  15  17
ENDBRANCH   1  15
TORSDOF 5
ENDMDL
MODEL 6
REMARK VINA RESULT:      -7.0      3.487      6.758
REMARK  5 active torsions:
REMARK  status: ('A' for Active; 'I' for Inactive)
REMARK    1  A    between atoms: C2_2  and  C3_3 
REMARK    2  A    between atoms: C2_2  and  C11_16 
REMARK       I    between atoms: C3_3  and  N1_5 
REMARK    3  A    between atoms: N1_5  and  S1_6 
REMARK    4  A    between atoms: S1_6  and  C4_9 
REMARK    5  A    between atoms: N2_18  and  C12_19 
ROOT
HETATM    1  C3  UNL     1      26.497   2.908  51.105  1.00  0.00     0.267 C 
HETATM    2  O1  UNL     1      27.629   2.693  51.644  1.00  0.00    -0.267 OA
HETATM    3  N1  UNL     1      25.423   2.199  51.666  1.00  0.00    -0.246 N 
HETATM    4  H3  UNL     1      24.497   2.353  51.250  1.00  0.00     0.182 HD
ENDROOT
BRANCH   3   5
HETATM    5  S1  UNL     1      25.770   1.143  52.991  1.00  0.00     0.265 S 
HETATM    6  O2  UNL     1      26.861   0.207  52.566  1.00  0.00    -0.200 OA
HETATM    7  O3  UNL     1      26.256   1.998  54.139  1.00  0.00    -0.200 OA
BRANCH   5   8
HETATM    8  C4  UNL     1      24.314   0.304  53.433  1.00  0.00     0.080 A 
HETATM    9  C5  UNL     1      23.143   0.556  52.749  1.00  0.00     0.026 A 
HETATM   10  C6  UNL     1      21.951  -0.098  53.073  1.00  0.00     0.008 A 
HETATM   11  C7  UNL     1      21.930  -1.018  54.098  1.00  0.00    -0.062 A 
HETATM   12  C8  UNL     1      20.598  -1.629  54.326  1.00  0.00     0.048 C 
HETATM   13  C9  UNL     1      23.096  -1.275  54.786  1.00  0.00     0.008 A 
HETATM   14  C10 UNL     1      24.270  -0.621  54.456  1.00  0.00     0.026 A 
ENDBRANCH   5   8
ENDBRANCH   3   5
BRANCH   1  15
HETATM   15  C2  UNL     1      26.205   3.797  49.989  1.00  0.00     0.063 C 
HETATM   16  C1  UNL     1      27.044   4.293  49.126  1.00  0.00     0.032 C 
BRANCH  15  17
HETATM   17  C11 UNL     1      24.800   4.129  49.884  1.00  0.00     0.136 A 
HETATM   18 CL1  UNL     1      23.630   3.390  48.839  1.00  0.00    -0.045 Cl
HETATM   19  N2  UNL     1      23.604   4.579  49.952  1.00  0.00    -0.287 N 
BRANCH  19  20
HETATM   20  C12 UNL     1      23.315   5.654  50.876  1.00  0.00     0.139 C 
HETATM   21  C13 UNL     1      22.354   5.107  51.907  1.00  0.00     0.028 C 
ENDBRANCH  19  20
ENDBRANCH  15  17
ENDBRANCH   1  15
TORSDOF 5
ENDMDL
MODEL 7
REMARK VINA RESULT:      -6.9      2.545      3.502
REMARK  5 active torsions:
REMARK  status: ('A' for Active; 'I' for Inactive)
REMARK    1  A    between atoms: C2_2  and  C3_3 
REMARK    2  A    between atoms: C2_2  and  C11_16 
REMARK       I    between atoms: C3_3  and  N1_5 
REMARK    3  A    between atoms: N1_5  and  S1_6 
REMARK    4  A    between atoms: S1_6  and  C4_9 
REMARK    5  A    between atoms: N2_18  and  C12_19 
ROOT
HETATM    1  C3  UNL     1      24.462   1.491  52.351  1.00  0.00     0.267 C 
HETATM    2  O1  UNL     1      23.364   2.015  52.723  1.00  0.00    -0.267 OA
HETATM    3  N1  UNL     1      25.162   2.205  51.366  1.00  0.00    -0.246 N 
HETATM    4  H3  UNL     1      26.053   1.803  51.047  1.00  0.00     0.182 HD
ENDROOT
BRANCH   3   5
HETATM    5  S1  UNL     1      24.456   3.675  50.794  1.00  0.00     0.265 S 
HETATM    6  O2  UNL     1      23.258   3.324  49.963  1.00  0.00    -0.200 OA
HETATM    7  O3  UNL     1      24.016   4.469  52.003  1.00  0.00    -0.200 OA
BRANCH   5   8
HETATM    8  C4  UNL     1      25.652   4.556  49.891  1.00  0.00     0.080 A 
HETATM    9  C5  UNL     1      25.482   5.906  49.662  1.00  0.00     0.026 A 
HETATM   10  C6  UNL     1      26.419   6.650  48.941  1.00  0.00     0.008 A 
HETATM   11  C7  UNL     1      27.545   6.033  48.440  1.00  0.00    -0.062 A 
HETATM   12  C8  UNL     1      28.447   6.947  47.699  1.00  0.00     0.048 C 
HETATM   13  C9  UNL     1      27.721   4.685  48.665  1.00  0.00     0.008 A 
HETATM   14  C10 UNL     1      26.786   3.959  49.380  1.00  0.00     0.026 A 
ENDBRANCH   5   8
ENDBRANCH   3   5
BRANCH   1  15
HETATM   15  C2  UNL     1      25.057   0.252  52.834  1.00  0.00     0.063 C 
HETATM   16  C1  UNL     1      26.197  -0.272  52.487  1.00  0.00     0.032 C 
BRANCH  15  17
HETATM   17  C11 UNL     1      24.232  -0.427  53.811  1.00  0.00     0.136 A 
HETATM   18 CL1  UNL     1      24.731  -1.028  55.359  1.00  0.00    -0.045 Cl
HETATM   19  N2  UNL     1      23.335  -0.999  54.521  1.00  0.00    -0.287 N 
BRANCH  19  20
HETATM   20  C12 UNL     1      21.991  -1.106  53.995  1.00  0.00     0.139 C 
HETATM   21  C13 UNL     1      21.204   0.061  54.546  1.00  0.00     0.028 C 
ENDBRANCH  19  20
ENDBRANCH  15  17
ENDBRANCH   1  15
TORSDOF 5
ENDMDL
MODEL 8
REMARK VINA RESULT:      -6.9      2.094      3.397
REMARK  5 active torsions:
REMARK  status: ('A' for Active; 'I' for Inactive)
REMARK    1  A    between atoms: C2_2  and  C3_3 
REMARK    2  A    between atoms: C2_2  and  C11_16 
REMARK       I    between atoms: C3_3  and  N1_5 
REMARK    3  A    between atoms: N1_5  and  S1_6 
REMARK    4  A    between atoms: S1_6  and  C4_9 
REMARK    5  A    between atoms: N2_18  and  C12_19 
ROOT
HETATM    1  C3  UNL     1      26.035   2.315  51.672  1.00  0.00     0.267 C 
HETATM    2  O1  UNL     1      24.810   2.102  51.406  1.00  0.00    -0.267 OA
HETATM    3  N1  UNL     1      26.609   3.412  51.011  1.00  0.00    -0.246 N 
HETATM    4  H3  UNL     1      27.598   3.607  51.208  1.00  0.00     0.182 HD
ENDROOT
BRANCH   3   5
HETATM    5  S1  UNL     1      25.596   4.316  49.940  1.00  0.00     0.265 S 
HETATM    6  O2  UNL     1      24.837   3.344  49.087  1.00  0.00    -0.200 OA
HETATM    7  O3  UNL     1      24.627   5.107  50.788  1.00  0.00    -0.200 OA
BRANCH   5   8
HETATM    8  C4  UNL     1      26.591   5.384  48.997  1.00  0.00     0.080 A 
HETATM    9  C5  UNL     1      27.904   5.047  48.738  1.00  0.00     0.026 A 
HETATM   10  C6  UNL     1      28.737   5.878  47.984  1.00  0.00     0.008 A 
HETATM   11  C7  UNL     1      28.250   7.065  47.483  1.00  0.00    -0.062 A 
HETATM   12  C8  UNL     1      29.248   7.840  46.705  1.00  0.00     0.048 C 
HETATM   13  C9  UNL     1      26.940   7.408  47.738  1.00  0.00     0.008 A 
HETATM   14  C10 UNL     1      26.124   6.577  48.485  1.00  0.00     0.026 A 
ENDBRANCH   5   8
ENDBRANCH   3   5
BRANCH   1  15
HETATM   15  C2  UNL     1      26.888   1.553  52.575  1.00  0.00     0.063 C 
HETATM   16  C1  UNL     1      28.028   1.916  53.089  1.00  0.00     0.032 C 
BRANCH  15  17
HETATM   17  C11 UNL     1      26.346   0.250  52.898  1.00  0.00     0.136 A 
HETATM   18 CL1  UNL     1      26.876  -1.281  52.277  1.00  0.00    -0.045 Cl
HETATM   19  N2  UNL     1      25.725  -0.786  53.318  1.00  0.00    -0.287 N 
BRANCH  19  20
HETATM   20  C12 UNL     1      24.642  -0.614  54.262  1.00  0.00     0.139 C 
HETATM   21  C13 UNL     1      23.357  -0.592  53.466  1.00  0.00     0.028 C 
ENDBRANCH  19  20
ENDBRANCH  15  17
ENDBRANCH   1  15
TORSDOF 5
ENDMDL
MODEL 9
REMARK VINA RESULT:      -6.8      4.515      6.914
REMARK  5 active torsions:
REMARK  status: ('A' for Active; 'I' for Inactive)
REMARK    1  A    between atoms: C2_2  and  C3_3 
REMARK    2  A    between atoms: C2_2  and  C11_16 
REMARK       I    between atoms: C3_3  and  N1_5 
REMARK    3  A    between atoms: N1_5  and  S1_6 
REMARK    4  A    between atoms: S1_6  and  C4_9 
REMARK    5  A    between atoms: N2_18  and  C12_19 
ROOT
HETATM    1  C3  UNL     1      22.141   0.770  53.117  1.00  0.00     0.267 C 
HETATM    2  O1  UNL     1      21.914   1.922  52.629  1.00  0.00    -0.267 OA
HETATM    3  N1  UNL     1      23.495   0.409  53.193  1.00  0.00    -0.246 N 
HETATM    4  H3  UNL     1      23.707  -0.518  53.584  1.00  0.00     0.182 HD
ENDROOT
BRANCH   3   5
HETATM    5  S1  UNL     1      24.658   1.554  52.623  1.00  0.00     0.265 S 
HETATM    6  O2  UNL     1      24.411   1.779  51.161  1.00  0.00    -0.200 OA
HETATM    7  O3  UNL     1      24.435   2.844  53.378  1.00  0.00    -0.200 OA
BRANCH   5   8
HETATM    8  C4  UNL     1      26.252   0.935  52.936  1.00  0.00     0.080 A 
HETATM    9  C5  UNL     1      26.502  -0.415  52.798  1.00  0.00     0.026 A 
HETATM   10  C6  UNL     1      27.769  -0.953  53.040  1.00  0.00     0.008 A 
HETATM   11  C7  UNL     1      28.802  -0.128  53.426  1.00  0.00    -0.062 A 
HETATM   12  C8  UNL     1      30.085  -0.839  53.646  1.00  0.00     0.048 C 
HETATM   13  C9  UNL     1      28.560   1.222  53.564  1.00  0.00     0.008 A 
HETATM   14  C10 UNL     1      27.301   1.743  53.322  1.00  0.00     0.026 A 
ENDBRANCH   5   8
ENDBRANCH   3   5
BRANCH   1  15
HETATM   15  C2  UNL     1      21.160  -0.194  53.598  1.00  0.00     0.063 C 
HETATM   16  C1  UNL     1      21.288  -1.037  54.582  1.00  0.00     0.032 C 
BRANCH  15  17
HETATM   17  C11 UNL     1      19.921  -0.160  52.849  1.00  0.00     0.136 A 
HETATM   18 CL1  UNL     1      18.476  -1.057  53.186  1.00  0.00    -0.045 Cl
HETATM   19  N2  UNL     1      18.935   0.022  52.056  1.00  0.00    -0.287 N 
BRANCH  19  20
HETATM   20  C12 UNL     1      19.089   0.944  50.951  1.00  0.00     0.139 C 
HETATM   21  C13 UNL     1      18.575   2.287  51.418  1.00  0.00     0.028 C 
ENDBRANCH  19  20
ENDBRANCH  15  17
ENDBRANCH   1  15
TORSDOF 5
ENDMDL
