MODEL 1
REMARK VINA RESULT:      -7.7      0.000      0.000
REMARK  7 active torsions:
REMARK  status: ('A' for Active; 'I' for Inactive)
REMARK    1  A    between atoms: N1_1  and  C1_2 
REMARK    2  A    between atoms: C1_2  and  C2_3 
REMARK    3  A    between atoms: C7_9  and  O1_10 
REMARK    4  A    between atoms: O1_10  and  C8_11 
REMARK    5  A    between atoms: C10_13  and  N2_14 
REMARK    6  A    between atoms: N2_14  and  C11_15 
REMARK    7  A    between atoms: C11_15  and  C12_16 
ROOT
HETATM    1  C8  UNL     1      25.677   2.374  52.422  1.00  0.00     0.174 A 
HETATM    2  C9  UNL     1      24.313   2.429  52.735  1.00  0.00     0.108 A 
HETATM    3  C10 UNL     1      23.279   2.960  51.928  1.00  0.00     0.129 A 
HETATM    4  N3  UNL     1      23.737   3.443  50.754  1.00  0.00    -0.225 NA
HETATM    5  C17 UNL     1      25.038   3.400  50.436  1.00  0.00     0.238 A 
HETATM    6  N4  UNL     1      25.977   2.891  51.227  1.00  0.00    -0.217 NA
ENDROOT
BRANCH   1   7
HETATM    7  O1  UNL     1      26.332   1.780  53.473  1.00  0.00    -0.291 OA
BRANCH   7   8
HETATM    8  C7  UNL     1      27.076   0.648  53.406  1.00  0.00     0.086 A 
HETATM    9  C2  UNL     1      28.358   0.289  53.774  1.00  0.00     0.006 A 
HETATM   10  C3  UNL     1      28.879  -0.951  53.586  1.00  0.00     0.054 A 
HETATM   11  C4  UNL     1      28.100  -1.940  52.992  1.00  0.00     0.117 A 
HETATM   12  F1  UNL     1      28.659  -3.183  52.814  1.00  0.00    -0.206 F 
HETATM   13  C5  UNL     1      26.819  -1.635  52.607  1.00  0.00     0.045 A 
HETATM   14  C6  UNL     1      26.302  -0.348  52.811  1.00  0.00     0.041 A 
BRANCH   9  15
HETATM   15  C1  UNL     1      29.099   1.433  54.393  1.00  0.00     0.308 C 
BRANCH  15  16
HETATM   16  N1  UNL     1      29.120   2.593  53.512  1.00  0.00     0.082 N 
HETATM   17  H1  UNL     1      28.345   3.215  53.901  1.00  0.00     0.313 HD
HETATM   18  H2  UNL     1      30.000   3.116  53.787  1.00  0.00     0.313 HD
ENDBRANCH  15  16
ENDBRANCH   9  15
ENDBRANCH   7   8
ENDBRANCH   1   7
BRANCH   3  19
HETATM   19  N2  UNL     1      21.941   2.953  52.408  1.00  0.00    -0.371 N 
HETATM   20  H9  UNL     1      21.823   3.931  52.800  1.00  0.00     0.161 HD
BRANCH  19  21
HETATM   21  C11 UNL     1      20.859   2.037  52.482  1.00  0.00     0.155 C 
BRANCH  21  22
HETATM   22  C12 UNL     1      21.296   0.738  53.037  1.00  0.00    -0.059 A 
HETATM   23  C13 UNL     1      21.042   0.438  54.306  1.00  0.00     0.004 A 
HETATM   24  C14 UNL     1      21.502  -0.857  54.775  1.00  0.00    -0.003 A 
HETATM   25  C15 UNL     1      22.074  -1.367  53.700  1.00  0.00    -0.022 A 
HETATM   26  C16 UNL     1      22.007  -0.447  52.541  1.00  0.00     0.063 A 
ENDBRANCH  21  22
ENDBRANCH  19  21
ENDBRANCH   3  19
TORSDOF 7
ENDMDL
MODEL 2
REMARK VINA RESULT:      -7.6      3.223      5.559
REMARK  7 active torsions:
REMARK  status: ('A' for Active; 'I' for Inactive)
REMARK    1  A    between atoms: N1_1  and  C1_2 
REMARK    2  A    between atoms: C1_2  and  C2_3 
REMARK    3  A    between atoms: C7_9  and  O1_10 
REMARK    4  A    between atoms: O1_10  and  C8_11 
REMARK    5  A    between atoms: C10_13  and  N2_14 
REMARK    6  A    between atoms: N2_14  and  C11_15 
REMARK    7  A    between atoms: C11_15  and  C12_16 
ROOT
HETATM    1  C8  UNL     1      26.829   2.078  51.775  1.00  0.00     0.174 A 
HETATM    2  C9  UNL     1      26.208   1.002  52.420  1.00  0.00     0.108 A 
HETATM    3  C10 UNL     1      26.660   0.338  53.586  1.00  0.00     0.129 A 
HETATM    4  N3  UNL     1      27.813   0.855  54.061  1.00  0.00    -0.225 NA
HETATM    5  C17 UNL     1      28.422   1.884  53.457  1.00  0.00     0.238 A 
HETATM    6  N4  UNL     1      27.961   2.478  52.361  1.00  0.00    -0.217 NA
ENDROOT
BRANCH   1   7
HETATM    7  O1  UNL     1      26.063   2.422  50.688  1.00  0.00    -0.291 OA
BRANCH   7   8
HETATM    8  C7  UNL     1      25.957   3.664  50.154  1.00  0.00     0.086 A 
HETATM    9  C2  UNL     1      25.040   4.695  50.232  1.00  0.00     0.006 A 
HETATM   10  C3  UNL     1      25.173   5.875  49.573  1.00  0.00     0.054 A 
HETATM   11  C4  UNL     1      26.287   6.090  48.767  1.00  0.00     0.117 A 
HETATM   12  F1  UNL     1      26.389   7.294  48.113  1.00  0.00    -0.206 F 
HETATM   13  C5  UNL     1      27.229   5.098  48.654  1.00  0.00     0.045 A 
HETATM   14  C6  UNL     1      27.071   3.887  49.344  1.00  0.00     0.041 A 
BRANCH   9  15
HETATM   15  C1  UNL     1      23.887   4.345  51.118  1.00  0.00     0.308 C 
BRANCH  15  16
HETATM   16  N1  UNL     1      24.271   4.356  52.523  1.00  0.00     0.082 N 
HETATM   17  H1  UNL     1      25.049   5.084  52.563  1.00  0.00     0.313 HD
HETATM   18  H2  UNL     1      23.467   4.844  53.011  1.00  0.00     0.313 HD
ENDBRANCH  15  16
ENDBRANCH   9  15
ENDBRANCH   7   8
ENDBRANCH   1   7
BRANCH   3  19
HETATM   19  N2  UNL     1      25.913  -0.755  54.104  1.00  0.00    -0.371 N 
HETATM   20  H9  UNL     1      26.285  -1.580  53.552  1.00  0.00     0.161 HD
BRANCH  19  21
HETATM   21  C11 UNL     1      24.896  -0.965  55.072  1.00  0.00     0.155 C 
BRANCH  21  22
HETATM   22  C12 UNL     1      23.552  -0.896  54.458  1.00  0.00    -0.059 A 
HETATM   23  C13 UNL     1      22.493  -1.341  55.126  1.00  0.00     0.004 A 
HETATM   24  C14 UNL     1      21.209  -1.237  54.455  1.00  0.00    -0.003 A 
HETATM   25  C15 UNL     1      21.530  -0.687  53.299  1.00  0.00    -0.022 A 
HETATM   26  C16 UNL     1      22.985  -0.429  53.187  1.00  0.00     0.063 A 
ENDBRANCH  21  22
ENDBRANCH  19  21
ENDBRANCH   3  19
TORSDOF 7
ENDMDL
MODEL 3
REMARK VINA RESULT:      -7.6      2.332      3.620
REMARK  7 active torsions:
REMARK  status: ('A' for Active; 'I' for Inactive)
REMARK    1  A    between atoms: N1_1  and  C1_2 
REMARK    2  A    between atoms: C1_2  and  C2_3 
REMARK    3  A    between atoms: C7_9  and  O1_10 
REMARK    4  A    between atoms: O1_10  and  C8_11 
REMARK    5  A    between atoms: C10_13  and  N2_14 
REMARK    6  A    between atoms: N2_14  and  C11_15 
REMARK    7  A    between atoms: C11_15  and  C12_16 
ROOT
HETATM    1  C8  UNL     1      24.868  -0.032  53.087  1.00  0.00     0.174 A 
HETATM    2  C9  UNL     1      23.858   0.774  52.549  1.00  0.00     0.108 A 
HETATM    3  C10 UNL     1      22.508   0.835  52.970  1.00  0.00     0.129 A 
HETATM    4  N3  UNL     1      22.250   0.000  53.999  1.00  0.00    -0.225 NA
HETATM    5  C17 UNL     1      23.202  -0.779  54.527  1.00  0.00     0.238 A 
HETATM    6  N4  UNL     1      24.460  -0.804  54.099  1.00  0.00    -0.217 NA
ENDROOT
BRANCH   1   7
HETATM    7  O1  UNL     1      26.027   0.217  52.393  1.00  0.00    -0.291 OA
BRANCH   7   8
HETATM    8  C7  UNL     1      27.286  -0.007  52.846  1.00  0.00     0.086 A 
HETATM    9  C2  UNL     1      28.337   0.785  53.265  1.00  0.00     0.006 A 
HETATM   10  C3  UNL     1      29.534   0.294  53.680  1.00  0.00     0.054 A 
HETATM   11  C4  UNL     1      29.743  -1.082  53.696  1.00  0.00     0.117 A 
HETATM   12  F1  UNL     1      30.966  -1.545  54.119  1.00  0.00    -0.206 F 
HETATM   13  C5  UNL     1      28.730  -1.914  53.290  1.00  0.00     0.045 A 
HETATM   14  C6  UNL     1      27.503  -1.385  52.865  1.00  0.00     0.041 A 
BRANCH   9  15
HETATM   15  C1  UNL     1      27.998   2.240  53.195  1.00  0.00     0.308 C 
BRANCH  15  16
HETATM   16  N1  UNL     1      26.883   2.571  54.072  1.00  0.00     0.082 N 
HETATM   17  H1  UNL     1      26.028   2.254  53.519  1.00  0.00     0.313 HD
HETATM   18  H2  UNL     1      26.939   1.853  54.850  1.00  0.00     0.313 HD
ENDBRANCH  15  16
ENDBRANCH   9  15
ENDBRANCH   7   8
ENDBRANCH   1   7
BRANCH   3  19
HETATM   19  N2  UNL     1      21.603   1.703  52.299  1.00  0.00    -0.371 N 
HETATM   20  H9  UNL     1      21.667   2.596  52.865  1.00  0.00     0.161 HD
BRANCH  19  21
HETATM   21  C11 UNL     1      20.731   1.646  51.181  1.00  0.00     0.155 C 
BRANCH  21  22
HETATM   22  C12 UNL     1      21.467   1.863  49.917  1.00  0.00    -0.059 A 
HETATM   23  C13 UNL     1      22.358   2.845  49.827  1.00  0.00     0.004 A 
HETATM   24  C14 UNL     1      23.040   2.992  48.553  1.00  0.00    -0.003 A 
HETATM   25  C15 UNL     1      22.513   2.021  47.829  1.00  0.00    -0.022 A 
HETATM   26  C16 UNL     1      21.504   1.244  48.587  1.00  0.00     0.063 A 
ENDBRANCH  21  22
ENDBRANCH  19  21
ENDBRANCH   3  19
TORSDOF 7
ENDMDL
MODEL 4
REMARK VINA RESULT:      -7.6      2.055      4.899
REMARK  7 active torsions:
REMARK  status: ('A' for Active; 'I' for Inactive)
REMARK    1  A    between atoms: N1_1  and  C1_2 
REMARK    2  A    between atoms: C1_2  and  C2_3 
REMARK    3  A    between atoms: C7_9  and  O1_10 
REMARK    4  A    between atoms: O1_10  and  C8_11 
REMARK    5  A    between atoms: C10_13  and  N2_14 
REMARK    6  A    between atoms: N2_14  and  C11_15 
REMARK    7  A    between atoms: C11_15  and  C12_16 
ROOT
HETATM    1  C8  UNL     1      24.696   1.514  52.764  1.00  0.00     0.174 A 
HETATM    2  C9  UNL     1      24.909   2.350  51.662  1.00  0.00     0.108 A 
HETATM    3  C10 UNL     1      23.997   2.621  50.615  1.00  0.00     0.129 A 
HETATM    4  N3  UNL     1      22.825   1.968  50.768  1.00  0.00    -0.225 NA
HETATM    5  C17 UNL     1      22.602   1.163  51.816  1.00  0.00     0.238 A 
HETATM    6  N4  UNL     1      23.490   0.937  52.778  1.00  0.00    -0.217 NA
ENDROOT
BRANCH   1   7
HETATM    7  O1  UNL     1      25.829   1.533  53.540  1.00  0.00    -0.291 OA
BRANCH   7   8
HETATM    8  C7  UNL     1      26.878   0.681  53.431  1.00  0.00     0.086 A 
HETATM    9  C2  UNL     1      28.254   0.800  53.488  1.00  0.00     0.006 A 
HETATM   10  C3  UNL     1      29.108  -0.245  53.339  1.00  0.00     0.054 A 
HETATM   11  C4  UNL     1      28.601  -1.522  53.116  1.00  0.00     0.117 A 
HETATM   12  F1  UNL     1      29.494  -2.555  52.966  1.00  0.00    -0.206 F 
HETATM   13  C5  UNL     1      27.241  -1.695  53.050  1.00  0.00     0.045 A 
HETATM   14  C6  UNL     1      26.377  -0.601  53.207  1.00  0.00     0.041 A 
BRANCH   9  15
HETATM   15  C1  UNL     1      28.679   2.215  53.724  1.00  0.00     0.308 C 
BRANCH  15  16
HETATM   16  N1  UNL     1      29.773   2.290  54.682  1.00  0.00     0.082 N 
HETATM   17  H1  UNL     1      30.531   2.823  54.154  1.00  0.00     0.313 HD
HETATM   18  H2  UNL     1      29.445   2.999  55.399  1.00  0.00     0.313 HD
ENDBRANCH  15  16
ENDBRANCH   9  15
ENDBRANCH   7   8
ENDBRANCH   1   7
BRANCH   3  19
HETATM   19  N2  UNL     1      24.382   3.488  49.555  1.00  0.00    -0.371 N 
HETATM   20  H9  UNL     1      24.509   2.824  48.739  1.00  0.00     0.161 HD
BRANCH  19  21
HETATM   21  C11 UNL     1      24.617   4.875  49.369  1.00  0.00     0.155 C 
BRANCH  21  22
HETATM   22  C12 UNL     1      26.026   5.133  49.000  1.00  0.00    -0.059 A 
HETATM   23  C13 UNL     1      26.396   6.342  48.590  1.00  0.00     0.004 A 
HETATM   24  C14 UNL     1      27.796   6.515  48.248  1.00  0.00    -0.003 A 
HETATM   25  C15 UNL     1      28.299   5.314  48.472  1.00  0.00    -0.022 A 
HETATM   26  C16 UNL     1      27.272   4.358  48.947  1.00  0.00     0.063 A 
ENDBRANCH  21  22
ENDBRANCH  19  21
ENDBRANCH   3  19
TORSDOF 7
ENDMDL
MODEL 5
REMARK VINA RESULT:      -7.5      2.468      5.282
REMARK  7 active torsions:
REMARK  status: ('A' for Active; 'I' for Inactive)
REMARK    1  A    between atoms: N1_1  and  C1_2 
REMARK    2  A    between atoms: C1_2  and  C2_3 
REMARK    3  A    between atoms: C7_9  and  O1_10 
REMARK    4  A    between atoms: O1_10  and  C8_11 
REMARK    5  A    between atoms: C10_13  and  N2_14 
REMARK    6  A    between atoms: N2_14  and  C11_15 
REMARK    7  A    between atoms: C11_15  and  C12_16 
ROOT
HETATM    1  C8  UNL     1      24.529   1.839  52.882  1.00  0.00     0.174 A 
HETATM    2  C9  UNL     1      24.728   2.684  51.785  1.00  0.00     0.108 A 
HETATM    3  C10 UNL     1      23.871   2.842  50.670  1.00  0.00     0.129 A 
HETATM    4  N3  UNL     1      22.771   2.063  50.749  1.00  0.00    -0.225 NA
HETATM    5  C17 UNL     1      22.562   1.248  51.791  1.00  0.00     0.238 A 
HETATM    6  N4  UNL     1      23.397   1.131  52.819  1.00  0.00    -0.217 NA
ENDROOT
BRANCH   1   7
HETATM    7  O1  UNL     1      25.593   1.991  53.737  1.00  0.00    -0.291 OA
BRANCH   7   8
HETATM    8  C7  UNL     1      26.757   1.298  53.686  1.00  0.00     0.086 A 
HETATM    9  C2  UNL     1      27.106  -0.038  53.638  1.00  0.00     0.006 A 
HETATM   10  C3  UNL     1      28.389  -0.482  53.594  1.00  0.00     0.054 A 
HETATM   11  C4  UNL     1      29.434   0.437  53.595  1.00  0.00     0.117 A 
HETATM   12  F1  UNL     1      30.720  -0.046  53.553  1.00  0.00    -0.206 F 
HETATM   13  C5  UNL     1      29.142   1.777  53.642  1.00  0.00     0.045 A 
HETATM   14  C6  UNL     1      27.810   2.213  53.686  1.00  0.00     0.041 A 
BRANCH   9  15
HETATM   15  C1  UNL     1      25.903  -0.927  53.651  1.00  0.00     0.308 C 
BRANCH  15  16
HETATM   16  N1  UNL     1      25.235  -0.902  54.945  1.00  0.00     0.082 N 
HETATM   17  H1  UNL     1      24.979  -1.924  55.113  1.00  0.00     0.313 HD
HETATM   18  H2  UNL     1      26.016  -0.738  55.641  1.00  0.00     0.313 HD
ENDBRANCH  15  16
ENDBRANCH   9  15
ENDBRANCH   7   8
ENDBRANCH   1   7
BRANCH   3  19
HETATM   19  N2  UNL     1      24.235   3.737  49.626  1.00  0.00    -0.371 N 
HETATM   20  H9  UNL     1      24.183   3.127  48.761  1.00  0.00     0.161 HD
BRANCH  19  21
HETATM   21  C11 UNL     1      24.616   5.098  49.499  1.00  0.00     0.155 C 
BRANCH  21  22
HETATM   22  C12 UNL     1      26.026   5.220  49.071  1.00  0.00    -0.059 A 
HETATM   23  C13 UNL     1      26.477   6.372  48.585  1.00  0.00     0.004 A 
HETATM   24  C14 UNL     1      27.873   6.411  48.188  1.00  0.00    -0.003 A 
HETATM   25  C15 UNL     1      28.285   5.186  48.460  1.00  0.00    -0.022 A 
HETATM   26  C16 UNL     1      27.203   4.343  49.020  1.00  0.00     0.063 A 
ENDBRANCH  21  22
ENDBRANCH  19  21
ENDBRANCH   3  19
TORSDOF 7
ENDMDL
MODEL 6
REMARK VINA RESULT:      -7.4      2.743      3.642
REMARK  7 active torsions:
REMARK  status: ('A' for Active; 'I' for Inactive)
REMARK    1  A    between atoms: N1_1  and  C1_2 
REMARK    2  A    between atoms: C1_2  and  C2_3 
REMARK    3  A    between atoms: C7_9  and  O1_10 
REMARK    4  A    between atoms: O1_10  and  C8_11 
REMARK    5  A    between atoms: C10_13  and  N2_14 
REMARK    6  A    between atoms: N2_14  and  C11_15 
REMARK    7  A    between atoms: C11_15  and  C12_16 
ROOT
HETATM    1  C8  UNL     1      24.301  -0.440  53.572  1.00  0.00     0.174 A 
HETATM    2  C9  UNL     1      23.123   0.071  53.014  1.00  0.00     0.108 A 
HETATM    3  C10 UNL     1      21.819  -0.019  53.559  1.00  0.00     0.129 A 
HETATM    4  N3  UNL     1      21.796  -0.678  54.737  1.00  0.00    -0.225 NA
HETATM    5  C17 UNL     1      22.912  -1.174  55.286  1.00  0.00     0.238 A 
HETATM    6  N4  UNL     1      24.118  -1.067  54.738  1.00  0.00    -0.217 NA
ENDROOT
BRANCH   1   7
HETATM    7  O1  UNL     1      25.340  -0.134  52.727  1.00  0.00    -0.291 OA
BRANCH   7   8
HETATM    8  C7  UNL     1      26.656  -0.159  53.048  1.00  0.00     0.086 A 
HETATM    9  C2  UNL     1      27.578   0.765  53.501  1.00  0.00     0.006 A 
HETATM   10  C3  UNL     1      28.881   0.473  53.750  1.00  0.00     0.054 A 
HETATM   11  C4  UNL     1      29.345  -0.823  53.549  1.00  0.00     0.117 A 
HETATM   12  F1  UNL     1      30.669  -1.084  53.809  1.00  0.00    -0.206 F 
HETATM   13  C5  UNL     1      28.470  -1.781  53.100  1.00  0.00     0.045 A 
HETATM   14  C6  UNL     1      27.129  -1.457  52.849  1.00  0.00     0.041 A 
BRANCH   9  15
HETATM   15  C1  UNL     1      26.967   2.120  53.671  1.00  0.00     0.308 C 
BRANCH  15  16
HETATM   16  N1  UNL     1      26.426   2.623  52.415  1.00  0.00     0.082 N 
HETATM   17  H1  UNL     1      27.262   2.591  51.753  1.00  0.00     0.313 HD
HETATM   18  H2  UNL     1      25.814   1.834  52.058  1.00  0.00     0.313 HD
ENDBRANCH  15  16
ENDBRANCH   9  15
ENDBRANCH   7   8
ENDBRANCH   1   7
BRANCH   3  19
HETATM   19  N2  UNL     1      20.723   0.544  52.850  1.00  0.00    -0.371 N 
HETATM   20  H9  UNL     1      20.263   1.164  53.576  1.00  0.00     0.161 HD
BRANCH  19  21
HETATM   21  C11 UNL     1      20.166   0.465  51.547  1.00  0.00     0.155 C 
BRANCH  21  22
HETATM   22  C12 UNL     1      18.778  -0.045  51.589  1.00  0.00    -0.059 A 
HETATM   23  C13 UNL     1      18.340  -0.693  52.664  1.00  0.00     0.004 A 
HETATM   24  C14 UNL     1      16.966  -1.161  52.629  1.00  0.00    -0.003 A 
HETATM   25  C15 UNL     1      16.555  -0.760  51.440  1.00  0.00    -0.022 A 
HETATM   26  C16 UNL     1      17.616  -0.047  50.692  1.00  0.00     0.063 A 
ENDBRANCH  21  22
ENDBRANCH  19  21
ENDBRANCH   3  19
TORSDOF 7
ENDMDL
MODEL 7
REMARK VINA RESULT:      -7.4      1.457      2.162
REMARK  7 active torsions:
REMARK  status: ('A' for Active; 'I' for Inactive)
REMARK    1  A    between atoms: N1_1  and  C1_2 
REMARK    2  A    between atoms: C1_2  and  C2_3 
REMARK    3  A    between atoms: C7_9  and  O1_10 
REMARK    4  A    between atoms: O1_10  and  C8_11 
REMARK    5  A    between atoms: C10_13  and  N2_14 
REMARK    6  A    between atoms: N2_14  and  C11_15 
REMARK    7  A    between atoms: C11_15  and  C12_16 
ROOT
HETATM    1  C8  UNL     1      25.245   2.489  52.518  1.00  0.00     0.174 A 
HETATM    2  C9  UNL     1      23.879   2.508  52.823  1.00  0.00     0.108 A 
HETATM    3  C10 UNL     1      22.824   2.897  51.964  1.00  0.00     0.129 A 
HETATM    4  N3  UNL     1      23.263   3.275  50.744  1.00  0.00    -0.225 NA
HETATM    5  C17 UNL     1      24.566   3.264  50.433  1.00  0.00     0.238 A 
HETATM    6  N4  UNL     1      25.525   2.891  51.274  1.00  0.00    -0.217 NA
ENDROOT
BRANCH   1   7
HETATM    7  O1  UNL     1      25.924   2.045  53.626  1.00  0.00    -0.291 OA
BRANCH   7   8
HETATM    8  C7  UNL     1      26.984   1.200  53.620  1.00  0.00     0.086 A 
HETATM    9  C2  UNL     1      27.150  -0.172  53.606  1.00  0.00     0.006 A 
HETATM   10  C3  UNL     1      28.361  -0.786  53.607  1.00  0.00     0.054 A 
HETATM   11  C4  UNL     1      29.521  -0.018  53.623  1.00  0.00     0.117 A 
HETATM   12  F1  UNL     1      30.730  -0.671  53.627  1.00  0.00    -0.206 F 
HETATM   13  C5  UNL     1      29.412   1.351  53.639  1.00  0.00     0.045 A 
HETATM   14  C6  UNL     1      28.151   1.963  53.637  1.00  0.00     0.041 A 
BRANCH   9  15
HETATM   15  C1  UNL     1      25.837  -0.889  53.598  1.00  0.00     0.308 C 
BRANCH  15  16
HETATM   16  N1  UNL     1      25.221  -0.890  54.918  1.00  0.00     0.082 N 
HETATM   17  H1  UNL     1      26.041  -0.706  55.576  1.00  0.00     0.313 HD
HETATM   18  H2  UNL     1      24.681   0.021  54.956  1.00  0.00     0.313 HD
ENDBRANCH  15  16
ENDBRANCH   9  15
ENDBRANCH   7   8
ENDBRANCH   1   7
BRANCH   3  19
HETATM   19  N2  UNL     1      21.485   2.872  52.442  1.00  0.00    -0.371 N 
HETATM   20  H9  UNL     1      21.323   3.874  52.746  1.00  0.00     0.161 HD
BRANCH  19  21
HETATM   21  C11 UNL     1      20.444   1.919  52.594  1.00  0.00     0.155 C 
BRANCH  21  22
HETATM   22  C12 UNL     1      20.913   0.731  53.340  1.00  0.00    -0.059 A 
HETATM   23  C13 UNL     1      21.526  -0.258  52.698  1.00  0.00     0.004 A 
HETATM   24  C14 UNL     1      21.957  -1.389  53.501  1.00  0.00    -0.003 A 
HETATM   25  C15 UNL     1      21.569  -1.045  54.716  1.00  0.00    -0.022 A 
HETATM   26  C16 UNL     1      20.895   0.274  54.735  1.00  0.00     0.063 A 
ENDBRANCH  21  22
ENDBRANCH  19  21
ENDBRANCH   3  19
TORSDOF 7
ENDMDL
MODEL 8
REMARK VINA RESULT:      -7.3      3.186      6.624
REMARK  7 active torsions:
REMARK  status: ('A' for Active; 'I' for Inactive)
REMARK    1  A    between atoms: N1_1  and  C1_2 
REMARK    2  A    between atoms: C1_2  and  C2_3 
REMARK    3  A    between atoms: C7_9  and  O1_10 
REMARK    4  A    between atoms: O1_10  and  C8_11 
REMARK    5  A    between atoms: C10_13  and  N2_14 
REMARK    6  A    between atoms: N2_14  and  C11_15 
REMARK    7  A    between atoms: C11_15  and  C12_16 
ROOT
HETATM    1  C8  UNL     1      21.948   0.867  53.219  1.00  0.00     0.174 A 
HETATM    2  C9  UNL     1      23.325   0.623  53.156  1.00  0.00     0.108 A 
HETATM    3  C10 UNL     1      24.036  -0.400  53.828  1.00  0.00     0.129 A 
HETATM    4  N3  UNL     1      23.233  -1.176  54.585  1.00  0.00    -0.225 NA
HETATM    5  C17 UNL     1      21.913  -0.959  54.659  1.00  0.00     0.238 A 
HETATM    6  N4  UNL     1      21.286   0.017  54.010  1.00  0.00    -0.217 NA
ENDROOT
BRANCH   1   7
HETATM    7  O1  UNL     1      21.669   1.947  52.419  1.00  0.00    -0.291 OA
BRANCH   7   8
HETATM    8  C7  UNL     1      22.055   2.098  51.128  1.00  0.00     0.086 A 
HETATM    9  C2  UNL     1      22.947   2.911  50.455  1.00  0.00     0.006 A 
HETATM   10  C3  UNL     1      23.149   2.861  49.113  1.00  0.00     0.054 A 
HETATM   11  C4  UNL     1      22.432   1.950  48.343  1.00  0.00     0.117 A 
HETATM   12  F1  UNL     1      22.659   1.928  46.988  1.00  0.00    -0.206 F 
HETATM   13  C5  UNL     1      21.532   1.118  48.962  1.00  0.00     0.045 A 
HETATM   14  C6  UNL     1      21.340   1.187  50.350  1.00  0.00     0.041 A 
BRANCH   9  15
HETATM   15  C1  UNL     1      23.649   3.851  51.382  1.00  0.00     0.308 C 
BRANCH  15  16
HETATM   16  N1  UNL     1      22.704   4.677  52.121  1.00  0.00     0.082 N 
HETATM   17  H1  UNL     1      22.568   5.526  51.489  1.00  0.00     0.313 HD
HETATM   18  H2  UNL     1      21.781   4.166  52.029  1.00  0.00     0.313 HD
ENDBRANCH  15  16
ENDBRANCH   9  15
ENDBRANCH   7   8
ENDBRANCH   1   7
BRANCH   3  19
HETATM   19  N2  UNL     1      25.446  -0.497  53.665  1.00  0.00    -0.371 N 
HETATM   20  H9  UNL     1      25.813   0.243  54.330  1.00  0.00     0.161 HD
BRANCH  19  21
HETATM   21  C11 UNL     1      26.362  -1.263  52.899  1.00  0.00     0.155 C 
BRANCH  21  22
HETATM   22  C12 UNL     1      27.759  -0.871  53.189  1.00  0.00    -0.059 A 
HETATM   23  C13 UNL     1      28.038   0.377  53.550  1.00  0.00     0.004 A 
HETATM   24  C14 UNL     1      29.432   0.682  53.819  1.00  0.00    -0.003 A 
HETATM   25  C15 UNL     1      30.028  -0.476  53.600  1.00  0.00    -0.022 A 
HETATM   26  C16 UNL     1      29.070  -1.531  53.193  1.00  0.00     0.063 A 
ENDBRANCH  21  22
ENDBRANCH  19  21
ENDBRANCH   3  19
TORSDOF 7
ENDMDL
MODEL 9
REMARK VINA RESULT:      -7.3      3.418      5.941
REMARK  7 active torsions:
REMARK  status: ('A' for Active; 'I' for Inactive)
REMARK    1  A    between atoms: N1_1  and  C1_2 
REMARK    2  A    between atoms: C1_2  and  C2_3 
REMARK    3  A    between atoms: C7_9  and  O1_10 
REMARK    4  A    between atoms: O1_10  and  C8_11 
REMARK    5  A    between atoms: C10_13  and  N2_14 
REMARK    6  A    between atoms: N2_14  and  C11_15 
REMARK    7  A    between atoms: C11_15  and  C12_16 
ROOT
HETATM    1  C8  UNL     1      24.120   3.135  50.727  1.00  0.00     0.174 A 
HETATM    2  C9  UNL     1      24.000   2.237  51.795  1.00  0.00     0.108 A 
HETATM    3  C10 UNL     1      23.092   1.156  51.894  1.00  0.00     0.129 A 
HETATM    4  N3  UNL     1      22.297   1.047  50.808  1.00  0.00    -0.225 NA
HETATM    5  C17 UNL     1      22.397   1.897  49.777  1.00  0.00     0.238 A 
HETATM    6  N4  UNL     1      23.266   2.901  49.727  1.00  0.00    -0.217 NA
ENDROOT
BRANCH   1   7
HETATM    7  O1  UNL     1      25.121   4.026  51.031  1.00  0.00    -0.291 OA
BRANCH   7   8
HETATM    8  C7  UNL     1      25.719   4.874  50.157  1.00  0.00     0.086 A 
HETATM    9  C2  UNL     1      25.499   6.171  49.736  1.00  0.00     0.006 A 
HETATM   10  C3  UNL     1      26.270   6.807  48.817  1.00  0.00     0.054 A 
HETATM   11  C4  UNL     1      27.351   6.141  48.246  1.00  0.00     0.117 A 
HETATM   12  F1  UNL     1      28.108   6.812  47.317  1.00  0.00    -0.206 F 
HETATM   13  C5  UNL     1      27.613   4.849  48.630  1.00  0.00     0.045 A 
HETATM   14  C6  UNL     1      26.804   4.212  49.582  1.00  0.00     0.041 A 
BRANCH   9  15
HETATM   15  C1  UNL     1      24.310   6.779  50.410  1.00  0.00     0.308 C 
BRANCH  15  16
HETATM   16  N1  UNL     1      24.491   6.847  51.853  1.00  0.00     0.082 N 
HETATM   17  H1  UNL     1      24.875   7.830  52.011  1.00  0.00     0.313 HD
HETATM   18  H2  UNL     1      23.506   6.915  52.239  1.00  0.00     0.313 HD
ENDBRANCH  15  16
ENDBRANCH   9  15
ENDBRANCH   7   8
ENDBRANCH   1   7
BRANCH   3  19
HETATM   19  N2  UNL     1      23.091   0.347  53.063  1.00  0.00    -0.371 N 
HETATM   20  H9  UNL     1      22.361   0.813  53.674  1.00  0.00     0.161 HD
BRANCH  19  21
HETATM   21  C11 UNL     1      23.772  -0.802  53.544  1.00  0.00     0.155 C 
BRANCH  21  22
HETATM   22  C12 UNL     1      25.218  -0.536  53.705  1.00  0.00    -0.059 A 
HETATM   23  C13 UNL     1      26.063  -0.832  52.723  1.00  0.00     0.004 A 
HETATM   24  C14 UNL     1      27.466  -0.540  52.958  1.00  0.00    -0.003 A 
HETATM   25  C15 UNL     1      27.454  -0.030  54.177  1.00  0.00    -0.022 A 
HETATM   26  C16 UNL     1      26.088   0.019  54.749  1.00  0.00     0.063 A 
ENDBRANCH  21  22
ENDBRANCH  19  21
ENDBRANCH   3  19
TORSDOF 7
ENDMDL
