MODEL 1
REMARK VINA RESULT:      -7.6      0.000      0.000
REMARK  5 active torsions:
REMARK  status: ('A' for Active; 'I' for Inactive)
REMARK    1  A    between atoms: N1_1  and  C1_2 
REMARK    2  A    between atoms: C1_2  and  C2_3 
REMARK    3  A    between atoms: C10_14  and  C11_15 
REMARK    4  A    between atoms: C11_15  and  N4_16 
REMARK    5  A    between atoms: N4_16  and  C12_17 
ROOT
HETATM    1  C2  UNL     1      22.642   3.923  51.804  1.00  0.00    -0.051 C 
HETATM    2  C3  UNL     1      23.729   4.515  51.230  1.00  0.00     0.005 C 
HETATM    3  O1  UNL     1      24.911   4.947  50.582  1.00  0.00     0.000 OA
HETATM    4  C4  UNL     1      25.273   4.170  49.361  1.00  0.00     0.063 C 
HETATM    5  C5  UNL     1      24.075   3.349  49.237  1.00  0.00     0.046 A 
HETATM    6  N2  UNL     1      22.670   2.680  48.802  1.00  0.00    -0.258 NA
HETATM    7  C6  UNL     1      22.956   2.120  49.950  1.00  0.00     0.073 A 
HETATM    8  C7  UNL     1      23.187   1.719  50.794  1.00  0.00     0.103 A 
HETATM    9  N3  UNL     1      23.488   1.240  51.807  1.00  0.00    -0.273 NA
HETATM   10  C8  UNL     1      22.053   1.390  51.726  1.00  0.00     0.117 A 
HETATM   11  C9  UNL     1      21.786   2.836  52.188  1.00  0.00     0.051 C 
HETATM   12  C10 UNL     1      24.143   2.388  50.720  1.00  0.00     0.125 A 
ENDROOT
BRANCH  12  13
HETATM   13  C11 UNL     1      25.349   2.451  51.397  1.00  0.00     0.098 C 
BRANCH  13  14
HETATM   14  N4  UNL     1      26.156   2.647  52.567  1.00  0.00    -0.367 N 
HETATM   15  H13 UNL     1      26.057   3.520  53.173  1.00  0.00     0.165 HD
BRANCH  14  16
HETATM   16  C12 UNL     1      27.130   1.648  52.937  1.00  0.00     0.033 A 
HETATM   17  C13 UNL     1      28.294   2.032  53.547  1.00  0.00     0.032 A 
HETATM   18  C14 UNL     1      29.171   1.038  53.876  1.00  0.00     0.046 A 
HETATM   19  C15 UNL     1      28.936  -0.289  53.624  1.00  0.00     0.138 A 
HETATM   20  F1  UNL     1      29.841  -1.216  53.972  1.00  0.00    -0.204 F 
HETATM   21  C16 UNL     1      27.748  -0.688  52.999  1.00  0.00     0.074 A 
HETATM   22 CL1  UNL     1      27.391  -2.354  52.652  1.00  0.00    -0.081 Cl
HETATM   23  C17 UNL     1      26.877   0.337  52.678  1.00  0.00     0.056 A 
ENDBRANCH  14  16
ENDBRANCH  13  14
ENDBRANCH  12  13
BRANCH   1  24
HETATM   24  C1  UNL     1      21.949   5.143  52.360  1.00  0.00     0.301 C 
BRANCH  24  25
HETATM   25  N1  UNL     1      22.283   6.360  51.670  1.00  0.00     0.082 N 
HETATM   26  H1  UNL     1      21.530   7.073  51.866  1.00  0.00     0.313 HD
HETATM   27  H2  UNL     1      22.438   6.225  50.642  1.00  0.00     0.313 HD
ENDBRANCH  24  25
ENDBRANCH   1  24
TORSDOF 5
ENDMDL
MODEL 2
REMARK VINA RESULT:      -7.5      1.588      3.068
REMARK  5 active torsions:
REMARK  status: ('A' for Active; 'I' for Inactive)
REMARK    1  A    between atoms: N1_1  and  C1_2 
REMARK    2  A    between atoms: C1_2  and  C2_3 
REMARK    3  A    between atoms: C10_14  and  C11_15 
REMARK    4  A    between atoms: C11_15  and  N4_16 
REMARK    5  A    between atoms: N4_16  and  C12_17 
ROOT
HETATM    1  C2  UNL     1      22.926   2.889  49.240  1.00  0.00    -0.051 C 
HETATM    2  C3  UNL     1      23.129   1.990  50.246  1.00  0.00     0.005 C 
HETATM    3  O1  UNL     1      23.424   1.207  51.389  1.00  0.00     0.000 OA
HETATM    4  C4  UNL     1      23.306   1.929  52.688  1.00  0.00     0.063 C 
HETATM    5  C5  UNL     1      22.720   3.177  52.215  1.00  0.00     0.046 A 
HETATM    6  N2  UNL     1      21.747   4.416  51.855  1.00  0.00    -0.258 NA
HETATM    7  C6  UNL     1      22.834   4.645  51.163  1.00  0.00     0.073 A 
HETATM    8  C7  UNL     1      23.644   4.794  50.665  1.00  0.00     0.103 A 
HETATM    9  N3  UNL     1      24.633   4.962  50.080  1.00  0.00    -0.273 NA
HETATM   10  C8  UNL     1      23.502   5.425  49.307  1.00  0.00     0.117 A 
HETATM   11  C9  UNL     1      22.982   4.166  48.586  1.00  0.00     0.051 C 
HETATM   12  C10 UNL     1      24.008   3.809  51.180  1.00  0.00     0.125 A 
ENDROOT
BRANCH  12  13
HETATM   13  C11 UNL     1      25.227   3.165  51.312  1.00  0.00     0.098 C 
BRANCH  13  14
HETATM   14  N4  UNL     1      26.649   3.135  51.495  1.00  0.00    -0.367 N 
HETATM   15  H13 UNL     1      27.281   3.887  51.078  1.00  0.00     0.165 HD
BRANCH  14  16
HETATM   16  C12 UNL     1      27.247   2.063  52.255  1.00  0.00     0.033 A 
HETATM   17  C13 UNL     1      28.218   2.349  53.177  1.00  0.00     0.032 A 
HETATM   18  C14 UNL     1      28.740   1.291  53.865  1.00  0.00     0.046 A 
HETATM   19  C15 UNL     1      28.340  -0.006  53.671  1.00  0.00     0.138 A 
HETATM   20  F1  UNL     1      28.896  -1.000  54.381  1.00  0.00    -0.204 F 
HETATM   21  C16 UNL     1      27.349  -0.305  52.728  1.00  0.00     0.074 A 
HETATM   22 CL1  UNL     1      26.799  -1.928  52.435  1.00  0.00    -0.081 Cl
HETATM   23  C17 UNL     1      26.837   0.783  52.046  1.00  0.00     0.056 A 
ENDBRANCH  14  16
ENDBRANCH  13  14
ENDBRANCH  12  13
BRANCH   1  24
HETATM   24  C1  UNL     1      22.247   1.996  48.231  1.00  0.00     0.301 C 
BRANCH  24  25
HETATM   25  N1  UNL     1      21.448   0.957  48.825  1.00  0.00     0.082 N 
HETATM   26  H1  UNL     1      21.613   0.062  48.292  1.00  0.00     0.313 HD
HETATM   27  H2  UNL     1      20.429   1.198  48.881  1.00  0.00     0.313 HD
ENDBRANCH  24  25
ENDBRANCH   1  24
TORSDOF 5
ENDMDL
MODEL 3
REMARK VINA RESULT:      -7.4      2.093      3.560
REMARK  5 active torsions:
REMARK  status: ('A' for Active; 'I' for Inactive)
REMARK    1  A    between atoms: N1_1  and  C1_2 
REMARK    2  A    between atoms: C1_2  and  C2_3 
REMARK    3  A    between atoms: C10_14  and  C11_15 
REMARK    4  A    between atoms: C11_15  and  N4_16 
REMARK    5  A    between atoms: N4_16  and  C12_17 
ROOT
HETATM    1  C2  UNL     1      22.573   2.113  49.655  1.00  0.00    -0.051 C 
HETATM    2  C3  UNL     1      22.002   1.194  50.487  1.00  0.00     0.005 C 
HETATM    3  O1  UNL     1      21.525   0.317  51.492  1.00  0.00     0.000 OA
HETATM    4  C4  UNL     1      21.421   0.923  52.851  1.00  0.00     0.063 C 
HETATM    5  C5  UNL     1      21.702   2.313  52.515  1.00  0.00     0.046 A 
HETATM    6  N2  UNL     1      21.630   3.897  52.202  1.00  0.00    -0.258 NA
HETATM    7  C6  UNL     1      22.830   3.543  51.818  1.00  0.00     0.073 A 
HETATM    8  C7  UNL     1      23.709   3.262  51.543  1.00  0.00     0.103 A 
HETATM    9  N3  UNL     1      24.767   2.905  51.229  1.00  0.00    -0.273 NA
HETATM   10  C8  UNL     1      24.295   3.940  50.336  1.00  0.00     0.117 A 
HETATM   11  C9  UNL     1      23.445   3.194  49.289  1.00  0.00     0.051 C 
HETATM   12  C10 UNL     1      23.366   2.210  51.923  1.00  0.00     0.125 A 
ENDROOT
BRANCH  12  13
HETATM   13  C11 UNL     1      24.002   1.008  52.186  1.00  0.00     0.098 C 
BRANCH  13  14
HETATM   14  N4  UNL     1      24.584   0.028  53.055  1.00  0.00    -0.367 N 
HETATM   15  H13 UNL     1      23.979  -0.630  53.640  1.00  0.00     0.165 HD
BRANCH  14  16
HETATM   16  C12 UNL     1      26.020  -0.076  53.153  1.00  0.00     0.033 A 
HETATM   17  C13 UNL     1      26.625  -1.289  52.957  1.00  0.00     0.032 A 
HETATM   18  C14 UNL     1      27.987  -1.317  53.058  1.00  0.00     0.046 A 
HETATM   19  C15 UNL     1      28.746  -0.211  53.341  1.00  0.00     0.138 A 
HETATM   20  F1  UNL     1      30.081  -0.309  53.427  1.00  0.00    -0.204 F 
HETATM   21  C16 UNL     1      28.133   1.031  53.543  1.00  0.00     0.074 A 
HETATM   22 CL1  UNL     1      29.039   2.470  53.904  1.00  0.00    -0.081 Cl
HETATM   23  C17 UNL     1      26.755   1.034  53.434  1.00  0.00     0.056 A 
ENDBRANCH  14  16
ENDBRANCH  13  14
ENDBRANCH  12  13
BRANCH   1  24
HETATM   24  C1  UNL     1      21.858   1.774  48.371  1.00  0.00     0.301 C 
BRANCH  24  25
HETATM   25  N1  UNL     1      20.489   1.375  48.560  1.00  0.00     0.082 N 
HETATM   26  H1  UNL     1      20.072   1.965  49.329  1.00  0.00     0.313 HD
HETATM   27  H2  UNL     1      20.379   0.349  48.749  1.00  0.00     0.313 HD
ENDBRANCH  24  25
ENDBRANCH   1  24
TORSDOF 5
ENDMDL
MODEL 4
REMARK VINA RESULT:      -7.0      9.212     11.199
REMARK  5 active torsions:
REMARK  status: ('A' for Active; 'I' for Inactive)
REMARK    1  A    between atoms: N1_1  and  C1_2 
REMARK    2  A    between atoms: C1_2  and  C2_3 
REMARK    3  A    between atoms: C10_14  and  C11_15 
REMARK    4  A    between atoms: C11_15  and  N4_16 
REMARK    5  A    between atoms: N4_16  and  C12_17 
ROOT
HETATM    1  C2  UNL     1      33.433   5.436  45.918  1.00  0.00    -0.051 C 
HETATM    2  C3  UNL     1      34.136   6.220  46.785  1.00  0.00     0.005 C 
HETATM    3  O1  UNL     1      34.794   6.918  47.828  1.00  0.00     0.000 OA
HETATM    4  C4  UNL     1      35.263   6.060  48.953  1.00  0.00     0.063 C 
HETATM    5  C5  UNL     1      34.989   4.746  48.384  1.00  0.00     0.046 A 
HETATM    6  N2  UNL     1      35.073   3.279  47.712  1.00  0.00    -0.258 NA
HETATM    7  C6  UNL     1      33.797   3.570  47.700  1.00  0.00     0.073 A 
HETATM    8  C7  UNL     1      32.863   3.803  47.703  1.00  0.00     0.103 A 
HETATM    9  N3  UNL     1      31.741   4.099  47.726  1.00  0.00    -0.273 NA
HETATM   10  C8  UNL     1      32.038   3.329  46.538  1.00  0.00     0.117 A 
HETATM   11  C9  UNL     1      32.561   4.364  45.524  1.00  0.00     0.051 C 
HETATM   12  C10 UNL     1      33.228   4.785  48.224  1.00  0.00     0.125 A 
ENDROOT
BRANCH  12  13
HETATM   13  C11 UNL     1      32.607   5.829  48.889  1.00  0.00     0.098 C 
BRANCH  13  14
HETATM   14  N4  UNL     1      31.491   6.456  49.535  1.00  0.00    -0.367 N 
HETATM   15  H13 UNL     1      31.154   6.141  50.498  1.00  0.00     0.165 HD
BRANCH  14  16
HETATM   16  C12 UNL     1      30.798   7.536  48.873  1.00  0.00     0.033 A 
HETATM   17  C13 UNL     1      29.919   7.255  47.862  1.00  0.00     0.032 A 
HETATM   18  C14 UNL     1      29.293   8.320  47.280  1.00  0.00     0.046 A 
HETATM   19  C15 UNL     1      29.508   9.620  47.659  1.00  0.00     0.138 A 
HETATM   20  F1  UNL     1      28.861  10.621  47.044  1.00  0.00    -0.204 F 
HETATM   21  C16 UNL     1      30.407   9.914  48.691  1.00  0.00     0.074 A 
HETATM   22 CL1  UNL     1      30.723  11.540  49.218  1.00  0.00    -0.081 Cl
HETATM   23  C17 UNL     1      31.026   8.819  49.264  1.00  0.00     0.056 A 
ENDBRANCH  14  16
ENDBRANCH  13  14
ENDBRANCH  12  13
BRANCH   1  24
HETATM   24  C1  UNL     1      33.790   6.109  44.616  1.00  0.00     0.301 C 
BRANCH  24  25
HETATM   25  N1  UNL     1      34.505   7.346  44.783  1.00  0.00     0.082 N 
HETATM   26  H1  UNL     1      35.428   7.138  45.251  1.00  0.00     0.313 HD
HETATM   27  H2  UNL     1      33.957   8.075  45.302  1.00  0.00     0.313 HD
ENDBRANCH  24  25
ENDBRANCH   1  24
TORSDOF 5
ENDMDL
MODEL 5
REMARK VINA RESULT:      -6.7      3.025      4.192
REMARK  5 active torsions:
REMARK  status: ('A' for Active; 'I' for Inactive)
REMARK    1  A    between atoms: N1_1  and  C1_2 
REMARK    2  A    between atoms: C1_2  and  C2_3 
REMARK    3  A    between atoms: C10_14  and  C11_15 
REMARK    4  A    between atoms: C11_15  and  N4_16 
REMARK    5  A    between atoms: N4_16  and  C12_17 
ROOT
HETATM    1  C2  UNL     1      22.416   5.216  49.915  1.00  0.00    -0.051 C 
HETATM    2  C3  UNL     1      22.729   5.010  51.227  1.00  0.00     0.005 C 
HETATM    3  O1  UNL     1      23.082   4.607  52.538  1.00  0.00     0.000 OA
HETATM    4  C4  UNL     1      24.137   3.556  52.605  1.00  0.00     0.063 C 
HETATM    5  C5  UNL     1      24.518   3.510  51.199  1.00  0.00     0.046 A 
HETATM    6  N2  UNL     1      25.258   3.647  49.768  1.00  0.00    -0.258 NA
HETATM    7  C6  UNL     1      24.051   3.236  49.473  1.00  0.00     0.073 A 
HETATM    8  C7  UNL     1      23.158   2.931  49.278  1.00  0.00     0.103 A 
HETATM    9  N3  UNL     1      22.082   2.554  49.066  1.00  0.00    -0.273 NA
HETATM   10  C8  UNL     1      22.524   3.443  48.014  1.00  0.00     0.117 A 
HETATM   11  C9  UNL     1      22.208   4.857  48.540  1.00  0.00     0.051 C 
HETATM   12  C10 UNL     1      23.022   2.949  50.440  1.00  0.00     0.125 A 
ENDROOT
BRANCH  12  13
HETATM   13  C11 UNL     1      22.070   2.465  51.322  1.00  0.00     0.098 C 
BRANCH  13  14
HETATM   14  N4  UNL     1      21.229   1.439  51.866  1.00  0.00    -0.367 N 
HETATM   15  H13 UNL     1      20.228   1.298  51.522  1.00  0.00     0.165 HD
BRANCH  14  16
HETATM   16  C12 UNL     1      21.737   0.578  52.907  1.00  0.00     0.033 A 
HETATM   17  C13 UNL     1      20.875   0.059  53.836  1.00  0.00     0.032 A 
HETATM   18  C14 UNL     1      21.418  -0.752  54.790  1.00  0.00     0.046 A 
HETATM   19  C15 UNL     1      22.754  -1.055  54.851  1.00  0.00     0.138 A 
HETATM   20  F1  UNL     1      23.223  -1.859  55.817  1.00  0.00    -0.204 F 
HETATM   21  C16 UNL     1      23.641  -0.527  53.905  1.00  0.00     0.074 A 
HETATM   22 CL1  UNL     1      25.344  -0.874  53.927  1.00  0.00    -0.081 Cl
HETATM   23  C17 UNL     1      23.066   0.290  52.949  1.00  0.00     0.056 A 
ENDBRANCH  14  16
ENDBRANCH  13  14
ENDBRANCH  12  13
BRANCH   1  24
HETATM   24  C1  UNL     1      22.107   6.692  49.954  1.00  0.00     0.301 C 
BRANCH  24  25
HETATM   25  N1  UNL     1      21.795   7.182  51.270  1.00  0.00     0.082 N 
HETATM   26  H1  UNL     1      22.575   6.904  51.924  1.00  0.00     0.313 HD
HETATM   27  H2  UNL     1      20.858   6.865  51.620  1.00  0.00     0.313 HD
ENDBRANCH  24  25
ENDBRANCH   1  24
TORSDOF 5
ENDMDL
MODEL 6
REMARK VINA RESULT:      -6.6      2.149      2.740
REMARK  5 active torsions:
REMARK  status: ('A' for Active; 'I' for Inactive)
REMARK    1  A    between atoms: N1_1  and  C1_2 
REMARK    2  A    between atoms: C1_2  and  C2_3 
REMARK    3  A    between atoms: C10_14  and  C11_15 
REMARK    4  A    between atoms: C11_15  and  N4_16 
REMARK    5  A    between atoms: N4_16  and  C12_17 
ROOT
HETATM    1  C2  UNL     1      20.480   2.986  51.193  1.00  0.00    -0.051 C 
HETATM    2  C3  UNL     1      21.290   3.834  51.890  1.00  0.00     0.005 C 
HETATM    3  O1  UNL     1      22.279   4.597  52.557  1.00  0.00     0.000 OA
HETATM    4  C4  UNL     1      23.591   4.670  51.852  1.00  0.00     0.063 C 
HETATM    5  C5  UNL     1      23.224   4.030  50.595  1.00  0.00     0.046 A 
HETATM    6  N2  UNL     1      22.833   3.687  49.065  1.00  0.00    -0.258 NA
HETATM    7  C6  UNL     1      22.590   2.580  49.720  1.00  0.00     0.073 A 
HETATM    8  C7  UNL     1      22.420   1.775  50.220  1.00  0.00     0.103 A 
HETATM    9  N3  UNL     1      22.231   0.812  50.840  1.00  0.00    -0.273 NA
HETATM   10  C8  UNL     1      21.249   0.937  49.786  1.00  0.00     0.117 A 
HETATM   11  C9  UNL     1      20.156   1.848  50.378  1.00  0.00     0.051 C 
HETATM   12  C10 UNL     1      22.810   2.396  51.131  1.00  0.00     0.125 A 
ENDROOT
BRANCH  12  13
HETATM   13  C11 UNL     1      23.190   2.098  52.429  1.00  0.00     0.098 C 
BRANCH  13  14
HETATM   14  N4  UNL     1      23.739   1.242  53.441  1.00  0.00    -0.367 N 
HETATM   15  H13 UNL     1      23.156   0.922  54.277  1.00  0.00     0.165 HD
BRANCH  14  16
HETATM   16  C12 UNL     1      25.110   0.804  53.338  1.00  0.00     0.033 A 
HETATM   17  C13 UNL     1      25.382  -0.511  53.073  1.00  0.00     0.032 A 
HETATM   18  C14 UNL     1      26.699  -0.859  52.984  1.00  0.00     0.046 A 
HETATM   19  C15 UNL     1      27.728   0.033  53.145  1.00  0.00     0.138 A 
HETATM   20  F1  UNL     1      29.001  -0.376  53.045  1.00  0.00    -0.204 F 
HETATM   21  C16 UNL     1      27.457   1.379  53.417  1.00  0.00     0.074 A 
HETATM   22 CL1  UNL     1      28.716   2.559  53.632  1.00  0.00    -0.081 Cl
HETATM   23  C17 UNL     1      26.116   1.706  53.502  1.00  0.00     0.056 A 
ENDBRANCH  14  16
ENDBRANCH  13  14
ENDBRANCH  12  13
BRANCH   1  24
HETATM   24  C1  UNL     1      19.145   3.646  51.439  1.00  0.00     0.301 C 
BRANCH  24  25
HETATM   25  N1  UNL     1      18.022   2.850  51.021  1.00  0.00     0.082 N 
HETATM   26  H1  UNL     1      17.139   3.397  51.201  1.00  0.00     0.313 HD
HETATM   27  H2  UNL     1      17.995   1.902  51.472  1.00  0.00     0.313 HD
ENDBRANCH  24  25
ENDBRANCH   1  24
TORSDOF 5
ENDMDL
MODEL 7
REMARK VINA RESULT:      -6.6      3.591      5.979
REMARK  5 active torsions:
REMARK  status: ('A' for Active; 'I' for Inactive)
REMARK    1  A    between atoms: N1_1  and  C1_2 
REMARK    2  A    between atoms: C1_2  and  C2_3 
REMARK    3  A    between atoms: C10_14  and  C11_15 
REMARK    4  A    between atoms: C11_15  and  N4_16 
REMARK    5  A    between atoms: N4_16  and  C12_17 
ROOT
HETATM    1  C2  UNL     1      23.709   2.351  51.783  1.00  0.00    -0.051 C 
HETATM    2  C3  UNL     1      23.087   1.853  50.676  1.00  0.00     0.005 C 
HETATM    3  O1  UNL     1      22.350   1.511  49.516  1.00  0.00     0.000 OA
HETATM    4  C4  UNL     1      22.133   2.635  48.560  1.00  0.00     0.063 C 
HETATM    5  C5  UNL     1      22.986   3.642  49.178  1.00  0.00     0.046 A 
HETATM    6  N2  UNL     1      24.167   4.677  49.561  1.00  0.00    -0.258 NA
HETATM    7  C6  UNL     1      23.393   4.660  50.617  1.00  0.00     0.073 A 
HETATM    8  C7  UNL     1      22.809   4.633  51.382  1.00  0.00     0.103 A 
HETATM    9  N3  UNL     1      22.087   4.595  52.289  1.00  0.00    -0.273 NA
HETATM   10  C8  UNL     1      23.453   4.759  52.735  1.00  0.00     0.117 A 
HETATM   11  C9  UNL     1      24.020   3.328  52.790  1.00  0.00     0.051 C 
HETATM   12  C10 UNL     1      22.183   3.887  50.734  1.00  0.00     0.125 A 
ENDROOT
BRANCH  12  13
HETATM   13  C11 UNL     1      20.918   3.333  50.828  1.00  0.00     0.098 C 
BRANCH  13  14
HETATM   14  N4  UNL     1      19.708   3.007  51.525  1.00  0.00    -0.367 N 
HETATM   15  H13 UNL     1      18.913   3.713  51.624  1.00  0.00     0.165 HD
BRANCH  14  16
HETATM   16  C12 UNL     1      19.555   1.698  52.115  1.00  0.00     0.033 A 
HETATM   17  C13 UNL     1      18.549   0.875  51.684  1.00  0.00     0.032 A 
HETATM   18  C14 UNL     1      18.462  -0.351  52.279  1.00  0.00     0.046 A 
HETATM   19  C15 UNL     1      19.319  -0.774  53.262  1.00  0.00     0.138 A 
HETATM   20  F1  UNL     1      19.178  -1.992  53.806  1.00  0.00    -0.204 F 
HETATM   21  C16 UNL     1      20.349   0.063  53.708  1.00  0.00     0.074 A 
HETATM   22 CL1  UNL     1      21.467  -0.415  54.951  1.00  0.00    -0.081 Cl
HETATM   23  C17 UNL     1      20.416   1.297  53.089  1.00  0.00     0.056 A 
ENDBRANCH  14  16
ENDBRANCH  13  14
ENDBRANCH  12  13
BRANCH   1  24
HETATM   24  C1  UNL     1      24.560   1.163  52.156  1.00  0.00     0.301 C 
BRANCH  24  25
HETATM   25  N1  UNL     1      25.253   1.320  53.407  1.00  0.00     0.082 N 
HETATM   26  H1  UNL     1      25.745   2.253  53.402  1.00  0.00     0.313 HD
HETATM   27  H2  UNL     1      25.911   0.530  53.618  1.00  0.00     0.313 HD
ENDBRANCH  24  25
ENDBRANCH   1  24
TORSDOF 5
ENDMDL
MODEL 8
REMARK VINA RESULT:      -6.5      2.959      4.301
REMARK  5 active torsions:
REMARK  status: ('A' for Active; 'I' for Inactive)
REMARK    1  A    between atoms: N1_1  and  C1_2 
REMARK    2  A    between atoms: C1_2  and  C2_3 
REMARK    3  A    between atoms: C10_14  and  C11_15 
REMARK    4  A    between atoms: C11_15  and  N4_16 
REMARK    5  A    between atoms: N4_16  and  C12_17 
ROOT
HETATM    1  C2  UNL     1      23.981   5.591  50.091  1.00  0.00    -0.051 C 
HETATM    2  C3  UNL     1      23.998   4.328  49.575  1.00  0.00     0.005 C 
HETATM    3  O1  UNL     1      23.819   3.017  49.068  1.00  0.00     0.000 OA
HETATM    4  C4  UNL     1      22.552   2.808  48.311  1.00  0.00     0.063 C 
HETATM    5  C5  UNL     1      22.079   4.186  48.251  1.00  0.00     0.046 A 
HETATM    6  N2  UNL     1      21.667   5.685  47.811  1.00  0.00    -0.258 NA
HETATM    7  C6  UNL     1      21.567   5.690  49.116  1.00  0.00     0.073 A 
HETATM    8  C7  UNL     1      21.497   5.670  50.076  1.00  0.00     0.103 A 
HETATM    9  N3  UNL     1      21.410   5.622  51.233  1.00  0.00    -0.273 NA
HETATM   10  C8  UNL     1      21.869   6.927  50.813  1.00  0.00     0.117 A 
HETATM   11  C9  UNL     1      23.394   6.773  50.659  1.00  0.00     0.051 C 
HETATM   12  C10 UNL     1      21.817   4.550  49.962  1.00  0.00     0.125 A 
ENDROOT
BRANCH  12  13
HETATM   13  C11 UNL     1      21.843   3.449  50.801  1.00  0.00     0.098 C 
BRANCH  13  14
HETATM   14  N4  UNL     1      21.459   2.720  51.975  1.00  0.00    -0.367 N 
HETATM   15  H13 UNL     1      20.520   2.888  52.453  1.00  0.00     0.165 HD
BRANCH  14  16
HETATM   16  C12 UNL     1      22.360   1.740  52.532  1.00  0.00     0.033 A 
HETATM   17  C13 UNL     1      23.712   1.909  52.395  1.00  0.00     0.032 A 
HETATM   18  C14 UNL     1      24.509   0.948  52.949  1.00  0.00     0.046 A 
HETATM   19  C15 UNL     1      24.020  -0.146  53.615  1.00  0.00     0.138 A 
HETATM   20  F1  UNL     1      24.859  -1.054  54.135  1.00  0.00    -0.204 F 
HETATM   21  C16 UNL     1      22.638  -0.325  53.757  1.00  0.00     0.074 A 
HETATM   22 CL1  UNL     1      21.956  -1.690  54.590  1.00  0.00    -0.081 Cl
HETATM   23  C17 UNL     1      21.854   0.661  53.189  1.00  0.00     0.056 A 
ENDBRANCH  14  16
ENDBRANCH  13  14
ENDBRANCH  12  13
BRANCH   1  24
HETATM   24  C1  UNL     1      25.452   5.918  50.016  1.00  0.00     0.301 C 
BRANCH  24  25
HETATM   25  N1  UNL     1      26.306   4.766  50.126  1.00  0.00     0.082 N 
HETATM   26  H1  UNL     1      25.986   4.045  49.425  1.00  0.00     0.313 HD
HETATM   27  H2  UNL     1      26.351   4.375  51.098  1.00  0.00     0.313 HD
ENDBRANCH  24  25
ENDBRANCH   1  24
TORSDOF 5
ENDMDL
MODEL 9
REMARK VINA RESULT:      -6.4      4.516      5.271
REMARK  5 active torsions:
REMARK  status: ('A' for Active; 'I' for Inactive)
REMARK    1  A    between atoms: N1_1  and  C1_2 
REMARK    2  A    between atoms: C1_2  and  C2_3 
REMARK    3  A    between atoms: C10_14  and  C11_15 
REMARK    4  A    between atoms: C11_15  and  N4_16 
REMARK    5  A    between atoms: N4_16  and  C12_17 
ROOT
HETATM    1  C2  UNL     1      22.327   4.830  50.590  1.00  0.00    -0.051 C 
HETATM    2  C3  UNL     1      22.446   4.423  49.293  1.00  0.00     0.005 C 
HETATM    3  O1  UNL     1      22.679   3.853  48.017  1.00  0.00     0.000 OA
HETATM    4  C4  UNL     1      22.738   2.363  48.002  1.00  0.00     0.063 C 
HETATM    5  C5  UNL     1      22.323   2.092  49.373  1.00  0.00     0.046 A 
HETATM    6  N2  UNL     1      21.528   1.683  50.719  1.00  0.00    -0.258 NA
HETATM    7  C6  UNL     1      22.600   2.300  51.148  1.00  0.00     0.073 A 
HETATM    8  C7  UNL     1      23.397   2.755  51.441  1.00  0.00     0.103 A 
HETATM    9  N3  UNL     1      24.368   3.296  51.774  1.00  0.00    -0.273 NA
HETATM   10  C8  UNL     1      23.281   3.604  52.677  1.00  0.00     0.117 A 
HETATM   11  C9  UNL     1      22.540   4.779  52.009  1.00  0.00     0.051 C 
HETATM   12  C10 UNL     1      23.635   2.833  50.299  1.00  0.00     0.125 A 
ENDROOT
BRANCH  12  13
HETATM   13  C11 UNL     1      24.748   3.179  49.552  1.00  0.00     0.098 C 
BRANCH  13  14
HETATM   14  N4  UNL     1      26.145   3.457  49.384  1.00  0.00    -0.367 N 
HETATM   15  H13 UNL     1      26.877   2.680  49.417  1.00  0.00     0.165 HD
BRANCH  14  16
HETATM   16  C12 UNL     1      26.581   4.817  49.171  1.00  0.00     0.033 A 
HETATM   17  C13 UNL     1      27.762   5.054  48.519  1.00  0.00     0.032 A 
HETATM   18  C14 UNL     1      28.114   6.362  48.346  1.00  0.00     0.046 A 
HETATM   19  C15 UNL     1      27.352   7.413  48.788  1.00  0.00     0.138 A 
HETATM   20  F1  UNL     1      27.758   8.676  48.586  1.00  0.00    -0.204 F 
HETATM   21  C16 UNL     1      26.145   7.177  49.456  1.00  0.00     0.074 A 
HETATM   22 CL1  UNL     1      25.135   8.466  50.041  1.00  0.00    -0.081 Cl
HETATM   23  C17 UNL     1      25.810   5.845  49.618  1.00  0.00     0.056 A 
ENDBRANCH  14  16
ENDBRANCH  13  14
ENDBRANCH  12  13
BRANCH   1  24
HETATM   24  C1  UNL     1      21.471   6.057  50.396  1.00  0.00     0.301 C 
BRANCH  24  25
HETATM   25  N1  UNL     1      21.870   7.174  51.211  1.00  0.00     0.082 N 
HETATM   26  H1  UNL     1      21.495   8.057  50.774  1.00  0.00     0.313 HD
HETATM   27  H2  UNL     1      22.907   7.223  51.368  1.00  0.00     0.313 HD
ENDBRANCH  24  25
ENDBRANCH   1  24
TORSDOF 5
ENDMDL
