MODEL 1
REMARK VINA RESULT:     -10.3      0.000      0.000
REMARK  2 active torsions:
REMARK  status: ('A' for Active; 'I' for Inactive)
REMARK    1  A    between atoms: N2_15  and  C13_16 
REMARK    2  A    between atoms: C16_20  and  C17_21 
ROOT
HETATM    1  C1  UNL     1      26.633   8.001  48.184  1.00  0.00     0.052 C 
HETATM    2  C2  UNL     1      26.383   6.743  48.967  1.00  0.00    -0.011 C 
HETATM    3  C3  UNL     1      27.241   6.051  48.261  1.00  0.00     0.010 C 
HETATM    4  C4  UNL     1      27.232   4.692  48.891  1.00  0.00    -0.001 C 
HETATM    5  C5  UNL     1      26.804   3.872  49.797  1.00  0.00     0.002 C 
HETATM    6  C6  UNL     1      26.358   2.858  50.813  1.00  0.00     0.235 A 
HETATM    7  C7  UNL     1      24.958   2.651  50.823  1.00  0.00     0.212 A 
HETATM    8  O1  UNL     1      25.306   3.126  49.764  1.00  0.00    -0.348 OA
HETATM    9  N1  UNL     1      23.648   2.623  50.420  1.00  0.00    -0.337 N 
HETATM   10  C8  UNL     1      22.488   2.716  49.755  1.00  0.00     0.139 C 
HETATM   11  C9  UNL     1      23.081   2.915  48.558  1.00  0.00     0.034 C 
HETATM   12  C10 UNL     1      22.798   4.236  48.667  1.00  0.00    -0.019 C 
HETATM   13  C11 UNL     1      21.388   4.454  48.259  1.00  0.00     0.030 C 
HETATM   14  C12 UNL     1      20.488   3.710  48.963  1.00  0.00     0.118 C 
HETATM   15  N2  UNL     1      21.134   2.712  49.826  1.00  0.00    -0.139 N 
HETATM   16  C22 UNL     1      23.619   5.295  49.148  1.00  0.00     0.023 C 
HETATM   17  C23 UNL     1      23.961   6.271  49.945  1.00  0.00    -0.011 C 
HETATM   18  C24 UNL     1      22.816   6.114  50.738  1.00  0.00     0.052 C 
HETATM   19  C25 UNL     1      25.219   6.958  49.712  1.00  0.00     0.183 C 
HETATM   20  O2  UNL     1      25.110   7.956  50.456  1.00  0.00    -0.287 OA
HETATM   21  H9  UNL     1      23.242   2.295  51.317  1.00  0.00     0.164 HD
ENDROOT
BRANCH  15  22
HETATM   22  C13 UNL     1      20.723   1.767  50.736  1.00  0.00     0.734 A 
HETATM   23  N3  UNL     1      19.456   1.364  50.548  1.00  0.00    -0.074 NA
HETATM   24  C14 UNL     1      18.914   0.406  51.321  1.00  0.00     0.139 A 
HETATM   25  C15 UNL     1      19.736  -0.141  52.327  1.00  0.00     0.053 A 
HETATM   26  C16 UNL     1      21.023   0.243  52.546  1.00  0.00     0.089 A 
HETATM   27  N5  UNL     1      21.464   1.203  51.719  1.00  0.00    -0.061 NA
BRANCH  26  28
HETATM   28  C17 UNL     1      21.936  -0.336  53.555  1.00  0.00     0.011 A 
HETATM   29  C18 UNL     1      23.249  -0.003  53.456  1.00  0.00     0.017 A 
HETATM   30  C19 UNL     1      24.146  -0.590  54.370  1.00  0.00     0.020 A 
HETATM   31  C20 UNL     1      23.521  -1.442  55.250  1.00  0.00     0.116 A 
HETATM   32  N4  UNL     1      22.216  -1.760  55.332  1.00  0.00    -0.272 NA
HETATM   33  C21 UNL     1      21.331  -1.194  54.446  1.00  0.00     0.130 A 
ENDBRANCH  26  28
ENDBRANCH  15  22
TORSDOF 2
ENDMDL
MODEL 2
REMARK VINA RESULT:     -10.0      2.760      7.712
REMARK  2 active torsions:
REMARK  status: ('A' for Active; 'I' for Inactive)
REMARK    1  A    between atoms: N2_15  and  C13_16 
REMARK    2  A    between atoms: C16_20  and  C17_21 
ROOT
HETATM    1  C1  UNL     1      22.154  -1.266  54.351  1.00  0.00     0.052 C 
HETATM    2  C2  UNL     1      23.150  -0.543  53.491  1.00  0.00    -0.011 C 
HETATM    3  C3  UNL     1      24.067  -0.549  54.427  1.00  0.00     0.010 C 
HETATM    4  C4  UNL     1      25.255   0.102  53.789  1.00  0.00    -0.001 C 
HETATM    5  C5  UNL     1      25.824   0.655  52.765  1.00  0.00     0.002 C 
HETATM    6  C6  UNL     1      26.557   1.306  51.627  1.00  0.00     0.235 A 
HETATM    7  C7  UNL     1      25.910   2.462  51.129  1.00  0.00     0.212 A 
HETATM    8  O1  UNL     1      25.539   2.224  52.258  1.00  0.00    -0.348 OA
HETATM    9  N1  UNL     1      25.095   3.562  51.057  1.00  0.00    -0.337 N 
HETATM   10  C8  UNL     1      24.224   4.555  51.285  1.00  0.00     0.139 C 
HETATM   11  C9  UNL     1      24.188   4.344  52.619  1.00  0.00     0.034 C 
HETATM   12  C10 UNL     1      22.998   3.717  52.461  1.00  0.00    -0.019 C 
HETATM   13  C11 UNL     1      21.929   4.742  52.367  1.00  0.00     0.030 C 
HETATM   14  C12 UNL     1      22.127   5.655  51.374  1.00  0.00     0.118 C 
HETATM   15  N2  UNL     1      23.454   5.536  50.753  1.00  0.00    -0.139 N 
HETATM   16  C22 UNL     1      22.725   2.326  52.326  1.00  0.00     0.023 C 
HETATM   17  C23 UNL     1      22.299   1.246  51.726  1.00  0.00    -0.011 C 
HETATM   18  C24 UNL     1      21.906   1.956  50.583  1.00  0.00     0.052 C 
HETATM   19  C25 UNL     1      22.443  -0.032  52.399  1.00  0.00     0.183 C 
HETATM   20  O2  UNL     1      21.727  -0.776  51.695  1.00  0.00    -0.287 OA
HETATM   21  H9  UNL     1      25.286   3.801  50.066  1.00  0.00     0.164 HD
ENDROOT
BRANCH  15  22
HETATM   22  C13 UNL     1      24.132   6.150  49.728  1.00  0.00     0.734 A 
HETATM   23  N3  UNL     1      23.378   7.023  49.040  1.00  0.00    -0.074 NA
HETATM   24  C14 UNL     1      23.904   7.748  48.036  1.00  0.00     0.139 A 
HETATM   25  C15 UNL     1      25.268   7.542  47.748  1.00  0.00     0.053 A 
HETATM   26  C16 UNL     1      26.062   6.666  48.424  1.00  0.00     0.089 A 
HETATM   27  N5  UNL     1      25.438   5.996  49.405  1.00  0.00    -0.061 NA
BRANCH  26  28
HETATM   28  C17 UNL     1      27.506   6.452  48.189  1.00  0.00     0.011 A 
HETATM   29  C18 UNL     1      28.189   7.471  47.606  1.00  0.00     0.017 A 
HETATM   30  C19 UNL     1      29.553   7.267  47.319  1.00  0.00     0.020 A 
HETATM   31  C20 UNL     1      29.990   6.017  47.690  1.00  0.00     0.116 A 
HETATM   32  N4  UNL     1      29.296   5.019  48.268  1.00  0.00    -0.272 NA
HETATM   33  C21 UNL     1      27.965   5.206  48.553  1.00  0.00     0.130 A 
ENDBRANCH  26  28
ENDBRANCH  15  22
TORSDOF 2
ENDMDL
MODEL 3
REMARK VINA RESULT:      -9.9      2.302      4.238
REMARK  2 active torsions:
REMARK  status: ('A' for Active; 'I' for Inactive)
REMARK    1  A    between atoms: N2_15  and  C13_16 
REMARK    2  A    between atoms: C16_20  and  C17_21 
ROOT
HETATM    1  C1  UNL     1      19.608   6.254  47.166  1.00  0.00     0.052 C 
HETATM    2  C2  UNL     1      20.701   5.627  47.984  1.00  0.00    -0.011 C 
HETATM    3  C3  UNL     1      21.421   5.340  46.928  1.00  0.00     0.010 C 
HETATM    4  C4  UNL     1      22.664   4.717  47.483  1.00  0.00    -0.001 C 
HETATM    5  C5  UNL     1      23.381   4.334  48.492  1.00  0.00     0.002 C 
HETATM    6  C6  UNL     1      24.273   3.863  49.605  1.00  0.00     0.235 A 
HETATM    7  C7  UNL     1      23.659   2.912  50.454  1.00  0.00     0.212 A 
HETATM    8  O1  UNL     1      23.095   2.946  49.381  1.00  0.00    -0.348 OA
HETATM    9  N1  UNL     1      22.803   1.943  50.911  1.00  0.00    -0.337 N 
HETATM   10  C8  UNL     1      21.842   1.022  51.065  1.00  0.00     0.139 C 
HETATM   11  C9  UNL     1      21.566   0.951  49.744  1.00  0.00     0.034 C 
HETATM   12  C10 UNL     1      20.471   1.719  49.958  1.00  0.00    -0.019 C 
HETATM   13  C11 UNL     1      19.376   0.854  50.463  1.00  0.00     0.030 C 
HETATM   14  C12 UNL     1      19.699   0.154  51.588  1.00  0.00     0.118 C 
HETATM   15  N2  UNL     1      21.125   0.261  51.928  1.00  0.00    -0.139 N 
HETATM   16  C22 UNL     1      20.319   3.128  49.821  1.00  0.00     0.023 C 
HETATM   17  C23 UNL     1      20.087   4.348  50.226  1.00  0.00    -0.011 C 
HETATM   18  C24 UNL     1      19.872   3.939  51.549  1.00  0.00     0.052 C 
HETATM   19  C25 UNL     1      20.182   5.434  49.267  1.00  0.00     0.183 C 
HETATM   20  O2  UNL     1      19.663   6.380  49.898  1.00  0.00    -0.287 OA
HETATM   21  H9  UNL     1      23.163   1.899  51.883  1.00  0.00     0.164 HD
ENDROOT
BRANCH  15  22
HETATM   22  C13 UNL     1      21.945  -0.192  52.934  1.00  0.00     0.734 A 
HETATM   23  N3  UNL     1      21.280  -0.815  53.921  1.00  0.00    -0.074 NA
HETATM   24  C14 UNL     1      21.938  -1.364  54.958  1.00  0.00     0.139 A 
HETATM   25  C15 UNL     1      23.344  -1.248  54.953  1.00  0.00     0.053 A 
HETATM   26  C16 UNL     1      24.049  -0.625  53.970  1.00  0.00     0.089 A 
HETATM   27  N5  UNL     1      23.295  -0.114  52.984  1.00  0.00    -0.061 NA
BRANCH  26  28
HETATM   28  C17 UNL     1      25.523  -0.522  53.898  1.00  0.00     0.011 A 
HETATM   29  C18 UNL     1      26.111  -0.943  52.749  1.00  0.00     0.017 A 
HETATM   30  C19 UNL     1      27.518  -0.910  52.682  1.00  0.00     0.020 A 
HETATM   31  C20 UNL     1      28.091  -0.438  53.838  1.00  0.00     0.116 A 
HETATM   32  N4  UNL     1      27.490  -0.024  54.970  1.00  0.00    -0.272 NA
HETATM   33  C21 UNL     1      26.118  -0.052  55.047  1.00  0.00     0.130 A 
ENDBRANCH  26  28
ENDBRANCH  15  22
TORSDOF 2
ENDMDL
MODEL 4
REMARK VINA RESULT:      -9.7      3.024      8.065
REMARK  2 active torsions:
REMARK  status: ('A' for Active; 'I' for Inactive)
REMARK    1  A    between atoms: N2_15  and  C13_16 
REMARK    2  A    between atoms: C16_20  and  C17_21 
ROOT
HETATM    1  C1  UNL     1      20.941   0.473  51.917  1.00  0.00     0.052 C 
HETATM    2  C2  UNL     1      22.307   0.952  51.515  1.00  0.00    -0.011 C 
HETATM    3  C3  UNL     1      22.758   0.914  52.744  1.00  0.00     0.010 C 
HETATM    4  C4  UNL     1      24.195   1.318  52.627  1.00  0.00    -0.001 C 
HETATM    5  C5  UNL     1      25.213   1.672  51.907  1.00  0.00     0.002 C 
HETATM    6  C6  UNL     1      26.439   2.088  51.146  1.00  0.00     0.235 A 
HETATM    7  C7  UNL     1      26.256   3.266  50.383  1.00  0.00     0.212 A 
HETATM    8  O1  UNL     1      25.429   3.203  51.268  1.00  0.00    -0.348 OA
HETATM    9  N1  UNL     1      25.742   4.457  49.940  1.00  0.00    -0.337 N 
HETATM   10  C8  UNL     1      25.039   5.582  49.752  1.00  0.00     0.139 C 
HETATM   11  C9  UNL     1      24.437   5.521  50.960  1.00  0.00     0.034 C 
HETATM   12  C10 UNL     1      23.320   5.057  50.351  1.00  0.00    -0.019 C 
HETATM   13  C11 UNL     1      22.573   6.208  49.786  1.00  0.00     0.030 C 
HETATM   14  C12 UNL     1      23.306   6.974  48.928  1.00  0.00     0.118 C 
HETATM   15  N2  UNL     1      24.727   6.601  48.913  1.00  0.00    -0.139 N 
HETATM   16  C22 UNL     1      22.887   3.712  50.169  1.00  0.00     0.023 C 
HETATM   17  C23 UNL     1      22.555   2.647  49.489  1.00  0.00    -0.011 C 
HETATM   18  C24 UNL     1      22.780   3.281  48.259  1.00  0.00     0.052 C 
HETATM   19  C25 UNL     1      22.195   1.440  50.210  1.00  0.00     0.183 C 
HETATM   20  O2  UNL     1      21.702   0.735  49.303  1.00  0.00    -0.287 OA
HETATM   21  H9  UNL     1      26.350   4.560  49.106  1.00  0.00     0.164 HD
ENDROOT
BRANCH  15  22
HETATM   22  C13 UNL     1      25.854   7.000  48.234  1.00  0.00     0.734 A 
HETATM   23  N3  UNL     1      25.594   7.850  47.227  1.00  0.00    -0.074 NA
HETATM   24  C14 UNL     1      26.591   8.377  46.494  1.00  0.00     0.139 A 
HETATM   25  C15 UNL     1      27.904   7.992  46.834  1.00  0.00     0.053 A 
HETATM   26  C16 UNL     1      28.204   7.134  47.848  1.00  0.00     0.089 A 
HETATM   27  N5  UNL     1      27.136   6.669  48.515  1.00  0.00    -0.061 NA
BRANCH  26  28
HETATM   28  C17 UNL     1      29.565   6.741  48.271  1.00  0.00     0.011 A 
HETATM   29  C18 UNL     1      30.354   7.721  48.784  1.00  0.00     0.017 A 
HETATM   30  C19 UNL     1      31.675   7.382  49.138  1.00  0.00     0.020 A 
HETATM   31  C20 UNL     1      31.963   6.060  48.897  1.00  0.00     0.116 A 
HETATM   32  N4  UNL     1      31.166   5.102  48.388  1.00  0.00    -0.272 NA
HETATM   33  C21 UNL     1      29.876   5.420  48.038  1.00  0.00     0.130 A 
ENDBRANCH  26  28
ENDBRANCH  15  22
TORSDOF 2
ENDMDL
MODEL 5
REMARK VINA RESULT:      -9.6      3.792      6.616
REMARK  2 active torsions:
REMARK  status: ('A' for Active; 'I' for Inactive)
REMARK    1  A    between atoms: N2_15  and  C13_16 
REMARK    2  A    between atoms: C16_20  and  C17_21 
ROOT
HETATM    1  C1  UNL     1      25.883   2.418  52.146  1.00  0.00     0.052 C 
HETATM    2  C2  UNL     1      24.663   1.787  52.754  1.00  0.00    -0.011 C 
HETATM    3  C3  UNL     1      25.170   0.581  52.691  1.00  0.00     0.010 C 
HETATM    4  C4  UNL     1      24.128  -0.295  53.313  1.00  0.00    -0.001 C 
HETATM    5  C5  UNL     1      22.979  -0.444  53.893  1.00  0.00     0.002 C 
HETATM    6  C6  UNL     1      21.663  -0.704  54.569  1.00  0.00     0.235 A 
HETATM    7  C7  UNL     1      20.548  -0.250  53.823  1.00  0.00     0.212 A 
HETATM    8  O1  UNL     1      21.507  -0.404  53.098  1.00  0.00    -0.348 OA
HETATM    9  N1  UNL     1      19.773   0.159  52.770  1.00  0.00    -0.337 N 
HETATM   10  C8  UNL     1      19.281   0.505  51.572  1.00  0.00     0.139 C 
HETATM   11  C9  UNL     1      20.313  -0.034  50.887  1.00  0.00     0.034 C 
HETATM   12  C10 UNL     1      20.819   1.212  50.722  1.00  0.00    -0.019 C 
HETATM   13  C11 UNL     1      20.116   1.865  49.591  1.00  0.00     0.030 C 
HETATM   14  C12 UNL     1      18.761   1.913  49.737  1.00  0.00     0.118 C 
HETATM   15  N2  UNL     1      18.290   1.126  50.887  1.00  0.00    -0.139 N 
HETATM   16  C22 UNL     1      21.805   1.892  51.493  1.00  0.00     0.023 C 
HETATM   17  C23 UNL     1      22.272   2.831  52.272  1.00  0.00    -0.011 C 
HETATM   18  C24 UNL     1      21.041   3.500  52.314  1.00  0.00     0.052 C 
HETATM   19  C25 UNL     1      23.651   2.750  52.718  1.00  0.00     0.183 C 
HETATM   20  O2  UNL     1      23.832   3.888  53.202  1.00  0.00    -0.287 OA
HETATM   21  H9  UNL     1      18.925   0.399  53.317  1.00  0.00     0.164 HD
ENDROOT
BRANCH  15  22
HETATM   22  C13 UNL     1      17.081   0.870  51.488  1.00  0.00     0.734 A 
HETATM   23  N3  UNL     1      16.832  -0.441  51.642  1.00  0.00    -0.074 NA
HETATM   24  C14 UNL     1      15.714  -0.864  52.260  1.00  0.00     0.139 A 
HETATM   25  C15 UNL     1      14.831   0.130  52.728  1.00  0.00     0.053 A 
HETATM   26  C16 UNL     1      15.052   1.466  52.590  1.00  0.00     0.089 A 
HETATM   27  N5  UNL     1      16.195   1.778  51.961  1.00  0.00    -0.061 NA
BRANCH  26  28
HETATM   28  C17 UNL     1      14.179   2.543  53.107  1.00  0.00     0.011 A 
HETATM   29  C18 UNL     1      12.910   2.195  53.442  1.00  0.00     0.017 A 
HETATM   30  C19 UNL     1      12.044   3.216  53.880  1.00  0.00     0.020 A 
HETATM   31  C20 UNL     1      12.648   4.450  53.898  1.00  0.00     0.116 A 
HETATM   32  N4  UNL     1      13.911   4.776  53.562  1.00  0.00    -0.272 NA
HETATM   33  C21 UNL     1      14.765   3.789  53.133  1.00  0.00     0.130 A 
ENDBRANCH  26  28
ENDBRANCH  15  22
TORSDOF 2
ENDMDL
MODEL 6
REMARK VINA RESULT:      -9.5      3.063      8.591
REMARK  2 active torsions:
REMARK  status: ('A' for Active; 'I' for Inactive)
REMARK    1  A    between atoms: N2_15  and  C13_16 
REMARK    2  A    between atoms: C16_20  and  C17_21 
ROOT
HETATM    1  C1  UNL     1      19.861   0.317  51.240  1.00  0.00     0.052 C 
HETATM    2  C2  UNL     1      21.318   0.683  51.257  1.00  0.00    -0.011 C 
HETATM    3  C3  UNL     1      21.386   0.632  52.564  1.00  0.00     0.010 C 
HETATM    4  C4  UNL     1      22.822   0.923  52.874  1.00  0.00    -0.001 C 
HETATM    5  C5  UNL     1      24.029   1.186  52.485  1.00  0.00     0.002 C 
HETATM    6  C6  UNL     1      25.453   1.494  52.118  1.00  0.00     0.235 A 
HETATM    7  C7  UNL     1      25.593   2.669  51.341  1.00  0.00     0.212 A 
HETATM    8  O1  UNL     1      24.542   2.685  51.945  1.00  0.00    -0.348 OA
HETATM    9  N1  UNL     1      25.325   3.888  50.774  1.00  0.00    -0.337 N 
HETATM   10  C8  UNL     1      24.797   5.060  50.395  1.00  0.00     0.139 C 
HETATM   11  C9  UNL     1      23.866   5.066  51.375  1.00  0.00     0.034 C 
HETATM   12  C10 UNL     1      22.943   4.678  50.463  1.00  0.00    -0.019 C 
HETATM   13  C11 UNL     1      22.485   5.873  49.711  1.00  0.00     0.030 C 
HETATM   14  C12 UNL     1      23.494   6.565  49.109  1.00  0.00     0.118 C 
HETATM   15  N2  UNL     1      24.824   6.085  49.508  1.00  0.00    -0.139 N 
HETATM   16  C22 UNL     1      22.478   3.368  50.155  1.00  0.00     0.023 C 
HETATM   17  C23 UNL     1      22.277   2.319  49.402  1.00  0.00    -0.011 C 
HETATM   18  C24 UNL     1      22.900   2.913  48.295  1.00  0.00     0.052 C 
HETATM   19  C25 UNL     1      21.629   1.156  49.979  1.00  0.00     0.183 C 
HETATM   20  O2  UNL     1      21.369   0.475  48.964  1.00  0.00    -0.287 OA
HETATM   21  H9  UNL     1      26.156   3.930  50.155  1.00  0.00     0.164 HD
ENDROOT
BRANCH  15  22
HETATM   22  C13 UNL     1      26.127   6.386  49.190  1.00  0.00     0.734 A 
HETATM   23  N3  UNL     1      26.826   5.325  48.752  1.00  0.00    -0.074 NA
HETATM   24  C14 UNL     1      28.103   5.458  48.351  1.00  0.00     0.139 A 
HETATM   25  C15 UNL     1      28.660   6.751  48.417  1.00  0.00     0.053 A 
HETATM   26  C16 UNL     1      27.982   7.847  48.854  1.00  0.00     0.089 A 
HETATM   27  N5  UNL     1      26.717   7.604  49.229  1.00  0.00    -0.061 NA
BRANCH  26  28
HETATM   28  C17 UNL     1      28.509   9.228  48.894  1.00  0.00     0.011 A 
HETATM   29  C18 UNL     1      29.853   9.376  48.762  1.00  0.00     0.017 A 
HETATM   30  C19 UNL     1      30.383  10.677  48.857  1.00  0.00     0.020 A 
HETATM   31  C20 UNL     1      29.414  11.627  49.078  1.00  0.00     0.116 A 
HETATM   32  N4  UNL     1      28.084  11.462  49.207  1.00  0.00    -0.272 NA
HETATM   33  C21 UNL     1      27.555  10.197  49.117  1.00  0.00     0.130 A 
ENDBRANCH  26  28
ENDBRANCH  15  22
TORSDOF 2
ENDMDL
MODEL 7
REMARK VINA RESULT:      -9.5      2.811      8.463
REMARK  2 active torsions:
REMARK  status: ('A' for Active; 'I' for Inactive)
REMARK    1  A    between atoms: N2_15  and  C13_16 
REMARK    2  A    between atoms: C16_20  and  C17_21 
ROOT
HETATM    1  C1  UNL     1      20.666  -0.996  53.739  1.00  0.00     0.052 C 
HETATM    2  C2  UNL     1      21.996  -0.573  53.183  1.00  0.00    -0.011 C 
HETATM    3  C3  UNL     1      22.616  -0.791  54.316  1.00  0.00     0.010 C 
HETATM    4  C4  UNL     1      24.051  -0.482  54.020  1.00  0.00    -0.001 C 
HETATM    5  C5  UNL     1      24.980  -0.118  53.193  1.00  0.00     0.002 C 
HETATM    6  C6  UNL     1      26.115   0.295  52.300  1.00  0.00     0.235 A 
HETATM    7  C7  UNL     1      25.928   1.566  51.705  1.00  0.00     0.212 A 
HETATM    8  O1  UNL     1      25.238   1.458  52.696  1.00  0.00    -0.348 OA
HETATM    9  N1  UNL     1      25.465   2.836  51.479  1.00  0.00    -0.337 N 
HETATM   10  C8  UNL     1      24.846   4.024  51.524  1.00  0.00     0.139 C 
HETATM   11  C9  UNL     1      24.425   3.862  52.798  1.00  0.00     0.034 C 
HETATM   12  C10 UNL     1      23.193   3.557  52.324  1.00  0.00    -0.019 C 
HETATM   13  C11 UNL     1      22.479   4.819  52.009  1.00  0.00     0.030 C 
HETATM   14  C12 UNL     1      23.144   5.627  51.135  1.00  0.00     0.118 C 
HETATM   15  N2  UNL     1      24.508   5.156  50.859  1.00  0.00    -0.139 N 
HETATM   16  C22 UNL     1      22.618   2.280  52.068  1.00  0.00     0.023 C 
HETATM   17  C23 UNL     1      22.097   1.331  51.337  1.00  0.00    -0.011 C 
HETATM   18  C24 UNL     1      22.195   2.090  50.163  1.00  0.00     0.052 C 
HETATM   19  C25 UNL     1      21.738   0.075  51.972  1.00  0.00     0.183 C 
HETATM   20  O2  UNL     1      21.057  -0.478  51.082  1.00  0.00    -0.287 OA
HETATM   21  H9  UNL     1      25.952   2.994  50.576  1.00  0.00     0.164 HD
ENDROOT
BRANCH  15  22
HETATM   22  C13 UNL     1      25.555   5.551  50.060  1.00  0.00     0.734 A 
HETATM   23  N3  UNL     1      26.235   4.522  49.529  1.00  0.00    -0.074 NA
HETATM   24  C14 UNL     1      27.258   4.735  48.681  1.00  0.00     0.139 A 
HETATM   25  C15 UNL     1      27.574   6.078  48.389  1.00  0.00     0.053 A 
HETATM   26  C16 UNL     1      26.906   7.144  48.909  1.00  0.00     0.089 A 
HETATM   27  N5  UNL     1      25.904   6.819  49.740  1.00  0.00    -0.061 NA
BRANCH  26  28
HETATM   28  C17 UNL     1      27.170   8.564  48.593  1.00  0.00     0.011 A 
HETATM   29  C18 UNL     1      27.735   8.830  47.387  1.00  0.00     0.017 A 
HETATM   30  C19 UNL     1      28.050  10.170  47.090  1.00  0.00     0.020 A 
HETATM   31  C20 UNL     1      27.721  11.029  48.112  1.00  0.00     0.116 A 
HETATM   32  N4  UNL     1      27.160  10.747  49.303  1.00  0.00    -0.272 NA
HETATM   33  C21 UNL     1      26.849   9.443  49.604  1.00  0.00     0.130 A 
ENDBRANCH  26  28
ENDBRANCH  15  22
TORSDOF 2
ENDMDL
MODEL 8
REMARK VINA RESULT:      -9.4      3.129      5.720
REMARK  2 active torsions:
REMARK  status: ('A' for Active; 'I' for Inactive)
REMARK    1  A    between atoms: N2_15  and  C13_16 
REMARK    2  A    between atoms: C16_20  and  C17_21 
ROOT
HETATM    1  C1  UNL     1      16.915   3.902  47.662  1.00  0.00     0.052 C 
HETATM    2  C2  UNL     1      18.390   4.011  47.925  1.00  0.00    -0.011 C 
HETATM    3  C3  UNL     1      18.704   3.630  46.712  1.00  0.00     0.010 C 
HETATM    4  C4  UNL     1      20.199   3.700  46.675  1.00  0.00    -0.001 C 
HETATM    5  C5  UNL     1      21.331   3.964  47.248  1.00  0.00     0.002 C 
HETATM    6  C6  UNL     1      22.683   4.246  47.837  1.00  0.00     0.235 A 
HETATM    7  C7  UNL     1      22.948   3.508  49.016  1.00  0.00     0.212 A 
HETATM    8  O1  UNL     1      22.077   2.969  48.368  1.00  0.00    -0.348 OA
HETATM    9  N1  UNL     1      22.880   2.536  49.980  1.00  0.00    -0.337 N 
HETATM   10  C8  UNL     1      22.591   1.462  50.729  1.00  0.00     0.139 C 
HETATM   11  C9  UNL     1      21.906   0.841  49.743  1.00  0.00     0.034 C 
HETATM   12  C10 UNL     1      20.752   1.219  50.344  1.00  0.00    -0.019 C 
HETATM   13  C11 UNL     1      20.461   0.274  51.450  1.00  0.00     0.030 C 
HETATM   14  C12 UNL     1      21.466   0.168  52.365  1.00  0.00     0.118 C 
HETATM   15  N2  UNL     1      22.691   0.862  51.940  1.00  0.00    -0.139 N 
HETATM   16  C22 UNL     1      19.928   2.349  50.079  1.00  0.00     0.023 C 
HETATM   17  C23 UNL     1      19.329   3.479  50.349  1.00  0.00    -0.011 C 
HETATM   18  C24 UNL     1      19.844   3.517  51.652  1.00  0.00     0.052 C 
HETATM   19  C25 UNL     1      18.545   4.121  49.310  1.00  0.00     0.183 C 
HETATM   20  O2  UNL     1      17.928   4.995  49.956  1.00  0.00    -0.287 OA
HETATM   21  H9  UNL     1      23.555   2.961  50.643  1.00  0.00     0.164 HD
ENDROOT
BRANCH  15  22
HETATM   22  C13 UNL     1      23.937   1.097  52.471  1.00  0.00     0.734 A 
HETATM   23  N3  UNL     1      24.059   2.317  53.018  1.00  0.00    -0.074 NA
HETATM   24  C14 UNL     1      25.200   2.689  53.627  1.00  0.00     0.139 A 
HETATM   25  C15 UNL     1      26.244   1.743  53.655  1.00  0.00     0.053 A 
HETATM   26  C16 UNL     1      26.155   0.498  53.111  1.00  0.00     0.089 A 
HETATM   27  N5  UNL     1      24.975   0.230  52.530  1.00  0.00    -0.061 NA
BRANCH  26  28
HETATM   28  C17 UNL     1      27.204  -0.542  53.160  1.00  0.00     0.011 A 
HETATM   29  C18 UNL     1      28.439  -0.149  53.567  1.00  0.00     0.017 A 
HETATM   30  C19 UNL     1      29.468  -1.110  53.564  1.00  0.00     0.020 A 
HETATM   31  C20 UNL     1      29.039  -2.342  53.131  1.00  0.00     0.116 A 
HETATM   32  N4  UNL     1      27.809  -2.714  52.731  1.00  0.00    -0.272 NA
HETATM   33  C21 UNL     1      26.796  -1.785  52.729  1.00  0.00     0.130 A 
ENDBRANCH  26  28
ENDBRANCH  15  22
TORSDOF 2
ENDMDL
MODEL 9
REMARK VINA RESULT:      -9.3      3.263      6.152
REMARK  2 active torsions:
REMARK  status: ('A' for Active; 'I' for Inactive)
REMARK    1  A    between atoms: N2_15  and  C13_16 
REMARK    2  A    between atoms: C16_20  and  C17_21 
ROOT
HETATM    1  C1  UNL     1      26.696   0.463  53.360  1.00  0.00     0.052 C 
HETATM    2  C2  UNL     1      25.214   0.565  53.581  1.00  0.00    -0.011 C 
HETATM    3  C3  UNL     1      25.080  -0.728  53.744  1.00  0.00     0.010 C 
HETATM    4  C4  UNL     1      23.626  -0.916  54.046  1.00  0.00    -0.001 C 
HETATM    5  C5  UNL     1      22.440  -0.429  54.238  1.00  0.00     0.002 C 
HETATM    6  C6  UNL     1      21.037   0.054  54.473  1.00  0.00     0.235 A 
HETATM    7  C7  UNL     1      20.509   0.796  53.389  1.00  0.00     0.212 A 
HETATM    8  O1  UNL     1      21.427   0.098  53.015  1.00  0.00    -0.348 OA
HETATM    9  N1  UNL     1      20.323   1.290  52.124  1.00  0.00    -0.337 N 
HETATM   10  C8  UNL     1      20.382   1.576  50.816  1.00  0.00     0.139 C 
HETATM   11  C9  UNL     1      21.168   0.516  50.523  1.00  0.00     0.034 C 
HETATM   12  C10 UNL     1      22.231   1.354  50.465  1.00  0.00    -0.019 C 
HETATM   13  C11 UNL     1      22.242   2.016  49.137  1.00  0.00     0.030 C 
HETATM   14  C12 UNL     1      21.089   2.682  48.842  1.00  0.00     0.118 C 
HETATM   15  N2  UNL     1      20.023   2.423  49.821  1.00  0.00    -0.139 N 
HETATM   16  C22 UNL     1      23.186   1.668  51.473  1.00  0.00     0.023 C 
HETATM   17  C23 UNL     1      23.828   2.438  52.311  1.00  0.00    -0.011 C 
HETATM   18  C24 UNL     1      23.103   3.574  51.925  1.00  0.00     0.052 C 
HETATM   19  C25 UNL     1      24.834   1.848  53.176  1.00  0.00     0.183 C 
HETATM   20  O2  UNL     1      25.406   2.860  53.633  1.00  0.00    -0.287 OA
HETATM   21  H9  UNL     1      19.586   1.980  52.360  1.00  0.00     0.164 HD
ENDROOT
BRANCH  15  22
HETATM   22  C13 UNL     1      18.730   2.847  50.019  1.00  0.00     0.734 A 
HETATM   23  N3  UNL     1      18.399   3.911  49.270  1.00  0.00    -0.074 NA
HETATM   24  C14 UNL     1      17.154   4.420  49.306  1.00  0.00     0.139 A 
HETATM   25  C15 UNL     1      16.232   3.786  50.164  1.00  0.00     0.053 A 
HETATM   26  C16 UNL     1      16.533   2.706  50.936  1.00  0.00     0.089 A 
HETATM   27  N5  UNL     1      17.800   2.280  50.823  1.00  0.00    -0.061 NA
BRANCH  26  28
HETATM   28  C17 UNL     1      15.587   1.980  51.811  1.00  0.00     0.011 A 
HETATM   29  C18 UNL     1      14.455   2.639  52.169  1.00  0.00     0.017 A 
HETATM   30  C19 UNL     1      13.568   1.990  53.050  1.00  0.00     0.020 A 
HETATM   31  C20 UNL     1      14.011   0.742  53.421  1.00  0.00     0.116 A 
HETATM   32  N4  UNL     1      15.139   0.104  53.054  1.00  0.00    -0.272 NA
HETATM   33  C21 UNL     1      16.011   0.728  52.195  1.00  0.00     0.130 A 
ENDBRANCH  26  28
ENDBRANCH  15  22
TORSDOF 2
ENDMDL
