MODEL 1
REMARK VINA RESULT:      -6.6      0.000      0.000
REMARK  7 active torsions:
REMARK  status: ('A' for Active; 'I' for Inactive)
REMARK    1  A    between atoms: N1_2  and  C2_3 
REMARK    2  A    between atoms: C2_3  and  C3_4 
REMARK    3  A    between atoms: C3_4  and  N2_5 
REMARK    4  A    between atoms: N2_5  and  C5_7 
REMARK    5  A    between atoms: C8_10  and  C9_11 
REMARK    6  A    between atoms: C10_13  and  N3_14 
REMARK    7  A    between atoms: N3_14  and  C11_15 
ROOT
HETATM    1  C5  UNL     1      22.490   1.311  52.419  1.00  0.00     0.032 A 
HETATM    2  C6  UNL     1      22.343   2.546  51.838  1.00  0.00     0.030 A 
HETATM    3  C7  UNL     1      23.440   3.172  51.292  1.00  0.00     0.019 A 
HETATM    4  C8  UNL     1      24.639   2.518  51.360  1.00  0.00     0.028 A 
HETATM    5  C10 UNL     1      24.866   1.284  51.924  1.00  0.00     0.043 A 
HETATM    6  C16 UNL     1      23.705   0.714  52.455  1.00  0.00     0.059 A 
ENDROOT
BRANCH   5   7
HETATM    7  N3  UNL     1      26.113   0.618  51.974  1.00  0.00    -0.384 N 
HETATM    8  H13 UNL     1      26.483   0.390  51.023  1.00  0.00     0.160 HD
BRANCH   7   9
HETATM    9  C11 UNL     1      26.877   0.243  53.118  1.00  0.00     0.085 C 
HETATM   10  C12 UNL     1      27.434  -1.176  52.879  1.00  0.00     0.051 C 
HETATM   11  C13 UNL     1      28.832  -1.313  53.382  1.00  0.00     0.169 C 
HETATM   12  O2  UNL     1      29.080  -0.682  54.595  1.00  0.00    -0.391 OA
HETATM   13  C14 UNL     1      28.769   0.674  54.558  1.00  0.00     0.169 C 
HETATM   14  C15 UNL     1      28.137   1.091  53.270  1.00  0.00     0.051 C 
ENDBRANCH   7   9
ENDBRANCH   5   7
BRANCH   4  15
HETATM   15  C9  UNL     1      25.766   3.215  50.778  1.00  0.00     0.272 C 
HETATM   16  O1  UNL     1      26.980   3.239  50.527  1.00  0.00    -0.301 OA
ENDBRANCH   4  15
BRANCH   1  17
HETATM   17  N2  UNL     1      21.339   0.666  52.986  1.00  0.00    -0.384 N 
HETATM   18  C4  UNL     1      20.106   0.445  52.260  1.00  0.00     0.149 C 
BRANCH  17  19
HETATM   19  C3  UNL     1      21.241   0.162  54.338  1.00  0.00     0.141 C 
BRANCH  19  20
HETATM   20  C2  UNL     1      21.194  -1.349  54.412  1.00  0.00     0.126 C 
BRANCH  20  21
HETATM   21  N1  UNL     1      22.165  -1.925  55.261  1.00  0.00    -0.428 NA
HETATM   22  C1  UNL     1      23.294  -1.379  55.521  1.00  0.00     0.304 C 
ENDBRANCH  20  21
ENDBRANCH  19  20
ENDBRANCH  17  19
ENDBRANCH   1  17
TORSDOF 7
ENDMDL
MODEL 2
REMARK VINA RESULT:      -6.5      2.944      5.849
REMARK  7 active torsions:
REMARK  status: ('A' for Active; 'I' for Inactive)
REMARK    1  A    between atoms: N1_2  and  C2_3 
REMARK    2  A    between atoms: C2_3  and  C3_4 
REMARK    3  A    between atoms: C3_4  and  N2_5 
REMARK    4  A    between atoms: N2_5  and  C5_7 
REMARK    5  A    between atoms: C8_10  and  C9_11 
REMARK    6  A    between atoms: C10_13  and  N3_14 
REMARK    7  A    between atoms: N3_14  and  C11_15 
ROOT
HETATM    1  C5  UNL     1      26.055  -0.241  52.794  1.00  0.00     0.032 A 
HETATM    2  C6  UNL     1      25.006  -0.550  53.623  1.00  0.00     0.030 A 
HETATM    3  C7  UNL     1      23.825   0.148  53.511  1.00  0.00     0.019 A 
HETATM    4  C8  UNL     1      23.761   1.129  52.561  1.00  0.00     0.028 A 
HETATM    5  C10 UNL     1      24.765   1.497  51.696  1.00  0.00     0.043 A 
HETATM    6  C16 UNL     1      25.930   0.743  51.873  1.00  0.00     0.059 A 
ENDROOT
BRANCH   5   7
HETATM    7  N3  UNL     1      24.675   2.508  50.711  1.00  0.00    -0.384 N 
HETATM    8  H13 UNL     1      24.019   2.255  49.937  1.00  0.00     0.160 HD
BRANCH   7   9
HETATM    9  C11 UNL     1      25.346   3.765  50.661  1.00  0.00     0.085 C 
HETATM   10  C12 UNL     1      26.596   3.607  49.769  1.00  0.00     0.051 C 
HETATM   11  C13 UNL     1      26.814   4.805  48.907  1.00  0.00     0.169 C 
HETATM   12  O2  UNL     1      26.574   6.024  49.529  1.00  0.00    -0.391 OA
HETATM   13  C14 UNL     1      25.289   6.103  50.055  1.00  0.00     0.169 C 
HETATM   14  C15 UNL     1      24.527   4.824  49.928  1.00  0.00     0.051 C 
ENDBRANCH   7   9
ENDBRANCH   5   7
BRANCH   4  15
HETATM   15  C9  UNL     1      22.502   1.840  52.480  1.00  0.00     0.272 C 
HETATM   16  O1  UNL     1      21.846   2.779  52.004  1.00  0.00    -0.301 OA
ENDBRANCH   4  15
BRANCH   1  17
HETATM   17  N2  UNL     1      27.283  -0.974  52.921  1.00  0.00    -0.384 N 
HETATM   18  C4  UNL     1      27.405  -2.388  52.632  1.00  0.00     0.149 C 
BRANCH  17  19
HETATM   19  C3  UNL     1      28.548  -0.424  53.354  1.00  0.00     0.141 C 
BRANCH  19  20
HETATM   20  C2  UNL     1      28.474   0.267  54.698  1.00  0.00     0.126 C 
BRANCH  20  21
HETATM   21  N1  UNL     1      28.926   1.605  54.696  1.00  0.00    -0.428 NA
HETATM   22  C1  UNL     1      28.739   2.416  53.723  1.00  0.00     0.304 C 
ENDBRANCH  20  21
ENDBRANCH  19  20
ENDBRANCH  17  19
ENDBRANCH   1  17
TORSDOF 7
ENDMDL
MODEL 3
REMARK VINA RESULT:      -6.4      3.028      6.501
REMARK  7 active torsions:
REMARK  status: ('A' for Active; 'I' for Inactive)
REMARK    1  A    between atoms: N1_2  and  C2_3 
REMARK    2  A    between atoms: C2_3  and  C3_4 
REMARK    3  A    between atoms: C3_4  and  N2_5 
REMARK    4  A    between atoms: N2_5  and  C5_7 
REMARK    5  A    between atoms: C8_10  and  C9_11 
REMARK    6  A    between atoms: C10_13  and  N3_14 
REMARK    7  A    between atoms: N3_14  and  C11_15 
ROOT
HETATM    1  C5  UNL     1      24.558  -0.403  53.908  1.00  0.00     0.032 A 
HETATM    2  C6  UNL     1      23.854  -1.090  54.865  1.00  0.00     0.030 A 
HETATM    3  C7  UNL     1      22.479  -1.114  54.807  1.00  0.00     0.019 A 
HETATM    4  C8  UNL     1      21.880  -0.440  53.780  1.00  0.00     0.028 A 
HETATM    5  C10 UNL     1      22.514   0.270  52.787  1.00  0.00     0.043 A 
HETATM    6  C16 UNL     1      23.907   0.246  52.916  1.00  0.00     0.059 A 
ENDROOT
BRANCH   5   7
HETATM    7  N3  UNL     1      21.876   0.952  51.725  1.00  0.00    -0.384 N 
HETATM    8  H13 UNL     1      20.907   1.260  51.972  1.00  0.00     0.160 HD
BRANCH   7   9
HETATM    9  C11 UNL     1      22.382   1.249  50.426  1.00  0.00     0.085 C 
HETATM   10  C12 UNL     1      21.318   0.831  49.389  1.00  0.00     0.051 C 
HETATM   11  C13 UNL     1      21.220   1.813  48.271  1.00  0.00     0.169 C 
HETATM   12  O2  UNL     1      22.437   2.318  47.828  1.00  0.00    -0.391 OA
HETATM   13  C14 UNL     1      23.167   2.909  48.855  1.00  0.00     0.169 C 
HETATM   14  C15 UNL     1      22.523   2.751  50.194  1.00  0.00     0.051 C 
ENDBRANCH   7   9
ENDBRANCH   5   7
BRANCH   4  15
HETATM   15  C9  UNL     1      20.433  -0.488  53.760  1.00  0.00     0.272 C 
HETATM   16  O1  UNL     1      19.375  -0.262  53.153  1.00  0.00    -0.301 OA
ENDBRANCH   4  15
BRANCH   1  17
HETATM   17  N2  UNL     1      25.993  -0.383  53.979  1.00  0.00    -0.384 N 
HETATM   18  C4  UNL     1      26.852  -0.959  52.965  1.00  0.00     0.149 C 
BRANCH  17  19
HETATM   19  C3  UNL     1      26.772   0.194  55.052  1.00  0.00     0.141 C 
BRANCH  19  20
HETATM   20  C2  UNL     1      28.247   0.303  54.731  1.00  0.00     0.126 C 
BRANCH  20  21
HETATM   21  N1  UNL     1      28.749   1.623  54.719  1.00  0.00    -0.428 NA
HETATM   22  C1  UNL     1      28.658   2.407  53.710  1.00  0.00     0.304 C 
ENDBRANCH  20  21
ENDBRANCH  19  20
ENDBRANCH  17  19
ENDBRANCH   1  17
TORSDOF 7
ENDMDL
MODEL 4
REMARK VINA RESULT:      -6.3      2.906      6.019
REMARK  7 active torsions:
REMARK  status: ('A' for Active; 'I' for Inactive)
REMARK    1  A    between atoms: N1_2  and  C2_3 
REMARK    2  A    between atoms: C2_3  and  C3_4 
REMARK    3  A    between atoms: C3_4  and  N2_5 
REMARK    4  A    between atoms: N2_5  and  C5_7 
REMARK    5  A    between atoms: C8_10  and  C9_11 
REMARK    6  A    between atoms: C10_13  and  N3_14 
REMARK    7  A    between atoms: N3_14  and  C11_15 
ROOT
HETATM    1  C5  UNL     1      24.748   0.378  53.445  1.00  0.00     0.032 A 
HETATM    2  C6  UNL     1      23.643  -0.412  53.643  1.00  0.00     0.030 A 
HETATM    3  C7  UNL     1      22.392   0.097  53.379  1.00  0.00     0.019 A 
HETATM    4  C8  UNL     1      22.318   1.385  52.925  1.00  0.00     0.028 A 
HETATM    5  C10 UNL     1      23.375   2.236  52.703  1.00  0.00     0.043 A 
HETATM    6  C16 UNL     1      24.609   1.646  52.994  1.00  0.00     0.059 A 
ENDROOT
BRANCH   5   7
HETATM    7  N3  UNL     1      23.279   3.562  52.222  1.00  0.00    -0.384 N 
HETATM    8  H13 UNL     1      22.454   4.072  52.616  1.00  0.00     0.160 HD
BRANCH   7   9
HETATM    9  C11 UNL     1      24.136   4.243  51.309  1.00  0.00     0.085 C 
HETATM   10  C12 UNL     1      23.831   3.725  49.887  1.00  0.00     0.051 C 
HETATM   11  C13 UNL     1      23.862   4.825  48.880  1.00  0.00     0.169 C 
HETATM   12  O2  UNL     1      24.880   5.753  49.060  1.00  0.00    -0.391 OA
HETATM   13  C14 UNL     1      24.849   6.331  50.325  1.00  0.00     0.169 C 
HETATM   14  C15 UNL     1      23.810   5.731  51.214  1.00  0.00     0.051 C 
ENDBRANCH   7   9
ENDBRANCH   5   7
BRANCH   4  15
HETATM   15  C9  UNL     1      20.983   1.880  52.664  1.00  0.00     0.272 C 
HETATM   16  O1  UNL     1      20.170   2.814  52.727  1.00  0.00    -0.301 OA
ENDBRANCH   4  15
BRANCH   1  17
HETATM   17  N2  UNL     1      26.049  -0.162  53.726  1.00  0.00    -0.384 N 
HETATM   18  C4  UNL     1      26.720  -1.119  52.870  1.00  0.00     0.149 C 
BRANCH  17  19
HETATM   19  C3  UNL     1      26.859   0.156  54.881  1.00  0.00     0.141 C 
BRANCH  19  20
HETATM   20  C2  UNL     1      28.339   0.221  54.576  1.00  0.00     0.126 C 
BRANCH  20  21
HETATM   21  N1  UNL     1      28.881   1.526  54.572  1.00  0.00    -0.428 NA
HETATM   22  C1  UNL     1      28.641   2.391  53.658  1.00  0.00     0.304 C 
ENDBRANCH  20  21
ENDBRANCH  19  20
ENDBRANCH  17  19
ENDBRANCH   1  17
TORSDOF 7
ENDMDL
MODEL 5
REMARK VINA RESULT:      -6.3      2.403      4.462
REMARK  7 active torsions:
REMARK  status: ('A' for Active; 'I' for Inactive)
REMARK    1  A    between atoms: N1_2  and  C2_3 
REMARK    2  A    between atoms: C2_3  and  C3_4 
REMARK    3  A    between atoms: C3_4  and  N2_5 
REMARK    4  A    between atoms: N2_5  and  C5_7 
REMARK    5  A    between atoms: C8_10  and  C9_11 
REMARK    6  A    between atoms: C10_13  and  N3_14 
REMARK    7  A    between atoms: N3_14  and  C11_15 
ROOT
HETATM    1  C5  UNL     1      22.250   1.768  51.776  1.00  0.00     0.032 A 
HETATM    2  C6  UNL     1      21.129   1.206  52.334  1.00  0.00     0.030 A 
HETATM    3  C7  UNL     1      21.267   0.242  53.306  1.00  0.00     0.019 A 
HETATM    4  C8  UNL     1      22.538  -0.108  53.671  1.00  0.00     0.028 A 
HETATM    5  C10 UNL     1      23.706   0.407  53.161  1.00  0.00     0.043 A 
HETATM    6  C16 UNL     1      23.482   1.379  52.180  1.00  0.00     0.059 A 
ENDROOT
BRANCH   5   7
HETATM    7  N3  UNL     1      25.013   0.040  53.559  1.00  0.00    -0.384 N 
HETATM    8  H13 UNL     1      25.164  -0.995  53.527  1.00  0.00     0.160 HD
BRANCH   7   9
HETATM    9  C11 UNL     1      26.085   0.880  53.977  1.00  0.00     0.085 C 
HETATM   10  C12 UNL     1      26.921   0.110  55.021  1.00  0.00     0.051 C 
HETATM   11  C13 UNL     1      28.383   0.348  54.844  1.00  0.00     0.169 C 
HETATM   12  O2  UNL     1      28.728   1.657  54.532  1.00  0.00    -0.391 OA
HETATM   13  C14 UNL     1      28.077   2.116  53.390  1.00  0.00     0.169 C 
HETATM   14  C15 UNL     1      27.085   1.137  52.852  1.00  0.00     0.051 C 
ENDBRANCH   7   9
ENDBRANCH   5   7
BRANCH   4  15
HETATM   15  C9  UNL     1      22.636  -1.128  54.694  1.00  0.00     0.272 C 
HETATM   16  O1  UNL     1      23.115  -1.497  55.777  1.00  0.00    -0.301 OA
ENDBRANCH   4  15
BRANCH   1  17
HETATM   17  N2  UNL     1      22.094   2.772  50.761  1.00  0.00    -0.384 N 
HETATM   18  C4  UNL     1      22.586   2.624  49.407  1.00  0.00     0.149 C 
BRANCH  17  19
HETATM   19  C3  UNL     1      21.446   4.052  50.939  1.00  0.00     0.141 C 
BRANCH  19  20
HETATM   20  C2  UNL     1      22.053   4.882  52.050  1.00  0.00     0.126 C 
BRANCH  20  21
HETATM   21  N1  UNL     1      23.436   5.132  51.907  1.00  0.00    -0.428 NA
HETATM   22  C1  UNL     1      23.914   6.140  51.277  1.00  0.00     0.304 C 
ENDBRANCH  20  21
ENDBRANCH  19  20
ENDBRANCH  17  19
ENDBRANCH   1  17
TORSDOF 7
ENDMDL
MODEL 6
REMARK VINA RESULT:      -6.1      2.677      5.779
REMARK  7 active torsions:
REMARK  status: ('A' for Active; 'I' for Inactive)
REMARK    1  A    between atoms: N1_2  and  C2_3 
REMARK    2  A    between atoms: C2_3  and  C3_4 
REMARK    3  A    between atoms: C3_4  and  N2_5 
REMARK    4  A    between atoms: N2_5  and  C5_7 
REMARK    5  A    between atoms: C8_10  and  C9_11 
REMARK    6  A    between atoms: C10_13  and  N3_14 
REMARK    7  A    between atoms: N3_14  and  C11_15 
ROOT
HETATM    1  C5  UNL     1      26.346   1.987  52.598  1.00  0.00     0.032 A 
HETATM    2  C6  UNL     1      26.571   2.519  51.353  1.00  0.00     0.030 A 
HETATM    3  C7  UNL     1      25.500   2.841  50.552  1.00  0.00     0.019 A 
HETATM    4  C8  UNL     1      24.247   2.608  51.049  1.00  0.00     0.028 A 
HETATM    5  C10 UNL     1      23.942   2.079  52.281  1.00  0.00     0.043 A 
HETATM    6  C16 UNL     1      25.082   1.779  53.034  1.00  0.00     0.059 A 
ENDROOT
BRANCH   5   7
HETATM    7  N3  UNL     1      22.639   1.856  52.783  1.00  0.00    -0.384 N 
HETATM    8  H13 UNL     1      22.188   2.734  53.129  1.00  0.00     0.160 HD
BRANCH   7   9
HETATM    9  C11 UNL     1      21.913   0.632  52.864  1.00  0.00     0.085 C 
HETATM   10  C12 UNL     1      22.683  -0.321  53.802  1.00  0.00     0.051 C 
HETATM   11  C13 UNL     1      21.760  -1.100  54.678  1.00  0.00     0.169 C 
HETATM   12  O2  UNL     1      20.604  -1.551  54.054  1.00  0.00    -0.391 OA
HETATM   13  C14 UNL     1      19.876  -0.514  53.479  1.00  0.00     0.169 C 
HETATM   14  C15 UNL     1      20.571   0.805  53.571  1.00  0.00     0.051 C 
ENDBRANCH   7   9
ENDBRANCH   5   7
BRANCH   4  15
HETATM   15  C9  UNL     1      23.151   2.958  50.171  1.00  0.00     0.272 C 
HETATM   16  O1  UNL     1      21.960   2.814  49.857  1.00  0.00    -0.301 OA
ENDBRANCH   4  15
BRANCH   1  17
HETATM   17  N2  UNL     1      27.472   1.653  53.427  1.00  0.00    -0.384 N 
HETATM   18  C4  UNL     1      28.641   2.496  53.565  1.00  0.00     0.149 C 
BRANCH  17  19
HETATM   19  C3  UNL     1      27.603   0.451  54.219  1.00  0.00     0.141 C 
BRANCH  19  20
HETATM   20  C2  UNL     1      27.669  -0.812  53.387  1.00  0.00     0.126 C 
BRANCH  20  21
HETATM   21  N1  UNL     1      28.844  -1.575  53.571  1.00  0.00    -0.428 NA
HETATM   22  C1  UNL     1      30.016  -1.065  53.646  1.00  0.00     0.304 C 
ENDBRANCH  20  21
ENDBRANCH  19  20
ENDBRANCH  17  19
ENDBRANCH   1  17
TORSDOF 7
ENDMDL
MODEL 7
REMARK VINA RESULT:      -6.1      2.913      5.030
REMARK  7 active torsions:
REMARK  status: ('A' for Active; 'I' for Inactive)
REMARK    1  A    between atoms: N1_2  and  C2_3 
REMARK    2  A    between atoms: C2_3  and  C3_4 
REMARK    3  A    between atoms: C3_4  and  N2_5 
REMARK    4  A    between atoms: N2_5  and  C5_7 
REMARK    5  A    between atoms: C8_10  and  C9_11 
REMARK    6  A    between atoms: C10_13  and  N3_14 
REMARK    7  A    between atoms: N3_14  and  C11_15 
ROOT
HETATM    1  C5  UNL     1      22.506   1.316  51.365  1.00  0.00     0.032 A 
HETATM    2  C6  UNL     1      21.320   0.808  51.833  1.00  0.00     0.030 A 
HETATM    3  C7  UNL     1      21.325  -0.018  52.934  1.00  0.00     0.019 A 
HETATM    4  C8  UNL     1      22.534  -0.291  53.512  1.00  0.00     0.028 A 
HETATM    5  C10 UNL     1      23.760   0.178  53.104  1.00  0.00     0.043 A 
HETATM    6  C16 UNL     1      23.671   1.009  51.981  1.00  0.00     0.059 A 
ENDROOT
BRANCH   5   7
HETATM    7  N3  UNL     1      25.000  -0.106  53.722  1.00  0.00    -0.384 N 
HETATM    8  H13 UNL     1      25.100  -1.118  53.970  1.00  0.00     0.160 HD
BRANCH   7   9
HETATM    9  C11 UNL     1      26.068   0.786  54.028  1.00  0.00     0.085 C 
HETATM   10  C12 UNL     1      26.956   0.123  55.101  1.00  0.00     0.051 C 
HETATM   11  C13 UNL     1      28.406   0.372  54.851  1.00  0.00     0.169 C 
HETATM   12  O2  UNL     1      28.711   1.657  54.418  1.00  0.00    -0.391 OA
HETATM   13  C14 UNL     1      28.011   2.005  53.267  1.00  0.00     0.169 C 
HETATM   14  C15 UNL     1      27.022   0.967  52.850  1.00  0.00     0.051 C 
ENDBRANCH   7   9
ENDBRANCH   5   7
BRANCH   4  15
HETATM   15  C9  UNL     1      22.493  -1.166  54.664  1.00  0.00     0.272 C 
HETATM   16  O1  UNL     1      23.043  -1.588  55.693  1.00  0.00    -0.301 OA
ENDBRANCH   4  15
BRANCH   1  17
HETATM   17  N2  UNL     1      22.490   2.176  50.215  1.00  0.00    -0.384 N 
HETATM   18  C4  UNL     1      23.058   3.508  50.203  1.00  0.00     0.149 C 
BRANCH  17  19
HETATM   19  C3  UNL     1      21.910   1.849  48.931  1.00  0.00     0.141 C 
BRANCH  19  20
HETATM   20  C2  UNL     1      22.472   2.671  47.792  1.00  0.00     0.126 C 
BRANCH  20  21
HETATM   21  N1  UNL     1      21.505   3.149  46.880  1.00  0.00    -0.428 NA
HETATM   22  C1  UNL     1      21.795   3.781  45.805  1.00  0.00     0.304 C 
ENDBRANCH  20  21
ENDBRANCH  19  20
ENDBRANCH  17  19
ENDBRANCH   1  17
TORSDOF 7
ENDMDL
MODEL 8
REMARK VINA RESULT:      -5.9      2.549      4.929
REMARK  7 active torsions:
REMARK  status: ('A' for Active; 'I' for Inactive)
REMARK    1  A    between atoms: N1_2  and  C2_3 
REMARK    2  A    between atoms: C2_3  and  C3_4 
REMARK    3  A    between atoms: C3_4  and  N2_5 
REMARK    4  A    between atoms: N2_5  and  C5_7 
REMARK    5  A    between atoms: C8_10  and  C9_11 
REMARK    6  A    between atoms: C10_13  and  N3_14 
REMARK    7  A    between atoms: N3_14  and  C11_15 
ROOT
HETATM    1  C5  UNL     1      23.327   3.317  51.627  1.00  0.00     0.032 A 
HETATM    2  C6  UNL     1      22.112   2.698  51.465  1.00  0.00     0.030 A 
HETATM    3  C7  UNL     1      21.933   1.422  51.949  1.00  0.00     0.019 A 
HETATM    4  C8  UNL     1      22.995   0.830  52.576  1.00  0.00     0.028 A 
HETATM    5  C10 UNL     1      24.238   1.383  52.776  1.00  0.00     0.043 A 
HETATM    6  C16 UNL     1      24.340   2.678  52.257  1.00  0.00     0.059 A 
ENDROOT
BRANCH   5   7
HETATM    7  N3  UNL     1      25.321   0.759  53.438  1.00  0.00    -0.384 N 
HETATM    8  H13 UNL     1      25.211  -0.280  53.493  1.00  0.00     0.160 HD
BRANCH   7   9
HETATM    9  C11 UNL     1      26.482   1.359  54.006  1.00  0.00     0.085 C 
HETATM   10  C12 UNL     1      27.195   0.300  54.872  1.00  0.00     0.051 C 
HETATM   11  C13 UNL     1      28.679   0.382  54.736  1.00  0.00     0.169 C 
HETATM   12  O2  UNL     1      29.190   1.673  54.687  1.00  0.00    -0.391 OA
HETATM   13  C14 UNL     1      28.623   2.426  53.663  1.00  0.00     0.169 C 
HETATM   14  C15 UNL     1      27.527   1.705  52.949  1.00  0.00     0.051 C 
ENDBRANCH   7   9
ENDBRANCH   5   7
BRANCH   4  15
HETATM   15  C9  UNL     1      22.763  -0.512  53.065  1.00  0.00     0.272 C 
HETATM   16  O1  UNL     1      22.443  -1.255  54.005  1.00  0.00    -0.301 OA
ENDBRANCH   4  15
BRANCH   1  17
HETATM   17  N2  UNL     1      23.504   4.648  51.117  1.00  0.00    -0.384 N 
HETATM   18  C4  UNL     1      22.455   5.647  51.106  1.00  0.00     0.149 C 
BRANCH  17  19
HETATM   19  C3  UNL     1      24.724   5.172  50.545  1.00  0.00     0.141 C 
BRANCH  19  20
HETATM   20  C2  UNL     1      25.187   4.414  49.321  1.00  0.00     0.126 C 
BRANCH  20  21
HETATM   21  N1  UNL     1      26.571   4.137  49.291  1.00  0.00    -0.428 NA
HETATM   22  C1  UNL     1      27.433   4.888  48.713  1.00  0.00     0.304 C 
ENDBRANCH  20  21
ENDBRANCH  19  20
ENDBRANCH  17  19
ENDBRANCH   1  17
TORSDOF 7
ENDMDL
MODEL 9
REMARK VINA RESULT:      -5.9      2.943      6.475
REMARK  7 active torsions:
REMARK  status: ('A' for Active; 'I' for Inactive)
REMARK    1  A    between atoms: N1_2  and  C2_3 
REMARK    2  A    between atoms: C2_3  and  C3_4 
REMARK    3  A    between atoms: C3_4  and  N2_5 
REMARK    4  A    between atoms: N2_5  and  C5_7 
REMARK    5  A    between atoms: C8_10  and  C9_11 
REMARK    6  A    between atoms: C10_13  and  N3_14 
REMARK    7  A    between atoms: N3_14  and  C11_15 
ROOT
HETATM    1  C5  UNL     1      25.191   2.602  51.106  1.00  0.00     0.032 A 
HETATM    2  C6  UNL     1      26.547   2.417  51.211  1.00  0.00     0.030 A 
HETATM    3  C7  UNL     1      27.034   1.441  52.050  1.00  0.00     0.019 A 
HETATM    4  C8  UNL     1      26.123   0.695  52.746  1.00  0.00     0.028 A 
HETATM    5  C10 UNL     1      24.754   0.821  52.696  1.00  0.00     0.043 A 
HETATM    6  C16 UNL     1      24.339   1.832  51.822  1.00  0.00     0.059 A 
ENDROOT
BRANCH   5   7
HETATM    7  N3  UNL     1      23.827   0.032  53.415  1.00  0.00    -0.384 N 
HETATM    8  H13 UNL     1      24.228  -0.347  54.304  1.00  0.00     0.160 HD
BRANCH   7   9
HETATM    9  C11 UNL     1      22.479  -0.287  53.079  1.00  0.00     0.085 C 
HETATM   10  C12 UNL     1      22.099  -1.595  53.803  1.00  0.00     0.051 C 
HETATM   11  C13 UNL     1      20.702  -1.553  54.325  1.00  0.00     0.169 C 
HETATM   12  O2  UNL     1      19.779  -0.956  53.475  1.00  0.00    -0.391 OA
HETATM   13  C14 UNL     1      20.145   0.340  53.125  1.00  0.00     0.169 C 
HETATM   14  C15 UNL     1      21.490   0.727  53.650  1.00  0.00     0.051 C 
ENDBRANCH   7   9
ENDBRANCH   5   7
BRANCH   4  15
HETATM   15  C9  UNL     1      26.679  -0.316  53.620  1.00  0.00     0.272 C 
HETATM   16  O1  UNL     1      27.458  -0.608  54.539  1.00  0.00    -0.301 OA
ENDBRANCH   4  15
BRANCH   1  17
HETATM   17  N2  UNL     1      24.693   3.624  50.229  1.00  0.00    -0.384 N 
HETATM   18  C4  UNL     1      23.758   3.370  49.153  1.00  0.00     0.149 C 
BRANCH  17  19
HETATM   19  C3  UNL     1      25.050   5.024  50.284  1.00  0.00     0.141 C 
BRANCH  19  20
HETATM   20  C2  UNL     1      25.433   5.599  48.938  1.00  0.00     0.126 C 
BRANCH  20  21
HETATM   21  N1  UNL     1      26.818   5.820  48.766  1.00  0.00    -0.428 NA
HETATM   22  C1  UNL     1      27.675   4.877  48.629  1.00  0.00     0.304 C 
ENDBRANCH  20  21
ENDBRANCH  19  20
ENDBRANCH  17  19
ENDBRANCH   1  17
TORSDOF 7
ENDMDL
