MODEL 1
REMARK VINA RESULT:      -7.3      0.000      0.000
REMARK  4 active torsions:
REMARK  status: ('A' for Active; 'I' for Inactive)
REMARK    1  A    between atoms: C7_8  and  C8_9 
REMARK    2  A    between atoms: C8_9  and  C9_10 
REMARK    3  A    between atoms: C9_10  and  C10_11 
REMARK    4  A    between atoms: C10_11  and  C11_12 
ROOT
HETATM    1  C1  UNL     1      32.255  11.398  47.204  1.00  0.00     0.017 A 
HETATM    2  C2  UNL     1      33.180  10.580  46.676  1.00  0.00     0.001 A 
HETATM    3  C3  UNL     1      32.289   9.747  47.479  1.00  0.00    -0.020 A 
HETATM    4  O1  UNL     1      31.489   9.103  48.182  1.00  0.00     0.000 OA
HETATM    5  C4  UNL     1      32.685   8.285  47.429  1.00  0.00     0.043 A 
HETATM    6  C5  UNL     1      31.519   7.522  48.016  1.00  0.00     0.033 A 
HETATM    7  C6  UNL     1      30.545   7.655  47.067  1.00  0.00     0.057 C 
HETATM    8  C7  UNL     1      29.228   7.218  47.364  1.00  0.00     0.033 C 
HETATM    9  O2  UNL     1      31.098   8.242  45.903  1.00  0.00    -0.347 OA
HETATM   10  C12 UNL     1      32.508   7.864  45.977  1.00  0.00     0.162 C 
HETATM   11  C13 UNL     1      32.510   6.409  45.735  1.00  0.00     0.302 C 
HETATM   12  N1  UNL     1      33.749   5.689  45.948  1.00  0.00     0.086 N 
HETATM   13  C14 UNL     1      33.372   4.279  45.731  1.00  0.00     0.272 C 
HETATM   14  C15 UNL     1      34.388   3.293  46.213  1.00  0.00     0.056 C 
HETATM   15  C16 UNL     1      34.585   3.416  47.724  1.00  0.00     0.176 C 
HETATM   16  O3  UNL     1      35.156   4.604  48.152  1.00  0.00    -0.363 OA
HETATM   17  C17 UNL     1      34.416   5.615  48.806  1.00  0.00     0.130 C 
HETATM   18  C18 UNL     1      33.284   6.199  49.016  1.00  0.00    -0.002 C 
HETATM   19  C19 UNL     1      31.981   6.953  49.326  1.00  0.00     0.047 C 
HETATM   20  H14 UNL     1      34.435   5.867  45.172  1.00  0.00     0.315 HD
ENDROOT
BRANCH   8  21
HETATM   21  C8  UNL     1      28.379   6.695  48.152  1.00  0.00     0.002 C 
BRANCH  21  22
HETATM   22  C9  UNL     1      28.286   5.222  48.359  1.00  0.00    -0.002 C 
BRANCH  22  23
HETATM   23  C10 UNL     1      27.281   4.605  48.897  1.00  0.00     0.004 C 
BRANCH  23  24
HETATM   24  C11 UNL     1      26.035   5.120  49.473  1.00  0.00     0.249 C 
HETATM   25  F1  UNL     1      25.247   5.635  48.424  1.00  0.00    -0.251 F 
ENDBRANCH  23  24
ENDBRANCH  22  23
ENDBRANCH  21  22
ENDBRANCH   8  21
TORSDOF 4
ENDMDL
MODEL 2
REMARK VINA RESULT:      -7.3      7.292     10.203
REMARK  4 active torsions:
REMARK  status: ('A' for Active; 'I' for Inactive)
REMARK    1  A    between atoms: C7_8  and  C8_9 
REMARK    2  A    between atoms: C8_9  and  C9_10 
REMARK    3  A    between atoms: C9_10  and  C10_11 
REMARK    4  A    between atoms: C10_11  and  C11_12 
ROOT
HETATM    1  C1  UNL     1      25.955   0.535  53.718  1.00  0.00     0.017 A 
HETATM    2  C2  UNL     1      25.978   1.862  53.922  1.00  0.00     0.001 A 
HETATM    3  C3  UNL     1      25.423   1.649  52.588  1.00  0.00    -0.020 A 
HETATM    4  O1  UNL     1      24.959   1.390  51.462  1.00  0.00     0.000 OA
HETATM    5  C4  UNL     1      25.053   2.956  51.916  1.00  0.00     0.043 A 
HETATM    6  C5  UNL     1      24.212   2.579  50.717  1.00  0.00     0.033 A 
HETATM    7  C6  UNL     1      23.049   2.129  51.276  1.00  0.00     0.057 C 
HETATM    8  C7  UNL     1      22.080   1.507  50.447  1.00  0.00     0.033 C 
HETATM    9  O2  UNL     1      23.058   2.402  52.666  1.00  0.00    -0.347 OA
HETATM   10  C12 UNL     1      23.948   3.557  52.773  1.00  0.00     0.162 C 
HETATM   11  C13 UNL     1      23.193   4.660  52.150  1.00  0.00     0.302 C 
HETATM   12  N1  UNL     1      23.889   5.908  51.911  1.00  0.00     0.086 N 
HETATM   13  C14 UNL     1      22.895   6.727  51.193  1.00  0.00     0.272 C 
HETATM   14  C15 UNL     1      23.466   7.944  50.534  1.00  0.00     0.056 C 
HETATM   15  C16 UNL     1      24.490   7.550  49.470  1.00  0.00     0.176 C 
HETATM   16  O3  UNL     1      25.645   6.952  49.950  1.00  0.00    -0.363 OA
HETATM   17  C17 UNL     1      25.907   5.571  49.804  1.00  0.00     0.130 C 
HETATM   18  C18 UNL     1      25.460   4.367  49.664  1.00  0.00    -0.002 C 
HETATM   19  C19 UNL     1      25.019   2.905  49.494  1.00  0.00     0.047 C 
HETATM   20  H14 UNL     1      24.032   6.445  52.803  1.00  0.00     0.315 HD
ENDROOT
BRANCH   8  21
HETATM   21  C8  UNL     1      21.680   1.106  49.309  1.00  0.00     0.002 C 
BRANCH  21  22
HETATM   22  C9  UNL     1      21.210   2.047  48.253  1.00  0.00    -0.002 C 
BRANCH  22  23
HETATM   23  C10 UNL     1      21.981   2.756  47.487  1.00  0.00     0.004 C 
BRANCH  23  24
HETATM   24  C11 UNL     1      22.227   4.199  47.446  1.00  0.00     0.249 C 
HETATM   25  F1  UNL     1      22.250   4.679  48.773  1.00  0.00    -0.251 F 
ENDBRANCH  23  24
ENDBRANCH  22  23
ENDBRANCH  21  22
ENDBRANCH   8  21
TORSDOF 4
ENDMDL
MODEL 3
REMARK VINA RESULT:      -7.1      8.750     11.437
REMARK  4 active torsions:
REMARK  status: ('A' for Active; 'I' for Inactive)
REMARK    1  A    between atoms: C7_8  and  C8_9 
REMARK    2  A    between atoms: C8_9  and  C9_10 
REMARK    3  A    between atoms: C9_10  and  C10_11 
REMARK    4  A    between atoms: C10_11  and  C11_12 
ROOT
HETATM    1  C1  UNL     1      24.751   7.264  50.750  1.00  0.00     0.017 A 
HETATM    2  C2  UNL     1      23.423   7.118  50.618  1.00  0.00     0.001 A 
HETATM    3  C3  UNL     1      23.985   5.776  50.746  1.00  0.00    -0.020 A 
HETATM    4  O1  UNL     1      24.535   4.665  50.859  1.00  0.00     0.000 OA
HETATM    5  C4  UNL     1      22.910   4.709  50.707  1.00  0.00     0.043 A 
HETATM    6  C5  UNL     1      23.579   3.433  51.168  1.00  0.00     0.033 A 
HETATM    7  C6  UNL     1      23.805   3.657  52.497  1.00  0.00     0.057 C 
HETATM    8  C7  UNL     1      24.598   2.736  53.227  1.00  0.00     0.033 C 
HETATM    9  O2  UNL     1      23.149   4.849  52.892  1.00  0.00    -0.347 OA
HETATM   10  C12 UNL     1      22.047   4.955  51.938  1.00  0.00     0.162 C 
HETATM   11  C13 UNL     1      21.138   3.853  52.303  1.00  0.00     0.302 C 
HETATM   12  N1  UNL     1      20.038   3.556  51.408  1.00  0.00     0.086 N 
HETATM   13  C14 UNL     1      19.418   2.358  52.007  1.00  0.00     0.272 C 
HETATM   14  C15 UNL     1      18.463   1.647  51.101  1.00  0.00     0.056 C 
HETATM   15  C16 UNL     1      19.182   1.133  49.854  1.00  0.00     0.176 C 
HETATM   16  O3  UNL     1      19.665   2.113  49.001  1.00  0.00    -0.363 OA
HETATM   17  C17 UNL     1      21.039   2.422  48.891  1.00  0.00     0.130 C 
HETATM   18  C18 UNL     1      22.215   2.449  49.426  1.00  0.00    -0.002 C 
HETATM   19  C19 UNL     1      23.646   2.518  49.980  1.00  0.00     0.047 C 
HETATM   20  H14 UNL     1      19.275   4.274  51.485  1.00  0.00     0.315 HD
ENDROOT
BRANCH   8  21
HETATM   21  C8  UNL     1      25.291   1.672  53.296  1.00  0.00     0.002 C 
BRANCH  21  22
HETATM   22  C9  UNL     1      24.779   0.357  52.816  1.00  0.00    -0.002 C 
BRANCH  22  23
HETATM   23  C10 UNL     1      23.788  -0.295  53.340  1.00  0.00     0.004 C 
BRANCH  23  24
HETATM   24  C11 UNL     1      22.341  -0.101  53.218  1.00  0.00     0.249 C 
HETATM   25  F1  UNL     1      22.061   0.298  51.894  1.00  0.00    -0.251 F 
ENDBRANCH  23  24
ENDBRANCH  22  23
ENDBRANCH  21  22
ENDBRANCH   8  21
TORSDOF 4
ENDMDL
MODEL 4
REMARK VINA RESULT:      -6.8      9.262     11.673
REMARK  4 active torsions:
REMARK  status: ('A' for Active; 'I' for Inactive)
REMARK    1  A    between atoms: C7_8  and  C8_9 
REMARK    2  A    between atoms: C8_9  and  C9_10 
REMARK    3  A    between atoms: C9_10  and  C10_11 
REMARK    4  A    between atoms: C10_11  and  C11_12 
ROOT
HETATM    1  C1  UNL     1      21.495  -0.165  54.255  1.00  0.00     0.017 A 
HETATM    2  C2  UNL     1      20.799   0.440  53.279  1.00  0.00     0.001 A 
HETATM    3  C3  UNL     1      22.098   1.103  53.344  1.00  0.00    -0.020 A 
HETATM    4  O1  UNL     1      23.225   1.621  53.460  1.00  0.00     0.000 OA
HETATM    5  C4  UNL     1      22.223   2.201  52.308  1.00  0.00     0.043 A 
HETATM    6  C5  UNL     1      23.690   2.568  52.271  1.00  0.00     0.033 A 
HETATM    7  C6  UNL     1      24.275   1.473  51.697  1.00  0.00     0.057 C 
HETATM    8  C7  UNL     1      25.690   1.381  51.671  1.00  0.00     0.033 C 
HETATM    9  O2  UNL     1      23.269   0.602  51.213  1.00  0.00    -0.347 OA
HETATM   10  C12 UNL     1      22.144   1.499  50.959  1.00  0.00     0.162 C 
HETATM   11  C13 UNL     1      22.572   2.305  49.800  1.00  0.00     0.302 C 
HETATM   12  N1  UNL     1      21.754   3.440  49.424  1.00  0.00     0.086 N 
HETATM   13  C14 UNL     1      22.516   4.069  48.329  1.00  0.00     0.272 C 
HETATM   14  C15 UNL     1      22.061   5.451  47.981  1.00  0.00     0.056 C 
HETATM   15  C16 UNL     1      22.239   6.393  49.171  1.00  0.00     0.176 C 
HETATM   16  O3  UNL     1      21.433   6.124  50.267  1.00  0.00    -0.363 OA
HETATM   17  C17 UNL     1      21.930   5.551  51.459  1.00  0.00     0.130 C 
HETATM   18  C18 UNL     1      22.810   4.813  52.050  1.00  0.00    -0.002 C 
HETATM   19  C19 UNL     1      23.811   3.953  52.836  1.00  0.00     0.047 C 
HETATM   20  H14 UNL     1      20.870   3.135  48.946  1.00  0.00     0.315 HD
ENDROOT
BRANCH   8  21
HETATM   21  C8  UNL     1      26.842   1.851  51.934  1.00  0.00     0.002 C 
BRANCH  21  22
HETATM   22  C9  UNL     1      27.298   2.108  53.329  1.00  0.00    -0.002 C 
BRANCH  22  23
HETATM   23  C10 UNL     1      28.457   1.778  53.809  1.00  0.00     0.004 C 
BRANCH  23  24
HETATM   24  C11 UNL     1      29.004   0.472  54.183  1.00  0.00     0.249 C 
HETATM   25  F1  UNL     1      30.139   0.225  53.382  1.00  0.00    -0.251 F 
ENDBRANCH  23  24
ENDBRANCH  22  23
ENDBRANCH  21  22
ENDBRANCH   8  21
TORSDOF 4
ENDMDL
MODEL 5
REMARK VINA RESULT:      -6.8      9.034     11.452
REMARK  4 active torsions:
REMARK  status: ('A' for Active; 'I' for Inactive)
REMARK    1  A    between atoms: C7_8  and  C8_9 
REMARK    2  A    between atoms: C8_9  and  C9_10 
REMARK    3  A    between atoms: C9_10  and  C10_11 
REMARK    4  A    between atoms: C10_11  and  C11_12 
ROOT
HETATM    1  C1  UNL     1      26.784   0.780  52.302  1.00  0.00     0.017 A 
HETATM    2  C2  UNL     1      26.764   2.082  51.976  1.00  0.00     0.001 A 
HETATM    3  C3  UNL     1      25.428   1.558  51.705  1.00  0.00    -0.020 A 
HETATM    4  O1  UNL     1      24.315   1.040  51.498  1.00  0.00     0.000 OA
HETATM    5  C4  UNL     1      24.495   2.632  51.184  1.00  0.00     0.043 A 
HETATM    6  C5  UNL     1      23.105   2.043  51.259  1.00  0.00     0.033 A 
HETATM    7  C6  UNL     1      22.859   1.984  52.603  1.00  0.00     0.057 C 
HETATM    8  C7  UNL     1      21.704   1.301  53.063  1.00  0.00     0.033 C 
HETATM    9  O2  UNL     1      23.883   2.671  53.299  1.00  0.00    -0.347 OA
HETATM   10  C12 UNL     1      24.362   3.641  52.317  1.00  0.00     0.162 C 
HETATM   11  C13 UNL     1      23.253   4.603  52.181  1.00  0.00     0.302 C 
HETATM   12  N1  UNL     1      23.332   5.584  51.118  1.00  0.00     0.086 N 
HETATM   13  C14 UNL     1      22.039   6.289  51.199  1.00  0.00     0.272 C 
HETATM   14  C15 UNL     1      21.725   7.131  50.002  1.00  0.00     0.056 C 
HETATM   15  C16 UNL     1      21.619   6.265  48.747  1.00  0.00     0.176 C 
HETATM   16  O3  UNL     1      22.801   5.667  48.338  1.00  0.00    -0.363 OA
HETATM   17  C17 UNL     1      23.053   4.286  48.499  1.00  0.00     0.130 C 
HETATM   18  C18 UNL     1      22.836   3.187  49.142  1.00  0.00    -0.002 C 
HETATM   19  C19 UNL     1      22.638   1.837  49.848  1.00  0.00     0.047 C 
HETATM   20  H14 UNL     1      24.024   6.342  51.345  1.00  0.00     0.315 HD
ENDROOT
BRANCH   8  21
HETATM   21  C8  UNL     1      20.642   0.636  52.847  1.00  0.00     0.002 C 
BRANCH  21  22
HETATM   22  C9  UNL     1      20.347  -0.643  53.553  1.00  0.00    -0.002 C 
BRANCH  22  23
HETATM   23  C10 UNL     1      20.994  -1.095  54.582  1.00  0.00     0.004 C 
BRANCH  23  24
HETATM   24  C11 UNL     1      22.294  -1.764  54.682  1.00  0.00     0.249 C 
HETATM   25  F1  UNL     1      23.135  -0.970  55.489  1.00  0.00    -0.251 F 
ENDBRANCH  23  24
ENDBRANCH  22  23
ENDBRANCH  21  22
ENDBRANCH   8  21
TORSDOF 4
ENDMDL
MODEL 6
REMARK VINA RESULT:      -6.7      6.874      9.379
REMARK  4 active torsions:
REMARK  status: ('A' for Active; 'I' for Inactive)
REMARK    1  A    between atoms: C7_8  and  C8_9 
REMARK    2  A    between atoms: C8_9  and  C9_10 
REMARK    3  A    between atoms: C9_10  and  C10_11 
REMARK    4  A    between atoms: C10_11  and  C11_12 
ROOT
HETATM    1  C1  UNL     1      21.487   3.595  46.876  1.00  0.00     0.017 A 
HETATM    2  C2  UNL     1      21.860   2.624  47.724  1.00  0.00     0.001 A 
HETATM    3  C3  UNL     1      22.658   3.802  48.054  1.00  0.00    -0.020 A 
HETATM    4  O1  UNL     1      23.302   4.844  48.276  1.00  0.00     0.000 OA
HETATM    5  C4  UNL     1      23.593   3.542  49.218  1.00  0.00     0.043 A 
HETATM    6  C5  UNL     1      24.100   4.899  49.649  1.00  0.00     0.033 A 
HETATM    7  C6  UNL     1      22.999   5.487  50.206  1.00  0.00     0.057 C 
HETATM    8  C7  UNL     1      23.052   6.860  50.558  1.00  0.00     0.033 C 
HETATM    9  O2  UNL     1      21.963   4.528  50.325  1.00  0.00    -0.347 OA
HETATM   10  C12 UNL     1      22.689   3.262  50.412  1.00  0.00     0.162 C 
HETATM   11  C13 UNL     1      23.350   3.308  51.729  1.00  0.00     0.302 C 
HETATM   12  N1  UNL     1      24.323   2.280  52.036  1.00  0.00     0.086 N 
HETATM   13  C14 UNL     1      24.853   2.686  53.351  1.00  0.00     0.272 C 
HETATM   14  C15 UNL     1      26.112   1.980  53.748  1.00  0.00     0.056 C 
HETATM   15  C16 UNL     1      27.237   2.287  52.761  1.00  0.00     0.176 C 
HETATM   16  O3  UNL     1      27.055   1.789  51.480  1.00  0.00    -0.363 OA
HETATM   17  C17 UNL     1      26.725   2.612  50.380  1.00  0.00     0.130 C 
HETATM   18  C18 UNL     1      26.181   3.693  49.929  1.00  0.00    -0.002 C 
HETATM   19  C19 UNL     1      25.560   4.952  49.305  1.00  0.00     0.047 C 
HETATM   20  H14 UNL     1      23.858   1.361  52.248  1.00  0.00     0.315 HD
ENDROOT
BRANCH   8  21
HETATM   21  C8  UNL     1      23.674   7.966  50.639  1.00  0.00     0.002 C 
BRANCH  21  22
HETATM   22  C9  UNL     1      24.291   8.620  49.450  1.00  0.00    -0.002 C 
BRANCH  22  23
HETATM   23  C10 UNL     1      25.532   8.986  49.359  1.00  0.00     0.004 C 
BRANCH  23  24
HETATM   24  C11 UNL     1      26.757   8.356  49.859  1.00  0.00     0.249 C 
HETATM   25  F1  UNL     1      27.327   9.211  50.825  1.00  0.00    -0.251 F 
ENDBRANCH  23  24
ENDBRANCH  22  23
ENDBRANCH  21  22
ENDBRANCH   8  21
TORSDOF 4
ENDMDL
MODEL 7
REMARK VINA RESULT:      -6.7      7.023     10.599
REMARK  4 active torsions:
REMARK  status: ('A' for Active; 'I' for Inactive)
REMARK    1  A    between atoms: C7_8  and  C8_9 
REMARK    2  A    between atoms: C8_9  and  C9_10 
REMARK    3  A    between atoms: C9_10  and  C10_11 
REMARK    4  A    between atoms: C10_11  and  C11_12 
ROOT
HETATM    1  C1  UNL     1      19.592   1.889  50.755  1.00  0.00     0.017 A 
HETATM    2  C2  UNL     1      20.092   2.758  49.862  1.00  0.00     0.001 A 
HETATM    3  C3  UNL     1      21.028   2.718  50.982  1.00  0.00    -0.020 A 
HETATM    4  O1  UNL     1      21.778   2.632  51.973  1.00  0.00     0.000 OA
HETATM    5  C4  UNL     1      22.220   3.626  50.755  1.00  0.00     0.043 A 
HETATM    6  C5  UNL     1      23.235   3.245  51.809  1.00  0.00     0.033 A 
HETATM    7  C6  UNL     1      23.655   2.007  51.410  1.00  0.00     0.057 C 
HETATM    8  C7  UNL     1      24.484   1.248  52.275  1.00  0.00     0.033 C 
HETATM    9  O2  UNL     1      23.136   1.725  50.123  1.00  0.00    -0.347 OA
HETATM   10  C12 UNL     1      22.943   3.053  49.543  1.00  0.00     0.162 C 
HETATM   11  C13 UNL     1      24.311   3.560  49.325  1.00  0.00     0.302 C 
HETATM   12  N1  UNL     1      24.467   4.950  48.948  1.00  0.00     0.086 N 
HETATM   13  C14 UNL     1      25.929   5.141  48.924  1.00  0.00     0.272 C 
HETATM   14  C15 UNL     1      26.359   6.574  48.888  1.00  0.00     0.056 C 
HETATM   15  C16 UNL     1      25.888   7.311  50.141  1.00  0.00     0.176 C 
HETATM   16  O3  UNL     1      24.515   7.456  50.263  1.00  0.00    -0.363 OA
HETATM   17  C17 UNL     1      23.746   6.710  51.185  1.00  0.00     0.130 C 
HETATM   18  C18 UNL     1      23.595   5.638  51.890  1.00  0.00    -0.002 C 
HETATM   19  C19 UNL     1      23.334   4.400  52.762  1.00  0.00     0.047 C 
HETATM   20  H14 UNL     1      24.197   5.108  47.944  1.00  0.00     0.315 HD
ENDROOT
BRANCH   8  21
HETATM   21  C8  UNL     1      25.125   1.107  53.364  1.00  0.00     0.002 C 
BRANCH  21  22
HETATM   22  C9  UNL     1      26.370   0.292  53.455  1.00  0.00    -0.002 C 
BRANCH  22  23
HETATM   23  C10 UNL     1      26.799  -0.522  52.541  1.00  0.00     0.004 C 
BRANCH  23  24
HETATM   24  C11 UNL     1      27.200  -1.929  52.621  1.00  0.00     0.249 C 
HETATM   25  F1  UNL     1      26.394  -2.667  51.729  1.00  0.00    -0.251 F 
ENDBRANCH  23  24
ENDBRANCH  22  23
ENDBRANCH  21  22
ENDBRANCH   8  21
TORSDOF 4
ENDMDL
MODEL 8
REMARK VINA RESULT:      -6.5     10.259     12.848
REMARK  4 active torsions:
REMARK  status: ('A' for Active; 'I' for Inactive)
REMARK    1  A    between atoms: C7_8  and  C8_9 
REMARK    2  A    between atoms: C8_9  and  C9_10 
REMARK    3  A    between atoms: C9_10  and  C10_11 
REMARK    4  A    between atoms: C10_11  and  C11_12 
ROOT
HETATM    1  C1  UNL     1      18.732  -0.595  53.031  1.00  0.00     0.017 A 
HETATM    2  C2  UNL     1      18.500  -0.140  51.789  1.00  0.00     0.001 A 
HETATM    3  C3  UNL     1      19.630   0.622  52.314  1.00  0.00    -0.020 A 
HETATM    4  O1  UNL     1      20.587   1.230  52.829  1.00  0.00     0.000 OA
HETATM    5  C4  UNL     1      20.154   1.622  51.304  1.00  0.00     0.043 A 
HETATM    6  C5  UNL     1      21.487   2.091  51.842  1.00  0.00     0.033 A 
HETATM    7  C6  UNL     1      22.290   0.993  51.699  1.00  0.00     0.057 C 
HETATM    8  C7  UNL     1      23.583   1.004  52.280  1.00  0.00     0.033 C 
HETATM    9  O2  UNL     1      21.609   0.007  50.945  1.00  0.00    -0.347 OA
HETATM   10  C12 UNL     1      20.674   0.790  50.139  1.00  0.00     0.162 C 
HETATM   11  C13 UNL     1      21.532   1.511  49.180  1.00  0.00     0.302 C 
HETATM   12  N1  UNL     1      20.921   2.542  48.365  1.00  0.00     0.086 N 
HETATM   13  C14 UNL     1      22.059   3.117  47.624  1.00  0.00     0.272 C 
HETATM   14  C15 UNL     1      21.757   4.423  46.957  1.00  0.00     0.056 C 
HETATM   15  C16 UNL     1      21.388   5.484  47.992  1.00  0.00     0.176 C 
HETATM   16  O3  UNL     1      20.201   5.262  48.672  1.00  0.00    -0.363 OA
HETATM   17  C17 UNL     1      20.160   4.844  50.021  1.00  0.00     0.130 C 
HETATM   18  C18 UNL     1      20.724   4.233  51.009  1.00  0.00    -0.002 C 
HETATM   19  C19 UNL     1      21.320   3.529  52.238  1.00  0.00     0.047 C 
HETATM   20  H14 UNL     1      20.332   2.127  47.600  1.00  0.00     0.315 HD
ENDROOT
BRANCH   8  21
HETATM   21  C8  UNL     1      24.502   1.581  52.943  1.00  0.00     0.002 C 
BRANCH  21  22
HETATM   22  C9  UNL     1      25.948   1.348  52.669  1.00  0.00    -0.002 C 
BRANCH  22  23
HETATM   23  C10 UNL     1      26.435   0.312  52.059  1.00  0.00     0.004 C 
BRANCH  23  24
HETATM   24  C11 UNL     1      26.695  -1.049  52.536  1.00  0.00     0.249 C 
HETATM   25  F1  UNL     1      25.923  -1.261  53.697  1.00  0.00    -0.251 F 
ENDBRANCH  23  24
ENDBRANCH  22  23
ENDBRANCH  21  22
ENDBRANCH   8  21
TORSDOF 4
ENDMDL
MODEL 9
REMARK VINA RESULT:      -6.5      6.623     10.252
REMARK  4 active torsions:
REMARK  status: ('A' for Active; 'I' for Inactive)
REMARK    1  A    between atoms: C7_8  and  C8_9 
REMARK    2  A    between atoms: C8_9  and  C9_10 
REMARK    3  A    between atoms: C9_10  and  C10_11 
REMARK    4  A    between atoms: C10_11  and  C11_12 
ROOT
HETATM    1  C1  UNL     1      27.537   5.126  48.910  1.00  0.00     0.017 A 
HETATM    2  C2  UNL     1      26.569   5.932  48.448  1.00  0.00     0.001 A 
HETATM    3  C3  UNL     1      25.906   4.786  49.065  1.00  0.00    -0.020 A 
HETATM    4  O1  UNL     1      25.412   3.780  49.607  1.00  0.00     0.000 OA
HETATM    5  C4  UNL     1      24.396   4.902  48.994  1.00  0.00     0.043 A 
HETATM    6  C5  UNL     1      23.858   3.846  49.933  1.00  0.00     0.033 A 
HETATM    7  C6  UNL     1      24.190   4.324  51.170  1.00  0.00     0.057 C 
HETATM    8  C7  UNL     1      24.005   3.491  52.303  1.00  0.00     0.033 C 
HETATM    9  O2  UNL     1      24.682   5.646  51.048  1.00  0.00    -0.347 OA
HETATM   10  C12 UNL     1      24.043   6.128  49.825  1.00  0.00     0.162 C 
HETATM   11  C13 UNL     1      22.618   6.259  50.184  1.00  0.00     0.302 C 
HETATM   12  N1  UNL     1      21.672   6.524  49.119  1.00  0.00     0.086 N 
HETATM   13  C14 UNL     1      20.364   6.482  49.800  1.00  0.00     0.272 C 
HETATM   14  C15 UNL     1      19.194   6.393  48.871  1.00  0.00     0.056 C 
HETATM   15  C16 UNL     1      19.251   5.104  48.052  1.00  0.00     0.176 C 
HETATM   16  O3  UNL     1      20.301   5.019  47.152  1.00  0.00    -0.363 OA
HETATM   17  C17 UNL     1      21.422   4.185  47.362  1.00  0.00     0.130 C 
HETATM   18  C18 UNL     1      22.207   3.569  48.184  1.00  0.00    -0.002 C 
HETATM   19  C19 UNL     1      23.188   2.805  49.085  1.00  0.00     0.047 C 
HETATM   20  H14 UNL     1      21.730   7.521  48.792  1.00  0.00     0.315 HD
ENDROOT
BRANCH   8  21
HETATM   21  C8  UNL     1      23.639   2.395  52.833  1.00  0.00     0.002 C 
BRANCH  21  22
HETATM   22  C9  UNL     1      24.329   1.105  52.549  1.00  0.00    -0.002 C 
BRANCH  22  23
HETATM   23  C10 UNL     1      25.503   0.988  52.009  1.00  0.00     0.004 C 
BRANCH  23  24
HETATM   24  C11 UNL     1      26.693   0.254  52.448  1.00  0.00     0.249 C 
HETATM   25  F1  UNL     1      26.784  -0.929  51.685  1.00  0.00    -0.251 F 
ENDBRANCH  23  24
ENDBRANCH  22  23
ENDBRANCH  21  22
ENDBRANCH   8  21
TORSDOF 4
ENDMDL
