MODEL 1
REMARK VINA RESULT:      -7.8      0.000      0.000
REMARK  6 active torsions:
REMARK  status: ('A' for Active; 'I' for Inactive)
REMARK    1  A    between atoms: C3_3  and  C4_4 
REMARK    2  A    between atoms: C4_4  and  C5_5 
REMARK    3  A    between atoms: C5_5  and  C6_6 
REMARK    4  A    between atoms: C10_13  and  N3_14 
REMARK    5  A    between atoms: C15_21  and  O1_22 
REMARK    6  A    between atoms: C17_24  and  O2_25 
ROOT
HETATM    1  C1  UNL     1      27.546   5.395  48.653  1.00  0.00     0.012 C 
HETATM    2  C2  UNL     1      27.038   4.349  49.007  1.00  0.00    -0.117 C 
HETATM    3  C3  UNL     1      26.439   3.078  49.418  1.00  0.00     0.093 C 
ENDROOT
BRANCH   3   4
HETATM    4  C4  UNL     1      26.098   3.190  50.913  1.00  0.00     0.017 C 
BRANCH   4   5
HETATM    5  C5  UNL     1      26.787   2.046  51.561  1.00  0.00     0.044 C 
BRANCH   5   6
HETATM    6  C6  UNL     1      25.899   1.222  52.406  1.00  0.00    -0.010 A 
HETATM    7  P1  UNL     1      24.194   1.415  52.187  1.00  0.00    -0.006 P 
HETATM    8  C7  UNL     1      23.240   0.406  53.225  1.00  0.00     0.053 A 
HETATM    9  C8  UNL     1      23.988  -0.393  54.063  1.00  0.00     0.076 A 
HETATM   10  C10 UNL     1      21.859   0.449  53.158  1.00  0.00     0.143 A 
HETATM   11  N1  UNL     1      23.231  -1.192  54.878  1.00  0.00    -0.241 NA
HETATM   12  C16 UNL     1      25.344  -0.416  54.101  1.00  0.00     0.070 A 
HETATM   13  C9  UNL     1      21.890  -1.158  54.822  1.00  0.00     0.236 A 
HETATM   14  N2  UNL     1      21.178  -0.373  53.998  1.00  0.00    -0.224 NA
HETATM   15  C17 UNL     1      26.244   0.297  53.371  1.00  0.00     0.078 A 
BRANCH  15  16
HETATM   16  O2  UNL     1      27.632   0.134  53.556  1.00  0.00    -0.355 OA
HETATM   17  C18 UNL     1      28.235   0.164  54.815  1.00  0.00     0.210 C 
ENDBRANCH  15  16
BRANCH  10  18
HETATM   18  N3  UNL     1      21.130   1.296  52.287  1.00  0.00    -0.332 N 
HETATM   19  C11 UNL     1      20.870   0.773  50.938  1.00  0.00     0.156 C 
HETATM   20  C12 UNL     1      19.392   0.666  50.752  1.00  0.00     0.015 C 
HETATM   21  C13 UNL     1      18.712   1.792  50.958  1.00  0.00     0.047 C 
HETATM   22 CL1  UNL     1      16.984   1.737  50.758  1.00  0.00    -0.086 Cl
HETATM   23  C14 UNL     1      19.554   2.956  51.337  1.00  0.00     0.263 C 
HETATM   24  F1  UNL     1      18.762   3.976  51.828  1.00  0.00    -0.239 F 
HETATM   25  C15 UNL     1      20.553   2.604  52.421  1.00  0.00     0.261 C 
BRANCH  25  26
HETATM   26  O1  UNL     1      21.508   3.611  52.399  1.00  0.00    -0.373 OA
HETATM   27  H14 UNL     1      22.194   3.435  51.699  1.00  0.00     0.212 HD
ENDBRANCH  25  26
ENDBRANCH  10  18
ENDBRANCH   5   6
ENDBRANCH   4   5
ENDBRANCH   3   4
TORSDOF 6
ENDMDL
MODEL 2
REMARK VINA RESULT:      -7.4      3.573      5.468
REMARK  6 active torsions:
REMARK  status: ('A' for Active; 'I' for Inactive)
REMARK    1  A    between atoms: C3_3  and  C4_4 
REMARK    2  A    between atoms: C4_4  and  C5_5 
REMARK    3  A    between atoms: C5_5  and  C6_6 
REMARK    4  A    between atoms: C10_13  and  N3_14 
REMARK    5  A    between atoms: C15_21  and  O1_22 
REMARK    6  A    between atoms: C17_24  and  O2_25 
ROOT
HETATM    1  C1  UNL     1      29.446  -0.152  53.842  1.00  0.00     0.012 C 
HETATM    2  C2  UNL     1      28.658   0.745  53.614  1.00  0.00    -0.117 C 
HETATM    3  C3  UNL     1      27.726   1.841  53.346  1.00  0.00     0.093 C 
ENDROOT
BRANCH   3   4
HETATM    4  C4  UNL     1      26.769   1.372  52.237  1.00  0.00     0.017 C 
BRANCH   4   5
HETATM    5  C5  UNL     1      25.723   0.577  52.927  1.00  0.00     0.044 C 
BRANCH   5   6
HETATM    6  C6  UNL     1      24.357   1.111  52.747  1.00  0.00    -0.010 A 
HETATM    7  P1  UNL     1      24.207   2.661  51.995  1.00  0.00    -0.006 P 
HETATM    8  C7  UNL     1      22.567   3.199  51.831  1.00  0.00     0.053 A 
HETATM    9  C8  UNL     1      21.638   2.308  52.325  1.00  0.00     0.076 A 
HETATM   10  C10 UNL     1      22.292   4.421  51.243  1.00  0.00     0.143 A 
HETATM   11  N1  UNL     1      20.345   2.733  52.190  1.00  0.00    -0.241 NA
HETATM   12  C16 UNL     1      21.941   1.113  52.893  1.00  0.00     0.070 A 
HETATM   13  C9  UNL     1      20.065   3.917  51.620  1.00  0.00     0.236 A 
HETATM   14  N2  UNL     1      20.984   4.773  51.144  1.00  0.00    -0.224 NA
HETATM   15  C17 UNL     1      23.155   0.536  53.103  1.00  0.00     0.078 A 
BRANCH  15  16
HETATM   16  O2  UNL     1      23.270  -0.728  53.717  1.00  0.00    -0.355 OA
HETATM   17  C18 UNL     1      22.283  -1.253  54.555  1.00  0.00     0.210 C 
ENDBRANCH  15  16
BRANCH  10  18
HETATM   18  N3  UNL     1      23.280   5.311  50.758  1.00  0.00    -0.332 N 
HETATM   19  C11 UNL     1      24.044   4.860  49.586  1.00  0.00     0.156 C 
HETATM   20  C12 UNL     1      23.795   5.816  48.466  1.00  0.00     0.015 C 
HETATM   21  C13 UNL     1      24.064   7.091  48.738  1.00  0.00     0.047 C 
HETATM   22 CL1  UNL     1      23.795   8.259  47.475  1.00  0.00    -0.086 Cl
HETATM   23  C14 UNL     1      24.566   7.331  50.116  1.00  0.00     0.263 C 
HETATM   24  F1  UNL     1      24.519   8.679  50.411  1.00  0.00    -0.239 F 
HETATM   25  C15 UNL     1      23.727   6.616  51.157  1.00  0.00     0.261 C 
BRANCH  25  26
HETATM   26  O1  UNL     1      24.501   6.583  52.310  1.00  0.00    -0.373 OA
HETATM   27  H14 UNL     1      25.051   7.410  52.392  1.00  0.00     0.212 HD
ENDBRANCH  25  26
ENDBRANCH  10  18
ENDBRANCH   5   6
ENDBRANCH   4   5
ENDBRANCH   3   4
TORSDOF 6
ENDMDL
MODEL 3
REMARK VINA RESULT:      -7.4      4.295      7.975
REMARK  6 active torsions:
REMARK  status: ('A' for Active; 'I' for Inactive)
REMARK    1  A    between atoms: C3_3  and  C4_4 
REMARK    2  A    between atoms: C4_4  and  C5_5 
REMARK    3  A    between atoms: C5_5  and  C6_6 
REMARK    4  A    between atoms: C10_13  and  N3_14 
REMARK    5  A    between atoms: C15_21  and  O1_22 
REMARK    6  A    between atoms: C17_24  and  O2_25 
ROOT
HETATM    1  C1  UNL     1      17.914  -1.937  53.452  1.00  0.00     0.012 C 
HETATM    2  C2  UNL     1      18.951  -1.304  53.492  1.00  0.00    -0.117 C 
HETATM    3  C3  UNL     1      20.210  -0.560  53.553  1.00  0.00     0.093 C 
ENDROOT
BRANCH   3   4
HETATM    4  C4  UNL     1      20.281   0.331  52.301  1.00  0.00     0.017 C 
BRANCH   4   5
HETATM    5  C5  UNL     1      20.835   1.626  52.769  1.00  0.00     0.044 C 
BRANCH   5   6
HETATM    6  C6  UNL     1      21.877   2.180  51.880  1.00  0.00    -0.010 A 
HETATM    7  P1  UNL     1      23.524   1.841  52.284  1.00  0.00    -0.006 P 
HETATM    8  C7  UNL     1      24.668   2.535  51.182  1.00  0.00     0.053 A 
HETATM    9  C8  UNL     1      24.088   3.250  50.156  1.00  0.00     0.076 A 
HETATM   10  C10 UNL     1      26.024   2.344  51.377  1.00  0.00     0.143 A 
HETATM   11  N1  UNL     1      24.994   3.792  49.286  1.00  0.00    -0.241 NA
HETATM   12  C16 UNL     1      22.751   3.416  49.990  1.00  0.00     0.070 A 
HETATM   13  C9  UNL     1      26.313   3.613  49.464  1.00  0.00     0.236 A 
HETATM   14  N2  UNL     1      26.861   2.913  50.471  1.00  0.00    -0.224 NA
HETATM   15  C17 UNL     1      21.720   2.950  50.746  1.00  0.00     0.078 A 
BRANCH  15  16
HETATM   16  O2  UNL     1      20.380   3.231  50.410  1.00  0.00    -0.355 OA
HETATM   17  C18 UNL     1      20.002   4.373  49.700  1.00  0.00     0.210 C 
ENDBRANCH  15  16
BRANCH  10  18
HETATM   18  N3  UNL     1      26.578   1.609  52.454  1.00  0.00    -0.332 N 
HETATM   19  C11 UNL     1      25.858   0.391  52.849  1.00  0.00     0.156 C 
HETATM   20  C12 UNL     1      26.768  -0.778  52.652  1.00  0.00     0.015 C 
HETATM   21  C13 UNL     1      27.937  -0.698  53.283  1.00  0.00     0.047 C 
HETATM   22 CL1  UNL     1      29.045  -2.028  53.095  1.00  0.00    -0.086 Cl
HETATM   23  C14 UNL     1      28.125   0.546  54.073  1.00  0.00     0.263 C 
HETATM   24  F1  UNL     1      29.452   0.689  54.427  1.00  0.00    -0.239 F 
HETATM   25  C15 UNL     1      27.737   1.781  53.285  1.00  0.00     0.261 C 
BRANCH  25  26
HETATM   26  O1  UNL     1      27.574   2.794  54.222  1.00  0.00    -0.373 OA
HETATM   27  H14 UNL     1      28.433   2.988  54.687  1.00  0.00     0.212 HD
ENDBRANCH  25  26
ENDBRANCH  10  18
ENDBRANCH   5   6
ENDBRANCH   4   5
ENDBRANCH   3   4
TORSDOF 6
ENDMDL
MODEL 4
REMARK VINA RESULT:      -7.3      2.457      4.994
REMARK  6 active torsions:
REMARK  status: ('A' for Active; 'I' for Inactive)
REMARK    1  A    between atoms: C3_3  and  C4_4 
REMARK    2  A    between atoms: C4_4  and  C5_5 
REMARK    3  A    between atoms: C5_5  and  C6_6 
REMARK    4  A    between atoms: C10_13  and  N3_14 
REMARK    5  A    between atoms: C15_21  and  O1_22 
REMARK    6  A    between atoms: C17_24  and  O2_25 
ROOT
HETATM    1  C1  UNL     1      19.170  -0.094  52.510  1.00  0.00     0.012 C 
HETATM    2  C2  UNL     1      20.085  -0.545  53.171  1.00  0.00    -0.117 C 
HETATM    3  C3  UNL     1      21.184  -1.108  53.957  1.00  0.00     0.093 C 
ENDROOT
BRANCH   3   4
HETATM    4  C4  UNL     1      22.245  -0.008  54.124  1.00  0.00     0.017 C 
BRANCH   4   5
HETATM    5  C5  UNL     1      23.524  -0.625  53.692  1.00  0.00     0.044 C 
BRANCH   5   6
HETATM    6  C6  UNL     1      24.376   0.278  52.890  1.00  0.00    -0.010 A 
HETATM    7  P1  UNL     1      23.595   1.594  52.085  1.00  0.00    -0.006 P 
HETATM    8  C7  UNL     1      24.678   2.592  51.170  1.00  0.00     0.053 A 
HETATM    9  C8  UNL     1      25.993   2.181  51.227  1.00  0.00     0.076 A 
HETATM   10  C10 UNL     1      24.196   3.686  50.476  1.00  0.00     0.143 A 
HETATM   11  N1  UNL     1      26.846   2.973  50.507  1.00  0.00    -0.241 NA
HETATM   12  C16 UNL     1      26.436   1.103  51.922  1.00  0.00     0.070 A 
HETATM   13  C9  UNL     1      26.389   4.039  49.829  1.00  0.00     0.236 A 
HETATM   14  N2  UNL     1      25.104   4.424  49.786  1.00  0.00    -0.224 NA
HETATM   15  C17 UNL     1      25.739   0.217  52.685  1.00  0.00     0.078 A 
BRANCH  15  16
HETATM   16  O2  UNL     1      26.382  -0.853  53.338  1.00  0.00    -0.355 OA
HETATM   17  C18 UNL     1      27.685  -1.252  53.031  1.00  0.00     0.210 C 
ENDBRANCH  15  16
BRANCH  10  18
HETATM   18  N3  UNL     1      22.832   4.067  50.436  1.00  0.00    -0.332 N 
HETATM   19  C11 UNL     1      22.250   4.268  49.102  1.00  0.00     0.156 C 
HETATM   20  C12 UNL     1      21.139   3.286  48.920  1.00  0.00     0.015 C 
HETATM   21  C13 UNL     1      20.192   3.323  49.854  1.00  0.00     0.047 C 
HETATM   22 CL1  UNL     1      18.868   2.203  49.703  1.00  0.00    -0.086 Cl
HETATM   23  C14 UNL     1      20.416   4.340  50.914  1.00  0.00     0.263 C 
HETATM   24  F1  UNL     1      19.576   4.103  51.985  1.00  0.00    -0.239 F 
HETATM   25  C15 UNL     1      21.835   4.306  51.442  1.00  0.00     0.261 C 
BRANCH  25  26
HETATM   26  O1  UNL     1      22.025   5.514  52.101  1.00  0.00    -0.373 OA
HETATM   27  H14 UNL     1      21.622   5.489  53.012  1.00  0.00     0.212 HD
ENDBRANCH  25  26
ENDBRANCH  10  18
ENDBRANCH   5   6
ENDBRANCH   4   5
ENDBRANCH   3   4
TORSDOF 6
ENDMDL
MODEL 5
REMARK VINA RESULT:      -7.2      3.294      4.673
REMARK  6 active torsions:
REMARK  status: ('A' for Active; 'I' for Inactive)
REMARK    1  A    between atoms: C3_3  and  C4_4 
REMARK    2  A    between atoms: C4_4  and  C5_5 
REMARK    3  A    between atoms: C5_5  and  C6_6 
REMARK    4  A    between atoms: C10_13  and  N3_14 
REMARK    5  A    between atoms: C15_21  and  O1_22 
REMARK    6  A    between atoms: C17_24  and  O2_25 
ROOT
HETATM    1  C1  UNL     1      29.761  -0.563  53.857  1.00  0.00     0.012 C 
HETATM    2  C2  UNL     1      29.262   0.529  53.664  1.00  0.00    -0.117 C 
HETATM    3  C3  UNL     1      28.683   1.852  53.432  1.00  0.00     0.093 C 
ENDROOT
BRANCH   3   4
HETATM    4  C4  UNL     1      27.381   1.654  52.637  1.00  0.00     0.017 C 
BRANCH   4   5
HETATM    5  C5  UNL     1      26.285   1.862  53.617  1.00  0.00     0.044 C 
BRANCH   5   6
HETATM    6  C6  UNL     1      24.972   1.376  53.148  1.00  0.00    -0.010 A 
HETATM    7  P1  UNL     1      24.106   2.380  52.037  1.00  0.00    -0.006 P 
HETATM    8  C7  UNL     1      22.578   1.722  51.549  1.00  0.00     0.053 A 
HETATM    9  C8  UNL     1      22.290   0.502  52.121  1.00  0.00     0.076 A 
HETATM   10  C10 UNL     1      21.776   2.415  50.659  1.00  0.00     0.143 A 
HETATM   11  N1  UNL     1      21.086  -0.016  51.730  1.00  0.00    -0.241 NA
HETATM   12  C16 UNL     1      23.102  -0.154  52.989  1.00  0.00     0.070 A 
HETATM   13  C9  UNL     1      20.299   0.646  50.867  1.00  0.00     0.236 A 
HETATM   14  N2  UNL     1      20.596   1.836  50.319  1.00  0.00    -0.224 NA
HETATM   15  C17 UNL     1      24.320   0.205  53.478  1.00  0.00     0.078 A 
BRANCH  15  16
HETATM   16  O2  UNL     1      25.019  -0.619  54.383  1.00  0.00    -0.355 OA
HETATM   17  C18 UNL     1      24.410  -1.208  55.494  1.00  0.00     0.210 C 
ENDBRANCH  15  16
BRANCH  10  18
HETATM   18  N3  UNL     1      22.108   3.674  50.103  1.00  0.00    -0.332 N 
HETATM   19  C11 UNL     1      21.414   4.839  50.670  1.00  0.00     0.156 C 
HETATM   20  C12 UNL     1      22.436   5.748  51.271  1.00  0.00     0.015 C 
HETATM   21  C13 UNL     1      23.405   6.136  50.445  1.00  0.00     0.047 C 
HETATM   22 CL1  UNL     1      24.630   7.197  51.082  1.00  0.00    -0.086 Cl
HETATM   23  C14 UNL     1      23.292   5.590  49.068  1.00  0.00     0.263 C 
HETATM   24  F1  UNL     1      24.476   5.779  48.382  1.00  0.00    -0.239 F 
HETATM   25  C15 UNL     1      23.010   4.101  49.070  1.00  0.00     0.261 C 
BRANCH  25  26
HETATM   26  O1  UNL     1      22.541   3.801  47.797  1.00  0.00    -0.373 OA
HETATM   27  H14 UNL     1      22.542   2.817  47.641  1.00  0.00     0.212 HD
ENDBRANCH  25  26
ENDBRANCH  10  18
ENDBRANCH   5   6
ENDBRANCH   4   5
ENDBRANCH   3   4
TORSDOF 6
ENDMDL
MODEL 6
REMARK VINA RESULT:      -7.2      2.017      2.318
REMARK  6 active torsions:
REMARK  status: ('A' for Active; 'I' for Inactive)
REMARK    1  A    between atoms: C3_3  and  C4_4 
REMARK    2  A    between atoms: C4_4  and  C5_5 
REMARK    3  A    between atoms: C5_5  and  C6_6 
REMARK    4  A    between atoms: C10_13  and  N3_14 
REMARK    5  A    between atoms: C15_21  and  O1_22 
REMARK    6  A    between atoms: C17_24  and  O2_25 
ROOT
HETATM    1  C1  UNL     1      24.074   4.519  48.956  1.00  0.00     0.012 C 
HETATM    2  C2  UNL     1      25.185   4.213  49.342  1.00  0.00    -0.117 C 
HETATM    3  C3  UNL     1      26.527   3.866  49.814  1.00  0.00     0.093 C 
ENDROOT
BRANCH   3   4
HETATM    4  C4  UNL     1      26.494   2.394  50.258  1.00  0.00     0.017 C 
BRANCH   4   5
HETATM    5  C5  UNL     1      26.452   2.430  51.741  1.00  0.00     0.044 C 
BRANCH   5   6
HETATM    6  C6  UNL     1      25.465   1.500  52.328  1.00  0.00    -0.010 A 
HETATM    7  P1  UNL     1      23.806   1.734  51.902  1.00  0.00    -0.006 P 
HETATM    8  C7  UNL     1      22.730   0.594  52.642  1.00  0.00     0.053 A 
HETATM    9  C8  UNL     1      23.364  -0.321  53.456  1.00  0.00     0.076 A 
HETATM   10  C10 UNL     1      21.371   0.655  52.389  1.00  0.00     0.143 A 
HETATM   11  N1  UNL     1      22.512  -1.222  54.035  1.00  0.00    -0.241 NA
HETATM   12  C16 UNL     1      24.702  -0.358  53.680  1.00  0.00     0.070 A 
HETATM   13  C9  UNL     1      21.191  -1.173  53.797  1.00  0.00     0.236 A 
HETATM   14  N2  UNL     1      20.591  -0.273  53.001  1.00  0.00    -0.224 NA
HETATM   15  C17 UNL     1      25.685   0.446  53.191  1.00  0.00     0.078 A 
BRANCH  15  16
HETATM   16  O2  UNL     1      27.035   0.250  53.544  1.00  0.00    -0.355 OA
HETATM   17  C18 UNL     1      27.782  -0.843  53.096  1.00  0.00     0.210 C 
ENDBRANCH  15  16
BRANCH  10  18
HETATM   18  N3  UNL     1      20.760   1.621  51.553  1.00  0.00    -0.332 N 
HETATM   19  C11 UNL     1      19.878   2.592  52.217  1.00  0.00     0.156 C 
HETATM   20  C12 UNL     1      20.443   3.959  52.009  1.00  0.00     0.015 C 
HETATM   21  C13 UNL     1      20.646   4.301  50.739  1.00  0.00     0.047 C 
HETATM   22 CL1  UNL     1      21.303   5.883  50.426  1.00  0.00    -0.086 Cl
HETATM   23  C14 UNL     1      20.270   3.254  49.754  1.00  0.00     0.263 C 
HETATM   24  F1  UNL     1      20.794   3.558  48.513  1.00  0.00    -0.239 F 
HETATM   25  C15 UNL     1      20.807   1.891  50.144  1.00  0.00     0.261 C 
BRANCH  25  26
HETATM   26  O1  UNL     1      20.080   0.970  49.401  1.00  0.00    -0.373 OA
HETATM   27  H14 UNL     1      20.642   0.570  48.683  1.00  0.00     0.212 HD
ENDBRANCH  25  26
ENDBRANCH  10  18
ENDBRANCH   5   6
ENDBRANCH   4   5
ENDBRANCH   3   4
TORSDOF 6
ENDMDL
MODEL 7
REMARK VINA RESULT:      -7.1      3.519      5.938
REMARK  6 active torsions:
REMARK  status: ('A' for Active; 'I' for Inactive)
REMARK    1  A    between atoms: C3_3  and  C4_4 
REMARK    2  A    between atoms: C4_4  and  C5_5 
REMARK    3  A    between atoms: C5_5  and  C6_6 
REMARK    4  A    between atoms: C10_13  and  N3_14 
REMARK    5  A    between atoms: C15_21  and  O1_22 
REMARK    6  A    between atoms: C17_24  and  O2_25 
ROOT
HETATM    1  C1  UNL     1      21.575  -1.670  54.582  1.00  0.00     0.012 C 
HETATM    2  C2  UNL     1      20.855  -0.983  53.883  1.00  0.00    -0.117 C 
HETATM    3  C3  UNL     1      19.972  -0.156  53.059  1.00  0.00     0.093 C 
ENDROOT
BRANCH   3   4
HETATM    4  C4  UNL     1      20.864   0.726  52.170  1.00  0.00     0.017 C 
BRANCH   4   5
HETATM    5  C5  UNL     1      21.871   1.319  53.085  1.00  0.00     0.044 C 
BRANCH   5   6
HETATM    6  C6  UNL     1      23.125   1.713  52.411  1.00  0.00    -0.010 A 
HETATM    7  P1  UNL     1      23.140   3.239  51.597  1.00  0.00    -0.006 P 
HETATM    8  C7  UNL     1      24.654   3.608  50.838  1.00  0.00     0.053 A 
HETATM    9  C8  UNL     1      25.610   2.629  51.000  1.00  0.00     0.076 A 
HETATM   10  C10 UNL     1      24.816   4.799  50.152  1.00  0.00     0.143 A 
HETATM   11  N1  UNL     1      26.806   2.925  50.403  1.00  0.00    -0.241 NA
HETATM   12  C16 UNL     1      25.421   1.471  51.683  1.00  0.00     0.070 A 
HETATM   13  C9  UNL     1      26.974   4.078  49.735  1.00  0.00     0.236 A 
HETATM   14  N2  UNL     1      26.031   5.022  49.587  1.00  0.00    -0.224 NA
HETATM   15  C17 UNL     1      24.315   1.019  52.334  1.00  0.00     0.078 A 
BRANCH  15  16
HETATM   16  O2  UNL     1      24.311  -0.226  52.994  1.00  0.00    -0.355 OA
HETATM   17  C18 UNL     1      25.218  -0.548  54.006  1.00  0.00     0.210 C 
ENDBRANCH  15  16
BRANCH  10  18
HETATM   18  N3  UNL     1      23.800   5.775  50.001  1.00  0.00    -0.332 N 
HETATM   19  C11 UNL     1      23.279   5.966  48.640  1.00  0.00     0.156 C 
HETATM   20  C12 UNL     1      21.824   5.630  48.643  1.00  0.00     0.015 C 
HETATM   21  C13 UNL     1      21.088   6.302  49.525  1.00  0.00     0.047 C 
HETATM   22 CL1  UNL     1      19.383   5.957  49.580  1.00  0.00    -0.086 Cl
HETATM   23  C14 UNL     1      21.855   7.269  50.352  1.00  0.00     0.263 C 
HETATM   24  F1  UNL     1      21.094   7.682  51.429  1.00  0.00    -0.239 F 
HETATM   25  C15 UNL     1      23.124   6.658  50.910  1.00  0.00     0.261 C 
BRANCH  25  26
HETATM   26  O1  UNL     1      23.919   7.726  51.304  1.00  0.00    -0.373 OA
HETATM   27  H14 UNL     1      24.859   7.600  50.999  1.00  0.00     0.212 HD
ENDBRANCH  25  26
ENDBRANCH  10  18
ENDBRANCH   5   6
ENDBRANCH   4   5
ENDBRANCH   3   4
TORSDOF 6
ENDMDL
MODEL 8
REMARK VINA RESULT:      -6.9      3.259      5.860
REMARK  6 active torsions:
REMARK  status: ('A' for Active; 'I' for Inactive)
REMARK    1  A    between atoms: C3_3  and  C4_4 
REMARK    2  A    between atoms: C4_4  and  C5_5 
REMARK    3  A    between atoms: C5_5  and  C6_6 
REMARK    4  A    between atoms: C10_13  and  N3_14 
REMARK    5  A    between atoms: C15_21  and  O1_22 
REMARK    6  A    between atoms: C17_24  and  O2_25 
ROOT
HETATM    1  C1  UNL     1      16.584   0.163  50.214  1.00  0.00     0.012 C 
HETATM    2  C2  UNL     1      17.585   0.682  50.669  1.00  0.00    -0.117 C 
HETATM    3  C3  UNL     1      18.777   1.326  51.221  1.00  0.00     0.093 C 
ENDROOT
BRANCH   3   4
HETATM    4  C4  UNL     1      19.625   0.232  51.891  1.00  0.00     0.017 C 
BRANCH   4   5
HETATM    5  C5  UNL     1      20.376   0.921  52.971  1.00  0.00     0.044 C 
BRANCH   5   6
HETATM    6  C6  UNL     1      21.833   0.985  52.731  1.00  0.00    -0.010 A 
HETATM    7  P1  UNL     1      22.449   2.421  51.990  1.00  0.00    -0.006 P 
HETATM    8  C7  UNL     1      24.166   2.399  51.750  1.00  0.00     0.053 A 
HETATM    9  C8  UNL     1      24.773   1.240  52.187  1.00  0.00     0.076 A 
HETATM   10  C10 UNL     1      24.801   3.483  51.171  1.00  0.00     0.143 A 
HETATM   11  N1  UNL     1      26.128   1.228  52.000  1.00  0.00    -0.241 NA
HETATM   12  C16 UNL     1      24.121   0.195  52.755  1.00  0.00     0.070 A 
HETATM   13  C9  UNL     1      26.756   2.274  51.440  1.00  0.00     0.236 A 
HETATM   14  N2  UNL     1      26.148   3.396  51.020  1.00  0.00    -0.224 NA
HETATM   15  C17 UNL     1      22.795   0.039  53.019  1.00  0.00     0.078 A 
BRANCH  15  16
HETATM   16  O2  UNL     1      22.300  -1.134  53.622  1.00  0.00    -0.355 OA
HETATM   17  C18 UNL     1      22.491  -1.427  54.974  1.00  0.00     0.210 C 
ENDBRANCH  15  16
BRANCH  10  18
HETATM   18  N3  UNL     1      24.136   4.651  50.727  1.00  0.00    -0.332 N 
HETATM   19  C11 UNL     1      24.108   4.872  49.274  1.00  0.00     0.156 C 
HETATM   20  C12 UNL     1      22.684   4.873  48.825  1.00  0.00     0.015 C 
HETATM   21  C13 UNL     1      21.895   5.746  49.446  1.00  0.00     0.047 C 
HETATM   22 CL1  UNL     1      20.221   5.799  48.971  1.00  0.00    -0.086 Cl
HETATM   23  C14 UNL     1      22.580   6.565  50.480  1.00  0.00     0.263 C 
HETATM   24  F1  UNL     1      21.648   7.203  51.275  1.00  0.00    -0.239 F 
HETATM   25  C15 UNL     1      23.442   5.718  51.394  1.00  0.00     0.261 C 
BRANCH  25  26
HETATM   26  O1  UNL     1      24.308   6.601  52.025  1.00  0.00    -0.373 OA
HETATM   27  H14 UNL     1      24.001   7.542  51.910  1.00  0.00     0.212 HD
ENDBRANCH  25  26
ENDBRANCH  10  18
ENDBRANCH   5   6
ENDBRANCH   4   5
ENDBRANCH   3   4
TORSDOF 6
ENDMDL
MODEL 9
REMARK VINA RESULT:      -6.7      4.558      7.289
REMARK  6 active torsions:
REMARK  status: ('A' for Active; 'I' for Inactive)
REMARK    1  A    between atoms: C3_3  and  C4_4 
REMARK    2  A    between atoms: C4_4  and  C5_5 
REMARK    3  A    between atoms: C5_5  and  C6_6 
REMARK    4  A    between atoms: C10_13  and  N3_14 
REMARK    5  A    between atoms: C15_21  and  O1_22 
REMARK    6  A    between atoms: C17_24  and  O2_25 
ROOT
HETATM    1  C1  UNL     1      27.083  -1.109  52.507  1.00  0.00     0.012 C 
HETATM    2  C2  UNL     1      26.117  -0.617  53.056  1.00  0.00    -0.117 C 
HETATM    3  C3  UNL     1      24.958  -0.036  53.737  1.00  0.00     0.093 C 
ENDROOT
BRANCH   3   4
HETATM    4  C4  UNL     1      24.715   1.355  53.128  1.00  0.00     0.017 C 
BRANCH   4   5
HETATM    5  C5  UNL     1      23.243   1.463  52.968  1.00  0.00     0.044 C 
BRANCH   5   6
HETATM    6  C6  UNL     1      22.827   1.979  51.648  1.00  0.00    -0.010 A 
HETATM    7  P1  UNL     1      23.625   3.398  51.065  1.00  0.00    -0.006 P 
HETATM    8  C7  UNL     1      23.065   3.923  49.510  1.00  0.00     0.053 A 
HETATM    9  C8  UNL     1      22.072   3.128  48.980  1.00  0.00     0.076 A 
HETATM   10  C10 UNL     1      23.616   5.044  48.916  1.00  0.00     0.143 A 
HETATM   11  N1  UNL     1      21.636   3.542  47.751  1.00  0.00    -0.241 NA
HETATM   12  C16 UNL     1      21.556   2.030  49.588  1.00  0.00     0.070 A 
HETATM   13  C9  UNL     1      22.164   4.629  47.164  1.00  0.00     0.236 A 
HETATM   14  N2  UNL     1      23.131   5.392  47.696  1.00  0.00    -0.224 NA
HETATM   15  C17 UNL     1      21.868   1.477  50.792  1.00  0.00     0.078 A 
BRANCH  15  16
HETATM   16  O2  UNL     1      21.213   0.320  51.259  1.00  0.00    -0.355 OA
HETATM   17  C18 UNL     1      19.839   0.278  51.508  1.00  0.00     0.210 C 
ENDBRANCH  15  16
BRANCH  10  18
HETATM   18  N3  UNL     1      24.630   5.840  49.503  1.00  0.00    -0.332 N 
HETATM   19  C11 UNL     1      25.998   5.308  49.432  1.00  0.00     0.156 C 
HETATM   20  C12 UNL     1      26.835   6.265  48.648  1.00  0.00     0.015 C 
HETATM   21  C13 UNL     1      26.841   7.516  49.102  1.00  0.00     0.047 C 
HETATM   22 CL1  UNL     1      27.797   8.683  48.233  1.00  0.00    -0.086 Cl
HETATM   23  C14 UNL     1      26.009   7.733  50.314  1.00  0.00     0.263 C 
HETATM   24  F1  UNL     1      25.823   9.085  50.527  1.00  0.00    -0.239 F 
HETATM   25  C15 UNL     1      24.636   7.108  50.178  1.00  0.00     0.261 C 
BRANCH  25  26
HETATM   26  O1  UNL     1      24.126   7.027  51.467  1.00  0.00    -0.373 OA
HETATM   27  H14 UNL     1      23.152   7.237  51.477  1.00  0.00     0.212 HD
ENDBRANCH  25  26
ENDBRANCH  10  18
ENDBRANCH   5   6
ENDBRANCH   4   5
ENDBRANCH   3   4
TORSDOF 6
ENDMDL
