MODEL 1
REMARK VINA RESULT:      -8.6      0.000      0.000
REMARK  8 active torsions:
REMARK  status: ('A' for Active; 'I' for Inactive)
REMARK    1  A    between atoms: O1_1  and  C1_2 
REMARK    2  A    between atoms: C4_5  and  C5_6 
REMARK    3  A    between atoms: C5_6  and  C6_7 
REMARK    4  A    between atoms: C6_7  and  C7_8 
REMARK    5  A    between atoms: C6_7  and  N1_17 
REMARK    6  A    between atoms: C7_8  and  C8_9 
REMARK    7  A    between atoms: C13_15  and  O2_16 
REMARK    8  A    between atoms: N1_17  and  C14_18 
ROOT
HETATM    1  C6  UNL     1      26.175   2.294  51.613  1.00  0.00     0.086 C 
ENDROOT
BRANCH   1   2
HETATM    2  C5  UNL     1      27.331   1.889  52.476  1.00  0.00     0.063 C 
BRANCH   2   3
HETATM    3  C4  UNL     1      27.456   0.407  52.608  1.00  0.00    -0.056 A 
HETATM    4  C3  UNL     1      28.693   0.082  53.200  1.00  0.00     0.010 A 
HETATM    5  C2  UNL     1      29.097  -1.211  53.457  1.00  0.00     0.037 A 
HETATM    6  C1  UNL     1      28.223  -2.227  53.105  1.00  0.00     0.065 A 
HETATM    7  C20 UNL     1      27.018  -1.939  52.530  1.00  0.00     0.037 A 
HETATM    8  C19 UNL     1      26.634  -0.642  52.283  1.00  0.00     0.010 A 
BRANCH   6   9
HETATM    9  O1  UNL     1      28.604  -3.541  53.351  1.00  0.00    -0.361 OA
HETATM   10  H1  UNL     1      29.380  -3.974  52.866  1.00  0.00     0.217 HD
ENDBRANCH   6   9
ENDBRANCH   2   3
ENDBRANCH   1   2
BRANCH   1  11
HETATM   11  C7  UNL     1      26.466   2.514  50.180  1.00  0.00     0.066 C 
BRANCH  11  12
HETATM   12  C8  UNL     1      25.900   3.746  49.591  1.00  0.00    -0.022 A 
HETATM   13  C9  UNL     1      24.550   3.907  49.350  1.00  0.00     0.010 A 
HETATM   14  C10 UNL     1      23.972   5.039  48.792  1.00  0.00     0.002 A 
HETATM   15  C11 UNL     1      24.777   6.088  48.446  1.00  0.00     0.022 A 
HETATM   16  C12 UNL     1      26.146   5.984  48.666  1.00  0.00     0.044 A 
HETATM   17 BR1  UNL     1      27.260   7.456  48.182  1.00  0.00    -0.048 Br
HETATM   18  C13 UNL     1      26.668   4.836  49.224  1.00  0.00     0.089 A 
BRANCH  18  19
HETATM   19  O2  UNL     1      28.057   4.778  49.425  1.00  0.00    -0.359 OA
HETATM   20  H12 UNL     1      28.399   3.879  49.799  1.00  0.00     0.217 HD
ENDBRANCH  18  19
ENDBRANCH  11  12
ENDBRANCH   1  11
BRANCH   1  21
HETATM   21  N1  UNL     1      25.408   3.298  52.252  1.00  0.00    -0.406 N 
HETATM   22  H13 UNL     1      25.866   4.160  52.537  1.00  0.00     0.154 HD
BRANCH  21  23
HETATM   23  C14 UNL     1      24.201   2.912  52.876  1.00  0.00     0.123 A 
HETATM   24  C15 UNL     1      23.741   1.618  52.295  1.00  0.00     0.002 A 
HETATM   25  C16 UNL     1      22.514   1.824  51.825  1.00  0.00    -0.002 A 
HETATM   26  C17 UNL     1      22.078   3.211  52.045  1.00  0.00    -0.002 A 
HETATM   27  C18 UNL     1      23.058   3.842  52.655  1.00  0.00     0.002 A 
ENDBRANCH  21  23
ENDBRANCH   1  21
TORSDOF 8
ENDMDL
MODEL 2
REMARK VINA RESULT:      -8.4      3.101      5.621
REMARK  8 active torsions:
REMARK  status: ('A' for Active; 'I' for Inactive)
REMARK    1  A    between atoms: O1_1  and  C1_2 
REMARK    2  A    between atoms: C4_5  and  C5_6 
REMARK    3  A    between atoms: C5_6  and  C6_7 
REMARK    4  A    between atoms: C6_7  and  C7_8 
REMARK    5  A    between atoms: C6_7  and  N1_17 
REMARK    6  A    between atoms: C7_8  and  C8_9 
REMARK    7  A    between atoms: C13_15  and  O2_16 
REMARK    8  A    between atoms: N1_17  and  C14_18 
ROOT
HETATM    1  C6  UNL     1      25.621   0.262  54.145  1.00  0.00     0.086 C 
ENDROOT
BRANCH   1   2
HETATM    2  C5  UNL     1      24.742  -0.193  53.020  1.00  0.00     0.063 C 
BRANCH   2   3
HETATM    3  C4  UNL     1      23.340  -0.459  53.459  1.00  0.00    -0.056 A 
HETATM    4  C3  UNL     1      22.437   0.009  52.484  1.00  0.00     0.010 A 
HETATM    5  C2  UNL     1      21.067  -0.098  52.602  1.00  0.00     0.037 A 
HETATM    6  C1  UNL     1      20.578  -0.701  53.749  1.00  0.00     0.065 A 
HETATM    7  C20 UNL     1      21.432  -1.163  54.710  1.00  0.00     0.037 A 
HETATM    8  C19 UNL     1      22.796  -1.048  54.572  1.00  0.00     0.010 A 
BRANCH   6   9
HETATM    9  O1  UNL     1      19.202  -0.822  53.897  1.00  0.00    -0.361 OA
HETATM   10  H1  UNL     1      18.700  -0.359  54.646  1.00  0.00     0.217 HD
ENDBRANCH   6   9
ENDBRANCH   2   3
ENDBRANCH   1   2
BRANCH   1  11
HETATM   11  C7  UNL     1      25.979   1.698  54.164  1.00  0.00     0.066 C 
BRANCH  11  12
HETATM   12  C8  UNL     1      25.428   2.513  53.061  1.00  0.00    -0.022 A 
HETATM   13  C9  UNL     1      24.158   3.054  53.093  1.00  0.00     0.010 A 
HETATM   14  C10 UNL     1      23.594   3.816  52.080  1.00  0.00     0.002 A 
HETATM   15  C11 UNL     1      24.329   4.065  50.955  1.00  0.00     0.022 A 
HETATM   16  C12 UNL     1      25.616   3.547  50.866  1.00  0.00     0.044 A 
HETATM   17 BR1  UNL     1      26.635   3.905  49.292  1.00  0.00    -0.048 Br
HETATM   18  C13 UNL     1      26.129   2.795  51.903  1.00  0.00     0.089 A 
BRANCH  18  19
HETATM   19  O2  UNL     1      27.433   2.292  51.765  1.00  0.00    -0.359 OA
HETATM   20  H12 UNL     1      27.719   2.104  50.793  1.00  0.00     0.217 HD
ENDBRANCH  18  19
ENDBRANCH  11  12
ENDBRANCH   1  11
BRANCH   1  21
HETATM   21  N1  UNL     1      26.689  -0.646  54.338  1.00  0.00    -0.406 N 
HETATM   22  H13 UNL     1      26.911  -0.952  55.283  1.00  0.00     0.154 HD
BRANCH  21  23
HETATM   23  C14 UNL     1      27.674  -0.733  53.331  1.00  0.00     0.123 A 
HETATM   24  C15 UNL     1      27.872  -2.164  52.960  1.00  0.00     0.002 A 
HETATM   25  C16 UNL     1      29.162  -2.433  53.144  1.00  0.00    -0.002 A 
HETATM   26  C17 UNL     1      29.894  -1.255  53.631  1.00  0.00    -0.002 A 
HETATM   27  C18 UNL     1      29.030  -0.268  53.739  1.00  0.00     0.002 A 
ENDBRANCH  21  23
ENDBRANCH   1  21
TORSDOF 8
ENDMDL
MODEL 3
REMARK VINA RESULT:      -8.1      3.413      6.590
REMARK  8 active torsions:
REMARK  status: ('A' for Active; 'I' for Inactive)
REMARK    1  A    between atoms: O1_1  and  C1_2 
REMARK    2  A    between atoms: C4_5  and  C5_6 
REMARK    3  A    between atoms: C5_6  and  C6_7 
REMARK    4  A    between atoms: C6_7  and  C7_8 
REMARK    5  A    between atoms: C6_7  and  N1_17 
REMARK    6  A    between atoms: C7_8  and  C8_9 
REMARK    7  A    between atoms: C13_15  and  O2_16 
REMARK    8  A    between atoms: N1_17  and  C14_18 
ROOT
HETATM    1  C6  UNL     1      24.223   3.545  51.707  1.00  0.00     0.086 C 
ENDROOT
BRANCH   1   2
HETATM    2  C5  UNL     1      22.825   3.892  51.294  1.00  0.00     0.063 C 
BRANCH   2   3
HETATM    3  C4  UNL     1      21.940   2.693  51.205  1.00  0.00    -0.056 A 
HETATM    4  C3  UNL     1      20.818   2.865  52.040  1.00  0.00     0.010 A 
HETATM    5  C2  UNL     1      19.815   1.926  52.169  1.00  0.00     0.037 A 
HETATM    6  C1  UNL     1      19.941   0.763  51.428  1.00  0.00     0.065 A 
HETATM    7  C20 UNL     1      21.018   0.572  50.611  1.00  0.00     0.037 A 
HETATM    8  C19 UNL     1      22.007   1.521  50.496  1.00  0.00     0.010 A 
BRANCH   6   9
HETATM    9  O1  UNL     1      18.946  -0.202  51.538  1.00  0.00    -0.361 OA
HETATM   10  H1  UNL     1      18.873  -0.807  52.347  1.00  0.00     0.217 HD
ENDBRANCH   6   9
ENDBRANCH   2   3
ENDBRANCH   1   2
BRANCH   1  11
HETATM   11  C7  UNL     1      24.418   3.162  53.123  1.00  0.00     0.066 C 
BRANCH  11  12
HETATM   12  C8  UNL     1      25.003   1.824  53.352  1.00  0.00    -0.022 A 
HETATM   13  C9  UNL     1      24.288   0.656  53.178  1.00  0.00     0.010 A 
HETATM   14  C10 UNL     1      24.789  -0.620  53.389  1.00  0.00     0.002 A 
HETATM   15  C11 UNL     1      26.085  -0.761  53.799  1.00  0.00     0.022 A 
HETATM   16  C12 UNL     1      26.856   0.381  53.991  1.00  0.00     0.044 A 
HETATM   17 BR1  UNL     1      28.666   0.174  54.560  1.00  0.00    -0.048 Br
HETATM   18  C13 UNL     1      26.307   1.627  53.766  1.00  0.00     0.089 A 
BRANCH  18  19
HETATM   19  O2  UNL     1      27.125   2.750  53.974  1.00  0.00    -0.359 OA
HETATM   20  H12 UNL     1      26.865   3.578  53.418  1.00  0.00     0.217 HD
ENDBRANCH  18  19
ENDBRANCH  11  12
ENDBRANCH   1  11
BRANCH   1  21
HETATM   21  N1  UNL     1      25.142   4.489  51.187  1.00  0.00    -0.406 N 
HETATM   22  H13 UNL     1      25.355   5.321  51.734  1.00  0.00     0.154 HD
BRANCH  21  23
HETATM   23  C14 UNL     1      25.365   4.497  49.793  1.00  0.00     0.123 A 
HETATM   24  C15 UNL     1      26.615   3.740  49.493  1.00  0.00     0.002 A 
HETATM   25  C16 UNL     1      27.416   4.570  48.831  1.00  0.00    -0.002 A 
HETATM   26  C17 UNL     1      26.791   5.889  48.646  1.00  0.00    -0.002 A 
HETATM   27  C18 UNL     1      25.601   5.845  49.205  1.00  0.00     0.002 A 
ENDBRANCH  21  23
ENDBRANCH   1  21
TORSDOF 8
ENDMDL
MODEL 4
REMARK VINA RESULT:      -8.0      2.723      3.691
REMARK  8 active torsions:
REMARK  status: ('A' for Active; 'I' for Inactive)
REMARK    1  A    between atoms: O1_1  and  C1_2 
REMARK    2  A    between atoms: C4_5  and  C5_6 
REMARK    3  A    between atoms: C5_6  and  C6_7 
REMARK    4  A    between atoms: C6_7  and  C7_8 
REMARK    5  A    between atoms: C6_7  and  N1_17 
REMARK    6  A    between atoms: C7_8  and  C8_9 
REMARK    7  A    between atoms: C13_15  and  O2_16 
REMARK    8  A    between atoms: N1_17  and  C14_18 
ROOT
HETATM    1  C6  UNL     1      23.718   0.138  52.936  1.00  0.00     0.086 C 
ENDROOT
BRANCH   1   2
HETATM    2  C5  UNL     1      24.333  -0.576  54.101  1.00  0.00     0.063 C 
BRANCH   2   3
HETATM    3  C4  UNL     1      25.818  -0.427  54.145  1.00  0.00    -0.056 A 
HETATM    4  C3  UNL     1      26.403  -1.157  53.091  1.00  0.00     0.010 A 
HETATM    5  C2  UNL     1      27.763  -1.211  52.867  1.00  0.00     0.037 A 
HETATM    6  C1  UNL     1      28.575  -0.502  53.737  1.00  0.00     0.065 A 
HETATM    7  C20 UNL     1      28.033   0.213  54.766  1.00  0.00     0.037 A 
HETATM    8  C19 UNL     1      26.674   0.255  54.972  1.00  0.00     0.010 A 
BRANCH   6   9
HETATM    9  O1  UNL     1      29.950  -0.539  53.537  1.00  0.00    -0.361 OA
HETATM   10  H1  UNL     1      30.512   0.304  53.517  1.00  0.00     0.217 HD
ENDBRANCH   6   9
ENDBRANCH   2   3
ENDBRANCH   1   2
BRANCH   1  11
HETATM   11  C7  UNL     1      23.766   1.617  52.967  1.00  0.00     0.066 C 
BRANCH  11  12
HETATM   12  C8  UNL     1      24.458   2.262  51.831  1.00  0.00    -0.022 A 
HETATM   13  C9  UNL     1      25.805   2.087  51.580  1.00  0.00     0.010 A 
HETATM   14  C10 UNL     1      26.500   2.677  50.535  1.00  0.00     0.002 A 
HETATM   15  C11 UNL     1      25.826   3.497  49.674  1.00  0.00     0.022 A 
HETATM   16  C12 UNL     1      24.467   3.711  49.876  1.00  0.00     0.044 A 
HETATM   17 BR1  UNL     1      23.535   4.854  48.665  1.00  0.00    -0.048 Br
HETATM   18  C13 UNL     1      23.824   3.098  50.932  1.00  0.00     0.089 A 
BRANCH  18  19
HETATM   19  O2  UNL     1      22.451   3.346  51.095  1.00  0.00    -0.359 OA
HETATM   20  H12 UNL     1      21.867   3.062  50.294  1.00  0.00     0.217 HD
ENDBRANCH  18  19
ENDBRANCH  11  12
ENDBRANCH   1  11
BRANCH   1  21
HETATM   21  N1  UNL     1      22.466  -0.436  52.608  1.00  0.00    -0.406 N 
HETATM   22  H13 UNL     1      22.443  -1.249  51.998  1.00  0.00     0.154 HD
BRANCH  21  23
HETATM   23  C14 UNL     1      21.315   0.371  52.736  1.00  0.00     0.123 A 
HETATM   24  C15 UNL     1      20.395  -0.244  53.737  1.00  0.00     0.002 A 
HETATM   25  C16 UNL     1      19.231  -0.433  53.120  1.00  0.00    -0.002 A 
HETATM   26  C17 UNL     1      19.281   0.020  51.722  1.00  0.00    -0.002 A 
HETATM   27  C18 UNL     1      20.490   0.487  51.500  1.00  0.00     0.002 A 
ENDBRANCH  21  23
ENDBRANCH   1  21
TORSDOF 8
ENDMDL
MODEL 5
REMARK VINA RESULT:      -7.9      2.214      2.865
REMARK  8 active torsions:
REMARK  status: ('A' for Active; 'I' for Inactive)
REMARK    1  A    between atoms: O1_1  and  C1_2 
REMARK    2  A    between atoms: C4_5  and  C5_6 
REMARK    3  A    between atoms: C5_6  and  C6_7 
REMARK    4  A    between atoms: C6_7  and  C7_8 
REMARK    5  A    between atoms: C6_7  and  N1_17 
REMARK    6  A    between atoms: C7_8  and  C8_9 
REMARK    7  A    between atoms: C13_15  and  O2_16 
REMARK    8  A    between atoms: N1_17  and  C14_18 
ROOT
HETATM    1  C6  UNL     1      24.527   1.444  52.089  1.00  0.00     0.086 C 
ENDROOT
BRANCH   1   2
HETATM    2  C5  UNL     1      25.769   1.981  52.732  1.00  0.00     0.063 C 
BRANCH   2   3
HETATM    3  C4  UNL     1      26.793   0.922  52.975  1.00  0.00    -0.056 A 
HETATM    4  C3  UNL     1      26.283  -0.334  52.586  1.00  0.00     0.010 A 
HETATM    5  C2  UNL     1      26.999  -1.509  52.686  1.00  0.00     0.037 A 
HETATM    6  C1  UNL     1      28.284  -1.424  53.198  1.00  0.00     0.065 A 
HETATM    7  C20 UNL     1      28.800  -0.219  53.581  1.00  0.00     0.037 A 
HETATM    8  C19 UNL     1      28.070   0.941  53.473  1.00  0.00     0.010 A 
BRANCH   6   9
HETATM    9  O1  UNL     1      29.029  -2.591  53.311  1.00  0.00    -0.361 OA
HETATM   10  H1  UNL     1      28.753  -3.450  52.850  1.00  0.00     0.217 HD
ENDBRANCH   6   9
ENDBRANCH   2   3
ENDBRANCH   1   2
BRANCH   1  11
HETATM   11  C7  UNL     1      24.253   1.890  50.705  1.00  0.00     0.066 C 
BRANCH  11  12
HETATM   12  C8  UNL     1      24.849   3.186  50.318  1.00  0.00    -0.022 A 
HETATM   13  C9  UNL     1      26.013   3.284  49.583  1.00  0.00     0.010 A 
HETATM   14  C10 UNL     1      26.615   4.475  49.204  1.00  0.00     0.002 A 
HETATM   15  C11 UNL     1      26.033   5.655  49.572  1.00  0.00     0.022 A 
HETATM   16  C12 UNL     1      24.857   5.620  50.313  1.00  0.00     0.044 A 
HETATM   17 BR1  UNL     1      24.049   7.274  50.819  1.00  0.00    -0.048 Br
HETATM   18  C13 UNL     1      24.300   4.407  50.664  1.00  0.00     0.089 A 
BRANCH  18  19
HETATM   19  O2  UNL     1      23.112   4.423  51.414  1.00  0.00    -0.359 OA
HETATM   20  H12 UNL     1      23.216   4.792  52.371  1.00  0.00     0.217 HD
ENDBRANCH  18  19
ENDBRANCH  11  12
ENDBRANCH   1  11
BRANCH   1  21
HETATM   21  N1  UNL     1      23.435   1.508  52.989  1.00  0.00    -0.406 N 
HETATM   22  H13 UNL     1      23.498   2.125  53.796  1.00  0.00     0.154 HD
BRANCH  21  23
HETATM   23  C14 UNL     1      22.531   0.424  53.011  1.00  0.00     0.123 A 
HETATM   24  C15 UNL     1      21.216   0.893  53.538  1.00  0.00     0.002 A 
HETATM   25  C16 UNL     1      20.931   0.130  54.590  1.00  0.00    -0.002 A 
HETATM   26  C17 UNL     1      21.988  -0.864  54.837  1.00  0.00    -0.002 A 
HETATM   27  C18 UNL     1      22.915  -0.693  53.921  1.00  0.00     0.002 A 
ENDBRANCH  21  23
ENDBRANCH   1  21
TORSDOF 8
ENDMDL
MODEL 6
REMARK VINA RESULT:      -7.9      2.639      3.415
REMARK  8 active torsions:
REMARK  status: ('A' for Active; 'I' for Inactive)
REMARK    1  A    between atoms: O1_1  and  C1_2 
REMARK    2  A    between atoms: C4_5  and  C5_6 
REMARK    3  A    between atoms: C5_6  and  C6_7 
REMARK    4  A    between atoms: C6_7  and  C7_8 
REMARK    5  A    between atoms: C6_7  and  N1_17 
REMARK    6  A    between atoms: C7_8  and  C8_9 
REMARK    7  A    between atoms: C13_15  and  O2_16 
REMARK    8  A    between atoms: N1_17  and  C14_18 
ROOT
HETATM    1  C6  UNL     1      24.189   0.075  53.098  1.00  0.00     0.086 C 
ENDROOT
BRANCH   1   2
HETATM    2  C5  UNL     1      25.008  -0.518  54.204  1.00  0.00     0.063 C 
BRANCH   2   3
HETATM    3  C4  UNL     1      26.467  -0.536  53.891  1.00  0.00    -0.056 A 
HETATM    4  C3  UNL     1      27.127   0.468  54.627  1.00  0.00     0.010 A 
HETATM    5  C2  UNL     1      28.485   0.697  54.554  1.00  0.00     0.037 A 
HETATM    6  C1  UNL     1      29.217  -0.117  53.705  1.00  0.00     0.065 A 
HETATM    7  C20 UNL     1      28.602  -1.098  52.981  1.00  0.00     0.037 A 
HETATM    8  C19 UNL     1      27.246  -1.310  53.068  1.00  0.00     0.010 A 
BRANCH   6   9
HETATM    9  O1  UNL     1      30.588   0.090  53.610  1.00  0.00    -0.361 OA
HETATM   10  H1  UNL     1      31.089   0.678  54.265  1.00  0.00     0.217 HD
ENDBRANCH   6   9
ENDBRANCH   2   3
ENDBRANCH   1   2
BRANCH   1  11
HETATM   11  C7  UNL     1      24.084   1.551  53.072  1.00  0.00     0.066 C 
BRANCH  11  12
HETATM   12  C8  UNL     1      24.117   2.174  51.732  1.00  0.00    -0.022 A 
HETATM   13  C9  UNL     1      23.028   2.180  50.883  1.00  0.00     0.010 A 
HETATM   14  C10 UNL     1      23.014   2.743  49.615  1.00  0.00     0.002 A 
HETATM   15  C11 UNL     1      24.149   3.343  49.146  1.00  0.00     0.022 A 
HETATM   16  C12 UNL     1      25.278   3.369  49.957  1.00  0.00     0.044 A 
HETATM   17 BR1  UNL     1      26.856   4.214  49.295  1.00  0.00    -0.048 Br
HETATM   18  C13 UNL     1      25.238   2.794  51.211  1.00  0.00     0.089 A 
BRANCH  18  19
HETATM   19  O2  UNL     1      26.404   2.845  51.993  1.00  0.00    -0.359 OA
HETATM   20  H12 UNL     1      26.237   2.864  53.010  1.00  0.00     0.217 HD
ENDBRANCH  18  19
ENDBRANCH  11  12
ENDBRANCH   1  11
BRANCH   1  21
HETATM   21  N1  UNL     1      22.975  -0.636  52.944  1.00  0.00    -0.406 N 
HETATM   22  H13 UNL     1      22.803  -1.133  52.074  1.00  0.00     0.154 HD
BRANCH  21  23
HETATM   23  C14 UNL     1      21.885  -0.270  53.763  1.00  0.00     0.123 A 
HETATM   24  C15 UNL     1      21.374  -1.480  54.471  1.00  0.00     0.002 A 
HETATM   25  C16 UNL     1      20.086  -1.591  54.159  1.00  0.00    -0.002 A 
HETATM   26  C17 UNL     1      19.655  -0.511  53.257  1.00  0.00    -0.002 A 
HETATM   27  C18 UNL     1      20.699   0.255  53.028  1.00  0.00     0.002 A 
ENDBRANCH  21  23
ENDBRANCH   1  21
TORSDOF 8
ENDMDL
MODEL 7
REMARK VINA RESULT:      -7.8      3.465      5.553
REMARK  8 active torsions:
REMARK  status: ('A' for Active; 'I' for Inactive)
REMARK    1  A    between atoms: O1_1  and  C1_2 
REMARK    2  A    between atoms: C4_5  and  C5_6 
REMARK    3  A    between atoms: C5_6  and  C6_7 
REMARK    4  A    between atoms: C6_7  and  C7_8 
REMARK    5  A    between atoms: C6_7  and  N1_17 
REMARK    6  A    between atoms: C7_8  and  C8_9 
REMARK    7  A    between atoms: C13_15  and  O2_16 
REMARK    8  A    between atoms: N1_17  and  C14_18 
ROOT
HETATM    1  C6  UNL     1      24.453   2.444  52.870  1.00  0.00     0.086 C 
ENDROOT
BRANCH   1   2
HETATM    2  C5  UNL     1      25.288   2.336  54.110  1.00  0.00     0.063 C 
BRANCH   2   3
HETATM    3  C4  UNL     1      26.534   1.542  53.895  1.00  0.00    -0.056 A 
HETATM    4  C3  UNL     1      27.646   2.406  53.833  1.00  0.00     0.010 A 
HETATM    5  C2  UNL     1      28.940   1.968  53.646  1.00  0.00     0.037 A 
HETATM    6  C1  UNL     1      29.131   0.602  53.515  1.00  0.00     0.065 A 
HETATM    7  C20 UNL     1      28.070  -0.256  53.571  1.00  0.00     0.037 A 
HETATM    8  C19 UNL     1      26.787   0.201  53.759  1.00  0.00     0.010 A 
BRANCH   6   9
HETATM    9  O1  UNL     1      30.424   0.130  53.324  1.00  0.00    -0.361 OA
HETATM   10  H1  UNL     1      31.175   0.735  53.012  1.00  0.00     0.217 HD
ENDBRANCH   6   9
ENDBRANCH   2   3
ENDBRANCH   1   2
BRANCH   1  11
HETATM   11  C7  UNL     1      24.115   1.175  52.189  1.00  0.00     0.066 C 
BRANCH  11  12
HETATM   12  C8  UNL     1      22.979   0.421  52.761  1.00  0.00    -0.022 A 
HETATM   13  C9  UNL     1      23.122  -0.466  53.809  1.00  0.00     0.010 A 
HETATM   14  C10 UNL     1      22.090  -1.202  54.373  1.00  0.00     0.002 A 
HETATM   15  C11 UNL     1      20.827  -1.057  53.873  1.00  0.00     0.022 A 
HETATM   16  C12 UNL     1      20.620  -0.176  52.817  1.00  0.00     0.044 A 
HETATM   17 BR1  UNL     1      18.851   0.023  52.129  1.00  0.00    -0.048 Br
HETATM   18  C13 UNL     1      21.682   0.532  52.294  1.00  0.00     0.089 A 
BRANCH  18  19
HETATM   19  O2  UNL     1      21.424   1.408  51.226  1.00  0.00    -0.359 OA
HETATM   20  H12 UNL     1      20.664   2.083  51.401  1.00  0.00     0.217 HD
ENDBRANCH  18  19
ENDBRANCH  11  12
ENDBRANCH   1  11
BRANCH   1  21
HETATM   21  N1  UNL     1      24.933   3.485  52.040  1.00  0.00    -0.406 N 
HETATM   22  H13 UNL     1      24.852   4.447  52.360  1.00  0.00     0.154 HD
BRANCH  21  23
HETATM   23  C14 UNL     1      25.068   3.222  50.659  1.00  0.00     0.123 A 
HETATM   24  C15 UNL     1      26.513   3.043  50.333  1.00  0.00     0.002 A 
HETATM   25  C16 UNL     1      26.805   3.933  49.389  1.00  0.00    -0.002 A 
HETATM   26  C17 UNL     1      25.630   4.740  49.027  1.00  0.00    -0.002 A 
HETATM   27  C18 UNL     1      24.623   4.327  49.764  1.00  0.00     0.002 A 
ENDBRANCH  21  23
ENDBRANCH   1  21
TORSDOF 8
ENDMDL
MODEL 8
REMARK VINA RESULT:      -7.7      3.113      4.957
REMARK  8 active torsions:
REMARK  status: ('A' for Active; 'I' for Inactive)
REMARK    1  A    between atoms: O1_1  and  C1_2 
REMARK    2  A    between atoms: C4_5  and  C5_6 
REMARK    3  A    between atoms: C5_6  and  C6_7 
REMARK    4  A    between atoms: C6_7  and  C7_8 
REMARK    5  A    between atoms: C6_7  and  N1_17 
REMARK    6  A    between atoms: C7_8  and  C8_9 
REMARK    7  A    between atoms: C13_15  and  O2_16 
REMARK    8  A    between atoms: N1_17  and  C14_18 
ROOT
HETATM    1  C6  UNL     1      25.585   3.321  50.767  1.00  0.00     0.086 C 
ENDROOT
BRANCH   1   2
HETATM    2  C5  UNL     1      26.697   2.317  50.803  1.00  0.00     0.063 C 
BRANCH   2   3
HETATM    3  C4  UNL     1      26.531   1.317  51.899  1.00  0.00    -0.056 A 
HETATM    4  C3  UNL     1      26.264   1.979  53.114  1.00  0.00     0.010 A 
HETATM    5  C2  UNL     1      26.059   1.321  54.309  1.00  0.00     0.037 A 
HETATM    6  C1  UNL     1      26.122  -0.063  54.287  1.00  0.00     0.065 A 
HETATM    7  C20 UNL     1      26.379  -0.728  53.122  1.00  0.00     0.037 A 
HETATM    8  C19 UNL     1      26.580  -0.053  51.941  1.00  0.00     0.010 A 
BRANCH   6   9
HETATM    9  O1  UNL     1      25.920  -0.753  55.476  1.00  0.00    -0.361 OA
HETATM   10  H1  UNL     1      25.292  -1.545  55.536  1.00  0.00     0.217 HD
ENDBRANCH   6   9
ENDBRANCH   2   3
ENDBRANCH   1   2
BRANCH   1  11
HETATM   11  C7  UNL     1      24.344   2.907  50.076  1.00  0.00     0.066 C 
BRANCH  11  12
HETATM   12  C8  UNL     1      23.092   3.084  50.843  1.00  0.00    -0.022 A 
HETATM   13  C9  UNL     1      22.386   4.271  50.856  1.00  0.00     0.010 A 
HETATM   14  C10 UNL     1      21.214   4.489  51.565  1.00  0.00     0.002 A 
HETATM   15  C11 UNL     1      20.697   3.470  52.315  1.00  0.00     0.022 A 
HETATM   16  C12 UNL     1      21.364   2.251  52.340  1.00  0.00     0.044 A 
HETATM   17 BR1  UNL     1      20.632   0.833  53.387  1.00  0.00    -0.048 Br
HETATM   18  C13 UNL     1      22.527   2.087  51.616  1.00  0.00     0.089 A 
BRANCH  18  19
HETATM   19  O2  UNL     1      23.165   0.837  51.674  1.00  0.00    -0.359 OA
HETATM   20  H12 UNL     1      24.123   0.828  51.293  1.00  0.00     0.217 HD
ENDBRANCH  18  19
ENDBRANCH  11  12
ENDBRANCH   1  11
BRANCH   1  21
HETATM   21  N1  UNL     1      26.085   4.602  50.430  1.00  0.00    -0.406 N 
HETATM   22  H13 UNL     1      26.030   5.348  51.118  1.00  0.00     0.154 HD
BRANCH  21  23
HETATM   23  C14 UNL     1      26.205   4.925  49.061  1.00  0.00     0.123 A 
HETATM   24  C15 UNL     1      27.650   4.949  48.688  1.00  0.00     0.002 A 
HETATM   25  C16 UNL     1      27.896   6.156  48.185  1.00  0.00    -0.002 A 
HETATM   26  C17 UNL     1      26.688   6.996  48.184  1.00  0.00    -0.002 A 
HETATM   27  C18 UNL     1      25.708   6.281  48.692  1.00  0.00     0.002 A 
ENDBRANCH  21  23
ENDBRANCH   1  21
TORSDOF 8
ENDMDL
MODEL 9
REMARK VINA RESULT:      -7.6      2.572      3.382
REMARK  8 active torsions:
REMARK  status: ('A' for Active; 'I' for Inactive)
REMARK    1  A    between atoms: O1_1  and  C1_2 
REMARK    2  A    between atoms: C4_5  and  C5_6 
REMARK    3  A    between atoms: C5_6  and  C6_7 
REMARK    4  A    between atoms: C6_7  and  C7_8 
REMARK    5  A    between atoms: C6_7  and  N1_17 
REMARK    6  A    between atoms: C7_8  and  C8_9 
REMARK    7  A    between atoms: C13_15  and  O2_16 
REMARK    8  A    between atoms: N1_17  and  C14_18 
ROOT
HETATM    1  C6  UNL     1      23.259   1.177  52.605  1.00  0.00     0.086 C 
ENDROOT
BRANCH   1   2
HETATM    2  C5  UNL     1      23.810   0.015  53.372  1.00  0.00     0.063 C 
BRANCH   2   3
HETATM    3  C4  UNL     1      25.302  -0.038  53.341  1.00  0.00    -0.056 A 
HETATM    4  C3  UNL     1      25.812   0.089  54.648  1.00  0.00     0.010 A 
HETATM    5  C2  UNL     1      27.160   0.073  54.943  1.00  0.00     0.037 A 
HETATM    6  C1  UNL     1      28.037  -0.078  53.881  1.00  0.00     0.065 A 
HETATM    7  C20 UNL     1      27.567  -0.204  52.605  1.00  0.00     0.037 A 
HETATM    8  C19 UNL     1      26.219  -0.186  52.332  1.00  0.00     0.010 A 
BRANCH   6   9
HETATM    9  O1  UNL     1      29.400  -0.097  54.147  1.00  0.00    -0.361 OA
HETATM   10  H1  UNL     1      29.946  -0.949  54.092  1.00  0.00     0.217 HD
ENDBRANCH   6   9
ENDBRANCH   2   3
ENDBRANCH   1   2
BRANCH   1  11
HETATM   11  C7  UNL     1      23.807   2.510  52.941  1.00  0.00     0.066 C 
BRANCH  11  12
HETATM   12  C8  UNL     1      24.148   3.374  51.791  1.00  0.00    -0.022 A 
HETATM   13  C9  UNL     1      24.817   2.905  50.678  1.00  0.00     0.010 A 
HETATM   14  C10 UNL     1      25.167   3.677  49.579  1.00  0.00     0.002 A 
HETATM   15  C11 UNL     1      24.838   5.003  49.572  1.00  0.00     0.022 A 
HETATM   16  C12 UNL     1      24.162   5.532  50.666  1.00  0.00     0.044 A 
HETATM   17 BR1  UNL     1      23.702   7.385  50.645  1.00  0.00    -0.048 Br
HETATM   18  C13 UNL     1      23.837   4.720  51.733  1.00  0.00     0.089 A 
BRANCH  18  19
HETATM   19  O2  UNL     1      23.156   5.300  52.816  1.00  0.00    -0.359 OA
HETATM   20  H12 UNL     1      22.827   6.263  52.648  1.00  0.00     0.217 HD
ENDBRANCH  18  19
ENDBRANCH  11  12
ENDBRANCH   1  11
BRANCH   1  21
HETATM   21  N1  UNL     1      21.849   1.090  52.518  1.00  0.00    -0.406 N 
HETATM   22  H13 UNL     1      21.293   1.255  53.353  1.00  0.00     0.154 HD
BRANCH  21  23
HETATM   23  C14 UNL     1      21.297   0.349  51.450  1.00  0.00     0.123 A 
HETATM   24  C15 UNL     1      21.755   0.936  50.157  1.00  0.00     0.002 A 
HETATM   25  C16 UNL     1      20.660   1.248  49.469  1.00  0.00    -0.002 A 
HETATM   26  C17 UNL     1      19.439   0.908  50.216  1.00  0.00    -0.002 A 
HETATM   27  C18 UNL     1      19.809   0.387  51.365  1.00  0.00     0.002 A 
ENDBRANCH  21  23
ENDBRANCH   1  21
TORSDOF 8
ENDMDL
