MODEL 1
REMARK VINA RESULT:      -8.3      0.000      0.000
REMARK  1 active torsions:
REMARK  status: ('A' for Active; 'I' for Inactive)
REMARK    1  A    between atoms: O1_2  and  C2_3 
ROOT
HETATM    1  C2  UNL     1      25.009   3.456  49.831  1.00  0.00     0.046 C 
HETATM    2  C3  UNL     1      23.937   2.870  50.358  1.00  0.00     0.022 C 
HETATM    3  C4  UNL     1      23.032   2.073  51.142  1.00  0.00     0.087 A 
HETATM    4  C5  UNL     1      22.664   1.214  52.072  1.00  0.00     0.020 A 
HETATM    5 BR1  UNL     1      21.377   2.085  50.894  1.00  0.00    -0.151 Br
HETATM    6  C6  UNL     1      23.301   0.368  53.143  1.00  0.00     0.084 C 
HETATM    7  C7  UNL     1      22.656  -0.434  53.970  1.00  0.00    -0.018 C 
HETATM    8  C8  UNL     1      23.671  -1.020  54.802  1.00  0.00     0.013 C 
HETATM    9  C9  UNL     1      24.927  -1.176  55.172  1.00  0.00     0.084 C 
HETATM   10  N1  UNL     1      26.147  -0.619  54.708  1.00  0.00    -0.381 N 
HETATM   11  C10 UNL     1      27.277   0.239  54.835  1.00  0.00     0.270 C 
HETATM   12  N2  UNL     1      28.197   0.220  53.713  1.00  0.00    -0.267 NA
HETATM   13  C11 UNL     1      29.043   1.173  53.752  1.00  0.00     0.093 C 
HETATM   14  C12 UNL     1      28.498   2.331  53.618  1.00  0.00     0.007 C 
HETATM   15  C13 UNL     1      27.208   2.264  53.398  1.00  0.00     0.014 C 
HETATM   16  C14 UNL     1      26.734   1.460  52.274  1.00  0.00    -0.003 C 
HETATM   17  C15 UNL     1      26.466   1.983  51.082  1.00  0.00    -0.020 C 
HETATM   18  C16 UNL     1      26.432   3.214  50.259  1.00  0.00     0.091 C 
HETATM   19  H10 UNL     1      26.149  -1.185  53.801  1.00  0.00     0.160 HD
ENDROOT
BRANCH   1  20
HETATM   20  O1  UNL     1      24.751   4.340  48.815  1.00  0.00    -0.360 OA
HETATM   21  C1  UNL     1      23.425   4.801  48.514  1.00  0.00     0.209 C 
ENDBRANCH   1  20
TORSDOF 1
ENDMDL
MODEL 2
REMARK VINA RESULT:      -8.0      2.571      4.986
REMARK  1 active torsions:
REMARK  status: ('A' for Active; 'I' for Inactive)
REMARK    1  A    between atoms: O1_2  and  C2_3 
ROOT
HETATM    1  C2  UNL     1      21.338  -0.532  53.227  1.00  0.00     0.046 C 
HETATM    2  C3  UNL     1      21.223   0.181  52.110  1.00  0.00     0.022 C 
HETATM    3  C4  UNL     1      21.449   1.047  50.983  1.00  0.00     0.087 A 
HETATM    4  C5  UNL     1      22.117   1.864  50.195  1.00  0.00     0.020 A 
HETATM    5 BR1  UNL     1      20.271   1.351  49.834  1.00  0.00    -0.151 Br
HETATM    6  C6  UNL     1      23.490   2.478  50.108  1.00  0.00     0.084 C 
HETATM    7  C7  UNL     1      23.903   3.298  49.159  1.00  0.00    -0.018 C 
HETATM    8  C8  UNL     1      25.265   3.613  49.494  1.00  0.00     0.013 C 
HETATM    9  C9  UNL     1      26.328   3.508  50.267  1.00  0.00     0.084 C 
HETATM   10  N1  UNL     1      26.586   2.791  51.465  1.00  0.00    -0.381 N 
HETATM   11  C10 UNL     1      27.197   1.739  52.204  1.00  0.00     0.270 C 
HETATM   12  N2  UNL     1      26.866   1.703  53.617  1.00  0.00    -0.267 NA
HETATM   13  C11 UNL     1      27.223   0.616  54.179  1.00  0.00     0.093 C 
HETATM   14  C12 UNL     1      26.583  -0.411  53.739  1.00  0.00     0.007 C 
HETATM   15  C13 UNL     1      25.658  -0.095  52.866  1.00  0.00     0.014 C 
HETATM   16  C14 UNL     1      24.643   0.884  53.248  1.00  0.00    -0.003 C 
HETATM   17  C15 UNL     1      23.454   0.533  53.725  1.00  0.00    -0.020 C 
HETATM   18  C16 UNL     1      22.562  -0.588  54.103  1.00  0.00     0.091 C 
HETATM   19  H10 UNL     1      25.979   3.432  52.069  1.00  0.00     0.160 HD
ENDROOT
BRANCH   1  20
HETATM   20  O1  UNL     1      20.227  -1.255  53.575  1.00  0.00    -0.360 OA
HETATM   21  C1  UNL     1      18.906  -0.892  53.144  1.00  0.00     0.209 C 
ENDBRANCH   1  20
TORSDOF 1
ENDMDL
MODEL 3
REMARK VINA RESULT:      -7.9      3.188      5.120
REMARK  1 active torsions:
REMARK  status: ('A' for Active; 'I' for Inactive)
REMARK    1  A    between atoms: O1_2  and  C2_3 
ROOT
HETATM    1  C2  UNL     1      25.982   3.204  50.694  1.00  0.00     0.046 C 
HETATM    2  C3  UNL     1      26.067   2.075  51.394  1.00  0.00     0.022 C 
HETATM    3  C4  UNL     1      25.802   0.925  52.217  1.00  0.00     0.087 A 
HETATM    4  C5  UNL     1      25.090   0.104  52.962  1.00  0.00     0.020 A 
HETATM    5 BR1  UNL     1      26.980  -0.201  52.595  1.00  0.00    -0.151 Br
HETATM    6  C6  UNL     1      23.674  -0.029  53.459  1.00  0.00     0.084 C 
HETATM    7  C7  UNL     1      23.220  -1.005  54.225  1.00  0.00    -0.018 C 
HETATM    8  C8  UNL     1      21.829  -0.709  54.433  1.00  0.00     0.013 C 
HETATM    9  C9  UNL     1      20.758   0.040  54.256  1.00  0.00     0.084 C 
HETATM   10  N1  UNL     1      20.529   1.245  53.543  1.00  0.00    -0.381 N 
HETATM   11  C10 UNL     1      19.986   1.991  52.458  1.00  0.00     0.270 C 
HETATM   12  N2  UNL     1      20.282   3.412  52.475  1.00  0.00    -0.267 NA
HETATM   13  C11 UNL     1      20.000   3.988  51.373  1.00  0.00     0.093 C 
HETATM   14  C12 UNL     1      20.734   3.584  50.395  1.00  0.00     0.007 C 
HETATM   15  C13 UNL     1      21.652   2.728  50.769  1.00  0.00     0.014 C 
HETATM   16  C14 UNL     1      22.574   3.114  51.835  1.00  0.00    -0.003 C 
HETATM   17  C15 UNL     1      23.775   3.628  51.592  1.00  0.00    -0.020 C 
HETATM   18  C16 UNL     1      24.745   4.050  50.555  1.00  0.00     0.091 C 
HETATM   19  H10 UNL     1      21.065   1.850  54.243  1.00  0.00     0.160 HD
ENDROOT
BRANCH   1  20
HETATM   20  O1  UNL     1      27.140   3.593  50.072  1.00  0.00    -0.360 OA
HETATM   21  C1  UNL     1      27.148   4.494  48.954  1.00  0.00     0.209 C 
ENDBRANCH   1  20
TORSDOF 1
ENDMDL
MODEL 4
REMARK VINA RESULT:      -7.7      3.460      5.464
REMARK  1 active torsions:
REMARK  status: ('A' for Active; 'I' for Inactive)
REMARK    1  A    between atoms: O1_2  and  C2_3 
ROOT
HETATM    1  C2  UNL     1      25.979  -0.200  53.027  1.00  0.00     0.046 C 
HETATM    2  C3  UNL     1      24.674  -0.275  53.280  1.00  0.00     0.022 C 
HETATM    3  C4  UNL     1      23.262  -0.026  53.384  1.00  0.00     0.087 A 
HETATM    4  C5  UNL     1      22.130   0.631  53.229  1.00  0.00     0.020 A 
HETATM    5 BR1  UNL     1      22.212  -1.099  54.125  1.00  0.00    -0.151 Br
HETATM    6  C6  UNL     1      21.648   1.922  52.620  1.00  0.00     0.084 C 
HETATM    7  C7  UNL     1      20.396   2.341  52.607  1.00  0.00    -0.018 C 
HETATM    8  C8  UNL     1      20.426   3.605  51.923  1.00  0.00     0.013 C 
HETATM    9  C9  UNL     1      21.061   4.575  51.295  1.00  0.00     0.084 C 
HETATM   10  N1  UNL     1      22.425   4.779  50.959  1.00  0.00    -0.381 N 
HETATM   11  C10 UNL     1      23.505   4.845  50.034  1.00  0.00     0.270 C 
HETATM   12  N2  UNL     1      24.802   5.139  50.616  1.00  0.00    -0.267 NA
HETATM   13  C11 UNL     1      25.764   4.940  49.803  1.00  0.00     0.093 C 
HETATM   14  C12 UNL     1      25.901   3.701  49.483  1.00  0.00     0.007 C 
HETATM   15  C13 UNL     1      25.068   2.916  50.122  1.00  0.00     0.014 C 
HETATM   16  C14 UNL     1      25.050   2.959  51.583  1.00  0.00    -0.003 C 
HETATM   17  C15 UNL     1      25.741   2.106  52.332  1.00  0.00    -0.020 C 
HETATM   18  C16 UNL     1      26.668   0.951  52.344  1.00  0.00     0.091 C 
HETATM   19  H10 UNL     1      22.722   4.983  51.967  1.00  0.00     0.160 HD
ENDROOT
BRANCH   1  20
HETATM   20  O1  UNL     1      26.717  -1.276  53.447  1.00  0.00    -0.360 OA
HETATM   21  C1  UNL     1      27.158  -2.305  52.548  1.00  0.00     0.209 C 
ENDBRANCH   1  20
TORSDOF 1
ENDMDL
MODEL 5
REMARK VINA RESULT:      -7.4      2.229      4.623
REMARK  1 active torsions:
REMARK  status: ('A' for Active; 'I' for Inactive)
REMARK    1  A    between atoms: O1_2  and  C2_3 
ROOT
HETATM    1  C2  UNL     1      22.768   4.482  49.897  1.00  0.00     0.046 C 
HETATM    2  C3  UNL     1      24.046   4.111  49.923  1.00  0.00     0.022 C 
HETATM    3  C4  UNL     1      25.301   3.462  50.196  1.00  0.00     0.087 A 
HETATM    4  C5  UNL     1      26.123   2.594  50.749  1.00  0.00     0.020 A 
HETATM    5 BR1  UNL     1      26.735   3.940  49.477  1.00  0.00    -0.151 Br
HETATM    6  C6  UNL     1      26.065   1.445  51.722  1.00  0.00     0.084 C 
HETATM    7  C7  UNL     1      27.097   0.718  52.109  1.00  0.00    -0.018 C 
HETATM    8  C8  UNL     1      26.558  -0.248  53.028  1.00  0.00     0.013 C 
HETATM    9  C9  UNL     1      25.557  -0.791  53.693  1.00  0.00     0.084 C 
HETATM   10  N1  UNL     1      24.169  -0.503  53.754  1.00  0.00    -0.381 N 
HETATM   11  C10 UNL     1      22.803  -0.788  53.469  1.00  0.00     0.270 C 
HETATM   12  N2  UNL     1      21.852   0.194  53.956  1.00  0.00    -0.267 NA
HETATM   13  C11 UNL     1      20.685   0.035  53.467  1.00  0.00     0.093 C 
HETATM   14  C12 UNL     1      20.641   0.243  52.197  1.00  0.00     0.007 C 
HETATM   15  C13 UNL     1      21.790   0.643  51.709  1.00  0.00     0.014 C 
HETATM   16  C14 UNL     1      22.424   1.823  52.292  1.00  0.00    -0.003 C 
HETATM   17  C15 UNL     1      22.281   3.039  51.778  1.00  0.00    -0.020 C 
HETATM   18  C16 UNL     1      21.664   3.859  50.709  1.00  0.00     0.091 C 
HETATM   19  H10 UNL     1      24.302   0.396  54.318  1.00  0.00     0.160 HD
ENDROOT
BRANCH   1  20
HETATM   20  O1  UNL     1      22.480   5.523  49.053  1.00  0.00    -0.360 OA
HETATM   21  C1  UNL     1      22.686   5.444  47.634  1.00  0.00     0.209 C 
ENDBRANCH   1  20
TORSDOF 1
ENDMDL
MODEL 6
REMARK VINA RESULT:      -7.3      3.322      5.731
REMARK  1 active torsions:
REMARK  status: ('A' for Active; 'I' for Inactive)
REMARK    1  A    between atoms: O1_2  and  C2_3 
ROOT
HETATM    1  C2  UNL     1      19.844   0.288  51.774  1.00  0.00     0.046 C 
HETATM    2  C3  UNL     1      20.759  -0.150  52.635  1.00  0.00     0.022 C 
HETATM    3  C4  UNL     1      21.973  -0.411  53.362  1.00  0.00     0.087 A 
HETATM    4  C5  UNL     1      23.252  -0.317  53.661  1.00  0.00     0.020 A 
HETATM    5 BR1  UNL     1      22.028  -1.442  54.679  1.00  0.00    -0.151 Br
HETATM    6  C6  UNL     1      24.478   0.406  53.165  1.00  0.00     0.084 C 
HETATM    7  C7  UNL     1      25.687   0.308  53.686  1.00  0.00    -0.018 C 
HETATM    8  C8  UNL     1      26.516   1.171  52.888  1.00  0.00     0.013 C 
HETATM    9  C9  UNL     1      26.698   2.018  51.895  1.00  0.00     0.084 C 
HETATM   10  N1  UNL     1      25.825   2.566  50.919  1.00  0.00    -0.381 N 
HETATM   11  C10 UNL     1      25.071   3.631  50.349  1.00  0.00     0.270 C 
HETATM   12  N2  UNL     1      24.307   3.284  49.166  1.00  0.00    -0.267 NA
HETATM   13  C11 UNL     1      23.462   4.183  48.843  1.00  0.00     0.093 C 
HETATM   14  C12 UNL     1      22.529   4.330  49.717  1.00  0.00     0.007 C 
HETATM   15  C13 UNL     1      22.618   3.473  50.703  1.00  0.00     0.014 C 
HETATM   16  C14 UNL     1      22.656   2.047  50.387  1.00  0.00    -0.003 C 
HETATM   17  C15 UNL     1      21.571   1.281  50.399  1.00  0.00    -0.020 C 
HETATM   18  C16 UNL     1      20.108   1.225  50.625  1.00  0.00     0.091 C 
HETATM   19  H10 UNL     1      25.741   1.651  50.371  1.00  0.00     0.160 HD
ENDROOT
BRANCH   1  20
HETATM   20  O1  UNL     1      18.573  -0.181  51.984  1.00  0.00    -0.360 OA
HETATM   21  C1  UNL     1      18.259  -1.116  53.027  1.00  0.00     0.209 C 
ENDBRANCH   1  20
TORSDOF 1
ENDMDL
MODEL 7
REMARK VINA RESULT:      -7.3      3.435      5.687
REMARK  1 active torsions:
REMARK  status: ('A' for Active; 'I' for Inactive)
REMARK    1  A    between atoms: O1_2  and  C2_3 
ROOT
HETATM    1  C2  UNL     1      26.358   2.352  51.778  1.00  0.00     0.046 C 
HETATM    2  C3  UNL     1      25.751   1.429  52.519  1.00  0.00     0.022 C 
HETATM    3  C4  UNL     1      24.795   0.548  53.135  1.00  0.00     0.087 A 
HETATM    4  C5  UNL     1      23.616   0.005  53.364  1.00  0.00     0.020 A 
HETATM    5 BR1  UNL     1      25.221  -0.552  54.322  1.00  0.00    -0.151 Br
HETATM    6  C6  UNL     1      22.200   0.129  52.867  1.00  0.00     0.084 C 
HETATM    7  C7  UNL     1      21.173  -0.581  53.297  1.00  0.00    -0.018 C 
HETATM    8  C8  UNL     1      20.045  -0.118  52.535  1.00  0.00     0.013 C 
HETATM    9  C9  UNL     1      19.496   0.658  51.622  1.00  0.00     0.084 C 
HETATM   10  N1  UNL     1      20.018   1.665  50.768  1.00  0.00    -0.381 N 
HETATM   11  C10 UNL     1      20.417   2.165  49.497  1.00  0.00     0.270 C 
HETATM   12  N2  UNL     1      20.956   3.513  49.504  1.00  0.00    -0.267 NA
HETATM   13  C11 UNL     1      21.527   3.821  48.406  1.00  0.00     0.093 C 
HETATM   14  C12 UNL     1      22.585   3.123  48.179  1.00  0.00     0.007 C 
HETATM   15  C13 UNL     1      22.874   2.306  49.162  1.00  0.00     0.014 C 
HETATM   16  C14 UNL     1      23.034   2.859  50.505  1.00  0.00    -0.003 C 
HETATM   17  C15 UNL     1      24.219   3.184  51.009  1.00  0.00    -0.020 C 
HETATM   18  C16 UNL     1      25.680   3.247  50.774  1.00  0.00     0.091 C 
HETATM   19  H10 UNL     1      20.149   2.373  51.559  1.00  0.00     0.160 HD
ENDROOT
BRANCH   1  20
HETATM   20  O1  UNL     1      27.708   2.469  51.982  1.00  0.00    -0.360 OA
HETATM   21  C1  UNL     1      28.331   2.132  53.231  1.00  0.00     0.209 C 
ENDBRANCH   1  20
TORSDOF 1
ENDMDL
MODEL 8
REMARK VINA RESULT:      -7.2      4.151      6.499
REMARK  1 active torsions:
REMARK  status: ('A' for Active; 'I' for Inactive)
REMARK    1  A    between atoms: O1_2  and  C2_3 
ROOT
HETATM    1  C2  UNL     1      24.611   0.836  52.704  1.00  0.00     0.046 C 
HETATM    2  C3  UNL     1      23.555   0.167  53.159  1.00  0.00     0.022 C 
HETATM    3  C4  UNL     1      22.237  -0.362  53.389  1.00  0.00     0.087 A 
HETATM    4  C5  UNL     1      20.942  -0.517  53.203  1.00  0.00     0.020 A 
HETATM    5 BR1  UNL     1      21.917  -1.491  54.582  1.00  0.00    -0.151 Br
HETATM    6  C6  UNL     1      19.861   0.005  52.292  1.00  0.00     0.084 C 
HETATM    7  C7  UNL     1      18.589  -0.347  52.334  1.00  0.00    -0.018 C 
HETATM    8  C8  UNL     1      17.953   0.403  51.285  1.00  0.00     0.013 C 
HETATM    9  C9  UNL     1      17.980   1.270  50.292  1.00  0.00     0.084 C 
HETATM   10  N1  UNL     1      19.019   2.040  49.709  1.00  0.00    -0.381 N 
HETATM   11  C10 UNL     1      19.932   2.347  48.660  1.00  0.00     0.270 C 
HETATM   12  N2  UNL     1      20.814   3.470  48.917  1.00  0.00    -0.267 NA
HETATM   13  C11 UNL     1      21.769   3.550  48.076  1.00  0.00     0.093 C 
HETATM   14  C12 UNL     1      22.587   2.559  48.152  1.00  0.00     0.007 C 
HETATM   15  C13 UNL     1      22.293   1.732  49.126  1.00  0.00     0.014 C 
HETATM   16  C14 UNL     1      22.173   2.264  50.481  1.00  0.00    -0.003 C 
HETATM   17  C15 UNL     1      23.177   2.240  51.351  1.00  0.00    -0.020 C 
HETATM   18  C16 UNL     1      24.586   1.852  51.593  1.00  0.00     0.091 C 
HETATM   19  H10 UNL     1      19.096   2.707  50.542  1.00  0.00     0.160 HD
ENDROOT
BRANCH   1  20
HETATM   20  O1  UNL     1      25.797   0.551  53.330  1.00  0.00    -0.360 OA
HETATM   21  C1  UNL     1      25.859  -0.155  54.578  1.00  0.00     0.209 C 
ENDBRANCH   1  20
TORSDOF 1
ENDMDL
MODEL 9
REMARK VINA RESULT:      -7.2      3.815      6.951
REMARK  1 active torsions:
REMARK  status: ('A' for Active; 'I' for Inactive)
REMARK    1  A    between atoms: O1_2  and  C2_3 
ROOT
HETATM    1  C2  UNL     1      23.230  -0.093  53.436  1.00  0.00     0.046 C 
HETATM    2  C3  UNL     1      24.439   0.274  53.020  1.00  0.00     0.022 C 
HETATM    3  C4  UNL     1      25.552   0.917  52.373  1.00  0.00     0.087 A 
HETATM    4  C5  UNL     1      26.167   1.776  51.586  1.00  0.00     0.020 A 
HETATM    5 BR1  UNL     1      27.136   0.443  52.628  1.00  0.00    -0.151 Br
HETATM    6  C6  UNL     1      25.816   2.915  50.664  1.00  0.00     0.084 C 
HETATM    7  C7  UNL     1      26.682   3.636  49.974  1.00  0.00    -0.018 C 
HETATM    8  C8  UNL     1      25.889   4.593  49.252  1.00  0.00     0.013 C 
HETATM    9  C9  UNL     1      24.733   5.131  48.915  1.00  0.00     0.084 C 
HETATM   10  N1  UNL     1      23.392   4.846  49.281  1.00  0.00    -0.381 N 
HETATM   11  C10 UNL     1      22.176   5.137  49.963  1.00  0.00     0.270 C 
HETATM   12  N2  UNL     1      21.123   4.153  49.798  1.00  0.00    -0.267 NA
HETATM   13  C11 UNL     1      20.159   4.320  50.615  1.00  0.00     0.093 C 
HETATM   14  C12 UNL     1      20.502   4.125  51.841  1.00  0.00     0.007 C 
HETATM   15  C13 UNL     1      21.745   3.729  51.963  1.00  0.00     0.014 C 
HETATM   16  C14 UNL     1      22.174   2.541  51.228  1.00  0.00    -0.003 C 
HETATM   17  C15 UNL     1      22.194   1.330  51.774  1.00  0.00    -0.020 C 
HETATM   18  C16 UNL     1      21.931   0.524  52.989  1.00  0.00     0.091 C 
HETATM   19  H10 UNL     1      23.348   3.941  48.712  1.00  0.00     0.160 HD
ENDROOT
BRANCH   1  20
HETATM   20  O1  UNL     1      23.212  -1.124  54.339  1.00  0.00    -0.360 OA
HETATM   21  C1  UNL     1      21.991  -1.677  54.852  1.00  0.00     0.209 C 
ENDBRANCH   1  20
TORSDOF 1
ENDMDL
