MODEL 1
REMARK VINA RESULT:      -8.3      0.000      0.000
REMARK  9 active torsions:
REMARK  status: ('A' for Active; 'I' for Inactive)
REMARK    1  A    between atoms: N1_2  and  C2_3 
REMARK    2  A    between atoms: N1_2  and  C4_6 
REMARK    3  A    between atoms: C2_3  and  C3_4 
REMARK    4  A    between atoms: C4_6  and  C5_7 
REMARK    5  A    between atoms: C5_7  and  C6_8 
REMARK    6  A    between atoms: C7_9  and  C8_10 
REMARK       I    between atoms: C8_10  and  N2_12 
REMARK    7  A    between atoms: N2_12  and  C9_13 
REMARK    8  A    between atoms: C14_20  and  N5_21 
REMARK    9  A    between atoms: N5_21  and  C15_22 
ROOT
HETATM    1  C9  UNL     1      25.136   3.789  50.792  1.00  0.00     0.036 A 
HETATM    2  C10 UNL     1      24.055   3.376  50.033  1.00  0.00     0.032 A 
HETATM    3  C11 UNL     1      23.311   2.258  50.393  1.00  0.00     0.035 A 
HETATM    4  C12 UNL     1      23.696   1.572  51.545  1.00  0.00     0.072 A 
HETATM    5  N3  UNL     1      23.029   0.488  51.976  1.00  0.00    -0.241 NA
HETATM    6  C13 UNL     1      23.384  -0.174  53.088  1.00  0.00     0.236 A 
HETATM    7  N4  UNL     1      24.444   0.265  53.796  1.00  0.00    -0.224 NA
HETATM    8  C14 UNL     1      25.167   1.347  53.429  1.00  0.00     0.142 A 
HETATM    9  C21 UNL     1      24.776   2.003  52.284  1.00  0.00     0.041 A 
HETATM   10  C22 UNL     1      25.515   3.110  51.931  1.00  0.00     0.047 A 
ENDROOT
BRANCH   1  11
HETATM   11  N2  UNL     1      25.719   4.970  50.208  1.00  0.00    -0.316 N 
HETATM   12  C8  UNL     1      26.803   4.618  49.364  1.00  0.00     0.300 C 
HETATM   13  O1  UNL     1      27.061   3.369  49.269  1.00  0.00    -0.258 OA
HETATM   14  H12 UNL     1      25.542   5.996  50.256  1.00  0.00     0.170 HD
BRANCH  12  15
HETATM   15  C7  UNL     1      27.638   5.515  48.605  1.00  0.00    -0.005 C 
HETATM   16  C6  UNL     1      28.325   6.276  47.971  1.00  0.00    -0.095 C 
BRANCH  16  17
HETATM   17  C5  UNL     1      29.136   7.211  47.190  1.00  0.00     0.114 C 
BRANCH  17  18
HETATM   18  C4  UNL     1      28.841   8.672  47.556  1.00  0.00     0.128 C 
BRANCH  18  19
HETATM   19  N1  UNL     1      29.137   8.847  48.928  1.00  0.00    -0.414 N 
HETATM   20  C1  UNL     1      28.135   9.375  49.771  1.00  0.00     0.143 C 
BRANCH  19  21
HETATM   21  C2  UNL     1      30.493   9.024  49.303  1.00  0.00     0.147 C 
BRANCH  21  22
HETATM   22  C3  UNL     1      30.968  10.330  48.656  1.00  0.00     0.241 C 
HETATM   23  F1  UNL     1      30.821  11.391  49.532  1.00  0.00    -0.254 F 
ENDBRANCH  21  22
ENDBRANCH  19  21
ENDBRANCH  18  19
ENDBRANCH  17  18
ENDBRANCH  16  17
ENDBRANCH  12  15
ENDBRANCH   1  11
BRANCH   8  24
HETATM   24  N5  UNL     1      26.277   1.745  54.246  1.00  0.00    -0.340 N 
HETATM   25  H16 UNL     1      26.530   2.473  54.943  1.00  0.00     0.167 HD
BRANCH  24  26
HETATM   26  C15 UNL     1      27.275   0.760  53.901  1.00  0.00     0.035 A 
HETATM   27  C16 UNL     1      28.528   1.384  53.999  1.00  0.00     0.029 A 
HETATM   28  C17 UNL     1      29.705   0.674  53.724  1.00  0.00     0.004 A 
HETATM   29  C18 UNL     1      29.630  -0.654  53.353  1.00  0.00     0.024 A 
HETATM   30  C19 UNL     1      28.382  -1.229  53.268  1.00  0.00     0.036 A 
HETATM   31 CL1  UNL     1      28.152  -2.915  52.806  1.00  0.00    -0.084 Cl
HETATM   32  C20 UNL     1      27.209  -0.562  53.532  1.00  0.00     0.053 A 
ENDBRANCH  24  26
ENDBRANCH   8  24
TORSDOF 9
ENDMDL
MODEL 2
REMARK VINA RESULT:      -8.2      2.237      2.626
REMARK  9 active torsions:
REMARK  status: ('A' for Active; 'I' for Inactive)
REMARK    1  A    between atoms: N1_2  and  C2_3 
REMARK    2  A    between atoms: N1_2  and  C4_6 
REMARK    3  A    between atoms: C2_3  and  C3_4 
REMARK    4  A    between atoms: C4_6  and  C5_7 
REMARK    5  A    between atoms: C5_7  and  C6_8 
REMARK    6  A    between atoms: C7_9  and  C8_10 
REMARK       I    between atoms: C8_10  and  N2_12 
REMARK    7  A    between atoms: N2_12  and  C9_13 
REMARK    8  A    between atoms: C14_20  and  N5_21 
REMARK    9  A    between atoms: N5_21  and  C15_22 
ROOT
HETATM    1  C9  UNL     1      24.740   4.056  49.908  1.00  0.00     0.036 A 
HETATM    2  C10 UNL     1      23.758   3.638  49.027  1.00  0.00     0.032 A 
HETATM    3  C11 UNL     1      22.892   2.601  49.358  1.00  0.00     0.035 A 
HETATM    4  C12 UNL     1      23.052   2.002  50.607  1.00  0.00     0.072 A 
HETATM    5  N3  UNL     1      22.254   1.003  51.017  1.00  0.00    -0.241 NA
HETATM    6  C13 UNL     1      22.390   0.426  52.221  1.00  0.00     0.236 A 
HETATM    7  N4  UNL     1      23.361   0.866  53.046  1.00  0.00    -0.224 NA
HETATM    8  C14 UNL     1      24.205   1.868  52.708  1.00  0.00     0.142 A 
HETATM    9  C21 UNL     1      24.037   2.436  51.467  1.00  0.00     0.041 A 
HETATM   10  C22 UNL     1      24.897   3.463  51.143  1.00  0.00     0.047 A 
ENDROOT
BRANCH   1  11
HETATM   11  N2  UNL     1      25.486   5.143  49.327  1.00  0.00    -0.316 N 
HETATM   12  C8  UNL     1      26.808   4.728  49.026  1.00  0.00     0.300 C 
HETATM   13  O1  UNL     1      27.095   3.514  49.307  1.00  0.00    -0.258 OA
HETATM   14  H12 UNL     1      25.293   6.138  49.082  1.00  0.00     0.170 HD
BRANCH  12  15
HETATM   15  C7  UNL     1      27.855   5.526  48.439  1.00  0.00    -0.005 C 
HETATM   16  C6  UNL     1      28.743   6.185  47.958  1.00  0.00    -0.095 C 
BRANCH  16  17
HETATM   17  C5  UNL     1      29.834   6.982  47.396  1.00  0.00     0.114 C 
BRANCH  17  18
HETATM   18  C4  UNL     1      30.927   7.272  48.434  1.00  0.00     0.128 C 
BRANCH  18  19
HETATM   19  N1  UNL     1      32.078   6.534  48.072  1.00  0.00    -0.414 N 
HETATM   20  C1  UNL     1      32.682   6.795  46.823  1.00  0.00     0.143 C 
BRANCH  19  21
HETATM   21  C2  UNL     1      32.261   5.253  48.652  1.00  0.00     0.147 C 
BRANCH  21  22
HETATM   22  C3  UNL     1      32.321   4.246  47.498  1.00  0.00     0.241 C 
HETATM   23  F1  UNL     1      31.047   3.859  47.121  1.00  0.00    -0.254 F 
ENDBRANCH  21  22
ENDBRANCH  19  21
ENDBRANCH  18  19
ENDBRANCH  17  18
ENDBRANCH  16  17
ENDBRANCH  12  15
ENDBRANCH   1  11
BRANCH   8  24
HETATM   24  N5  UNL     1      25.206   2.274  53.652  1.00  0.00    -0.340 N 
HETATM   25  H16 UNL     1      25.375   3.015  54.362  1.00  0.00     0.167 HD
BRANCH  24  26
HETATM   26  C15 UNL     1      26.230   1.276  53.457  1.00  0.00     0.035 A 
HETATM   27  C16 UNL     1      27.467   1.893  53.700  1.00  0.00     0.029 A 
HETATM   28  C17 UNL     1      28.662   1.170  53.591  1.00  0.00     0.004 A 
HETATM   29  C18 UNL     1      28.622  -0.165  53.240  1.00  0.00     0.024 A 
HETATM   30  C19 UNL     1      27.390  -0.733  53.010  1.00  0.00     0.036 A 
HETATM   31 CL1  UNL     1      27.206  -2.428  52.556  1.00  0.00    -0.084 Cl
HETATM   32  C20 UNL     1      26.199  -0.054  53.109  1.00  0.00     0.053 A 
ENDBRANCH  24  26
ENDBRANCH   8  24
TORSDOF 9
ENDMDL
MODEL 3
REMARK VINA RESULT:      -7.7      4.320      9.249
REMARK  9 active torsions:
REMARK  status: ('A' for Active; 'I' for Inactive)
REMARK    1  A    between atoms: N1_2  and  C2_3 
REMARK    2  A    between atoms: N1_2  and  C4_6 
REMARK    3  A    between atoms: C2_3  and  C3_4 
REMARK    4  A    between atoms: C4_6  and  C5_7 
REMARK    5  A    between atoms: C5_7  and  C6_8 
REMARK    6  A    between atoms: C7_9  and  C8_10 
REMARK       I    between atoms: C8_10  and  N2_12 
REMARK    7  A    between atoms: N2_12  and  C9_13 
REMARK    8  A    between atoms: C14_20  and  N5_21 
REMARK    9  A    between atoms: N5_21  and  C15_22 
ROOT
HETATM    1  C9  UNL     1      28.355   6.913  48.264  1.00  0.00     0.036 A 
HETATM    2  C10 UNL     1      27.820   7.523  47.142  1.00  0.00     0.032 A 
HETATM    3  C11 UNL     1      28.640   8.116  46.188  1.00  0.00     0.035 A 
HETATM    4  C12 UNL     1      30.017   8.071  46.405  1.00  0.00     0.072 A 
HETATM    5  N3  UNL     1      30.887   8.605  45.531  1.00  0.00    -0.241 NA
HETATM    6  C13 UNL     1      32.214   8.558  45.724  1.00  0.00     0.236 A 
HETATM    7  N4  UNL     1      32.689   7.954  46.831  1.00  0.00    -0.224 NA
HETATM    8  C14 UNL     1      31.881   7.392  47.757  1.00  0.00     0.142 A 
HETATM    9  C21 UNL     1      30.525   7.457  47.529  1.00  0.00     0.041 A 
HETATM   10  C22 UNL     1      29.717   6.870  48.477  1.00  0.00     0.047 A 
ENDROOT
BRANCH   1  11
HETATM   11  N2  UNL     1      27.295   6.376  49.078  1.00  0.00    -0.316 N 
HETATM   12  C8  UNL     1      27.327   4.958  49.055  1.00  0.00     0.300 C 
HETATM   13  O1  UNL     1      28.251   4.427  48.348  1.00  0.00    -0.258 OA
HETATM   14  H12 UNL     1      26.529   6.768  49.666  1.00  0.00     0.170 HD
BRANCH  12  15
HETATM   15  C7  UNL     1      26.432   4.059  49.740  1.00  0.00    -0.005 C 
HETATM   16  C6  UNL     1      25.677   3.320  50.320  1.00  0.00    -0.095 C 
BRANCH  16  17
HETATM   17  C5  UNL     1      24.759   2.440  51.045  1.00  0.00     0.114 C 
BRANCH  17  18
HETATM   18  C4  UNL     1      25.483   1.609  52.113  1.00  0.00     0.128 C 
BRANCH  18  19
HETATM   19  N1  UNL     1      24.592   0.606  52.563  1.00  0.00    -0.414 N 
HETATM   20  C1  UNL     1      23.243   0.955  52.790  1.00  0.00     0.143 C 
BRANCH  19  21
HETATM   21  C2  UNL     1      25.130  -0.496  53.275  1.00  0.00     0.147 C 
BRANCH  21  22
HETATM   22  C3  UNL     1      26.548  -0.724  52.739  1.00  0.00     0.241 C 
HETATM   23  F1  UNL     1      26.607  -1.887  51.992  1.00  0.00    -0.254 F 
ENDBRANCH  21  22
ENDBRANCH  19  21
ENDBRANCH  18  19
ENDBRANCH  17  18
ENDBRANCH  16  17
ENDBRANCH  12  15
ENDBRANCH   1  11
BRANCH   8  24
HETATM   24  N5  UNL     1      32.475   6.765  48.903  1.00  0.00    -0.340 N 
HETATM   25  H16 UNL     1      32.655   6.956  49.909  1.00  0.00     0.167 HD
BRANCH  24  26
HETATM   26  C15 UNL     1      32.914   5.500  48.363  1.00  0.00     0.035 A 
HETATM   27  C16 UNL     1      34.302   5.424  48.557  1.00  0.00     0.029 A 
HETATM   28  C17 UNL     1      35.023   4.299  48.134  1.00  0.00     0.004 A 
HETATM   29  C18 UNL     1      34.360   3.254  47.520  1.00  0.00     0.024 A 
HETATM   30  C19 UNL     1      33.000   3.368  47.350  1.00  0.00     0.036 A 
HETATM   31 CL1  UNL     1      32.039   2.104  46.582  1.00  0.00    -0.084 Cl
HETATM   32  C20 UNL     1      32.262   4.456  47.753  1.00  0.00     0.053 A 
ENDBRANCH  24  26
ENDBRANCH   8  24
TORSDOF 9
ENDMDL
MODEL 4
REMARK VINA RESULT:      -7.6      6.088     10.521
REMARK  9 active torsions:
REMARK  status: ('A' for Active; 'I' for Inactive)
REMARK    1  A    between atoms: N1_2  and  C2_3 
REMARK    2  A    between atoms: N1_2  and  C4_6 
REMARK    3  A    between atoms: C2_3  and  C3_4 
REMARK    4  A    between atoms: C4_6  and  C5_7 
REMARK    5  A    between atoms: C5_7  and  C6_8 
REMARK    6  A    between atoms: C7_9  and  C8_10 
REMARK       I    between atoms: C8_10  and  N2_12 
REMARK    7  A    between atoms: N2_12  and  C9_13 
REMARK    8  A    between atoms: C14_20  and  N5_21 
REMARK    9  A    between atoms: N5_21  and  C15_22 
ROOT
HETATM    1  C9  UNL     1      21.909   2.310  51.386  1.00  0.00     0.036 A 
HETATM    2  C10 UNL     1      21.838   2.736  50.071  1.00  0.00     0.032 A 
HETATM    3  C11 UNL     1      22.985   3.099  49.372  1.00  0.00     0.035 A 
HETATM    4  C12 UNL     1      24.203   3.017  50.046  1.00  0.00     0.072 A 
HETATM    5  N3  UNL     1      25.362   3.335  49.447  1.00  0.00    -0.241 NA
HETATM    6  C13 UNL     1      26.542   3.250  50.082  1.00  0.00     0.236 A 
HETATM    7  N4  UNL     1      26.562   2.830  51.363  1.00  0.00    -0.224 NA
HETATM    8  C14 UNL     1      25.439   2.491  52.035  1.00  0.00     0.142 A 
HETATM    9  C21 UNL     1      24.247   2.590  51.355  1.00  0.00     0.041 A 
HETATM   10  C22 UNL     1      23.114   2.230  52.051  1.00  0.00     0.047 A 
ENDROOT
BRANCH   1  11
HETATM   11  N2  UNL     1      20.589   1.988  51.866  1.00  0.00    -0.316 N 
HETATM   12  C8  UNL     1      20.351   0.595  51.755  1.00  0.00     0.300 C 
HETATM   13  O1  UNL     1      21.307  -0.104  51.273  1.00  0.00    -0.258 OA
HETATM   14  H12 UNL     1      19.787   2.521  52.264  1.00  0.00     0.170 HD
BRANCH  12  15
HETATM   15  C7  UNL     1      19.151  -0.112  52.128  1.00  0.00    -0.005 C 
HETATM   16  C6  UNL     1      18.154  -0.718  52.431  1.00  0.00    -0.095 C 
BRANCH  16  17
HETATM   17  C5  UNL     1      16.947  -1.468  52.778  1.00  0.00     0.114 C 
BRANCH  17  18
HETATM   18  C4  UNL     1      17.270  -2.754  53.551  1.00  0.00     0.128 C 
BRANCH  18  19
HETATM   19  N1  UNL     1      16.426  -3.780  53.065  1.00  0.00    -0.414 N 
HETATM   20  C1  UNL     1      15.146  -3.427  52.583  1.00  0.00     0.143 C 
BRANCH  19  21
HETATM   21  C2  UNL     1      16.619  -5.095  53.557  1.00  0.00     0.147 C 
BRANCH  21  22
HETATM   22  C3  UNL     1      15.388  -5.441  54.402  1.00  0.00     0.241 C 
HETATM   23  F1  UNL     1      15.763  -5.812  55.681  1.00  0.00    -0.254 F 
ENDBRANCH  21  22
ENDBRANCH  19  21
ENDBRANCH  18  19
ENDBRANCH  17  18
ENDBRANCH  16  17
ENDBRANCH  12  15
ENDBRANCH   1  11
BRANCH   8  24
HETATM   24  N5  UNL     1      25.556   2.050  53.395  1.00  0.00    -0.340 N 
HETATM   25  H16 UNL     1      25.188   2.280  54.340  1.00  0.00     0.167 HD
BRANCH  24  26
HETATM   26  C15 UNL     1      26.493   0.957  53.280  1.00  0.00     0.035 A 
HETATM   27  C16 UNL     1      25.769  -0.170  52.863  1.00  0.00     0.029 A 
HETATM   28  C17 UNL     1      26.412  -1.398  52.659  1.00  0.00     0.004 A 
HETATM   29  C18 UNL     1      27.773  -1.500  52.871  1.00  0.00     0.024 A 
HETATM   30  C19 UNL     1      28.446  -0.371  53.280  1.00  0.00     0.036 A 
HETATM   31 CL1  UNL     1      30.184  -0.371  53.583  1.00  0.00    -0.084 Cl
HETATM   32  C20 UNL     1      27.847   0.848  53.489  1.00  0.00     0.053 A 
ENDBRANCH  24  26
ENDBRANCH   8  24
TORSDOF 9
ENDMDL
MODEL 5
REMARK VINA RESULT:      -7.5      3.649      4.684
REMARK  9 active torsions:
REMARK  status: ('A' for Active; 'I' for Inactive)
REMARK    1  A    between atoms: N1_2  and  C2_3 
REMARK    2  A    between atoms: N1_2  and  C4_6 
REMARK    3  A    between atoms: C2_3  and  C3_4 
REMARK    4  A    between atoms: C4_6  and  C5_7 
REMARK    5  A    between atoms: C5_7  and  C6_8 
REMARK    6  A    between atoms: C7_9  and  C8_10 
REMARK       I    between atoms: C8_10  and  N2_12 
REMARK    7  A    between atoms: N2_12  and  C9_13 
REMARK    8  A    between atoms: C14_20  and  N5_21 
REMARK    9  A    between atoms: N5_21  and  C15_22 
ROOT
HETATM    1  C9  UNL     1      25.482   5.950  49.475  1.00  0.00     0.036 A 
HETATM    2  C10 UNL     1      24.581   6.190  48.452  1.00  0.00     0.032 A 
HETATM    3  C11 UNL     1      23.249   5.803  48.562  1.00  0.00     0.035 A 
HETATM    4  C12 UNL     1      22.859   5.167  49.740  1.00  0.00     0.072 A 
HETATM    5  N3  UNL     1      21.592   4.769  49.941  1.00  0.00    -0.241 NA
HETATM    6  C13 UNL     1      21.202   4.165  51.074  1.00  0.00     0.236 A 
HETATM    7  N4  UNL     1      22.115   3.952  52.043  1.00  0.00    -0.224 NA
HETATM    8  C14 UNL     1      23.409   4.322  51.919  1.00  0.00     0.142 A 
HETATM    9  C21 UNL     1      23.775   4.939  50.744  1.00  0.00     0.041 A 
HETATM   10  C22 UNL     1      25.094   5.320  50.639  1.00  0.00     0.047 A 
ENDROOT
BRANCH   1  11
HETATM   11  N2  UNL     1      26.780   6.456  49.111  1.00  0.00    -0.316 N 
HETATM   12  C8  UNL     1      27.627   5.394  48.705  1.00  0.00     0.300 C 
HETATM   13  O1  UNL     1      27.113   4.222  48.729  1.00  0.00    -0.258 OA
HETATM   14  H12 UNL     1      27.236   7.392  49.075  1.00  0.00     0.170 HD
BRANCH  12  15
HETATM   15  C7  UNL     1      28.998   5.494  48.270  1.00  0.00    -0.005 C 
HETATM   16  C6  UNL     1      30.149   5.584  47.922  1.00  0.00    -0.095 C 
BRANCH  16  17
HETATM   17  C5  UNL     1      31.548   5.713  47.516  1.00  0.00     0.114 C 
BRANCH  17  18
HETATM   18  C4  UNL     1      32.443   4.667  48.195  1.00  0.00     0.128 C 
BRANCH  18  19
HETATM   19  N1  UNL     1      32.691   3.633  47.262  1.00  0.00    -0.414 N 
HETATM   20  C1  UNL     1      33.172   2.395  47.741  1.00  0.00     0.143 C 
BRANCH  19  21
HETATM   21  C2  UNL     1      32.984   3.996  45.923  1.00  0.00     0.147 C 
BRANCH  21  22
HETATM   22  C3  UNL     1      34.491   3.791  45.726  1.00  0.00     0.241 C 
HETATM   23  F1  UNL     1      34.972   4.631  44.738  1.00  0.00    -0.254 F 
ENDBRANCH  21  22
ENDBRANCH  19  21
ENDBRANCH  18  19
ENDBRANCH  17  18
ENDBRANCH  16  17
ENDBRANCH  12  15
ENDBRANCH   1  11
BRANCH   8  24
HETATM   24  N5  UNL     1      24.309   4.059  53.004  1.00  0.00    -0.340 N 
HETATM   25  H16 UNL     1      24.828   4.567  53.749  1.00  0.00     0.167 HD
BRANCH  24  26
HETATM   26  C15 UNL     1      24.459   2.624  52.933  1.00  0.00     0.035 A 
HETATM   27  C16 UNL     1      25.796   2.361  52.595  1.00  0.00     0.029 A 
HETATM   28  C17 UNL     1      26.252   1.043  52.453  1.00  0.00     0.004 A 
HETATM   29  C18 UNL     1      25.376  -0.007  52.647  1.00  0.00     0.024 A 
HETATM   30  C19 UNL     1      24.074   0.294  52.977  1.00  0.00     0.036 A 
HETATM   31 CL1  UNL     1      22.861  -0.956  53.252  1.00  0.00    -0.084 Cl
HETATM   32  C20 UNL     1      23.594   1.574  53.125  1.00  0.00     0.053 A 
ENDBRANCH  24  26
ENDBRANCH   8  24
TORSDOF 9
ENDMDL
MODEL 6
REMARK VINA RESULT:      -7.5      5.193      9.338
REMARK  9 active torsions:
REMARK  status: ('A' for Active; 'I' for Inactive)
REMARK    1  A    between atoms: N1_2  and  C2_3 
REMARK    2  A    between atoms: N1_2  and  C4_6 
REMARK    3  A    between atoms: C2_3  and  C3_4 
REMARK    4  A    between atoms: C4_6  and  C5_7 
REMARK    5  A    between atoms: C5_7  and  C6_8 
REMARK    6  A    between atoms: C7_9  and  C8_10 
REMARK       I    between atoms: C8_10  and  N2_12 
REMARK    7  A    between atoms: N2_12  and  C9_13 
REMARK    8  A    between atoms: C14_20  and  N5_21 
REMARK    9  A    between atoms: N5_21  and  C15_22 
ROOT
HETATM    1  C9  UNL     1      21.984   2.330  51.416  1.00  0.00     0.036 A 
HETATM    2  C10 UNL     1      21.889   2.722  50.092  1.00  0.00     0.032 A 
HETATM    3  C11 UNL     1      23.020   3.086  49.369  1.00  0.00     0.035 A 
HETATM    4  C12 UNL     1      24.248   3.040  50.027  1.00  0.00     0.072 A 
HETATM    5  N3  UNL     1      25.394   3.361  49.406  1.00  0.00    -0.241 NA
HETATM    6  C13 UNL     1      26.583   3.311  50.025  1.00  0.00     0.236 A 
HETATM    7  N4  UNL     1      26.627   2.923  51.316  1.00  0.00    -0.224 NA
HETATM    8  C14 UNL     1      25.519   2.583  52.012  1.00  0.00     0.142 A 
HETATM    9  C21 UNL     1      24.317   2.646  51.346  1.00  0.00     0.041 A 
HETATM   10  C22 UNL     1      23.200   2.285  52.066  1.00  0.00     0.047 A 
ENDROOT
BRANCH   1  11
HETATM   11  N2  UNL     1      20.676   1.999  51.922  1.00  0.00    -0.316 N 
HETATM   12  C8  UNL     1      20.506   0.593  51.965  1.00  0.00     0.300 C 
HETATM   13  O1  UNL     1      21.499  -0.108  51.567  1.00  0.00    -0.258 OA
HETATM   14  H12 UNL     1      19.845   2.533  52.255  1.00  0.00     0.170 HD
BRANCH  12  15
HETATM   15  C7  UNL     1      19.337  -0.127  52.407  1.00  0.00    -0.005 C 
HETATM   16  C6  UNL     1      18.365  -0.725  52.793  1.00  0.00    -0.095 C 
BRANCH  16  17
HETATM   17  C5  UNL     1      17.197  -1.458  53.283  1.00  0.00     0.114 C 
BRANCH  17  18
HETATM   18  C4  UNL     1      16.126  -1.627  52.197  1.00  0.00     0.128 C 
BRANCH  18  19
HETATM   19  N1  UNL     1      15.543  -0.360  51.959  1.00  0.00    -0.414 N 
HETATM   20  C1  UNL     1      14.782   0.235  52.988  1.00  0.00     0.143 C 
BRANCH  19  21
HETATM   21  C2  UNL     1      15.262   0.006  50.618  1.00  0.00     0.147 C 
BRANCH  21  22
HETATM   22  C3  UNL     1      16.507   0.721  50.081  1.00  0.00     0.241 C 
HETATM   23  F1  UNL     1      17.413  -0.193  49.573  1.00  0.00    -0.254 F 
ENDBRANCH  21  22
ENDBRANCH  19  21
ENDBRANCH  18  19
ENDBRANCH  17  18
ENDBRANCH  16  17
ENDBRANCH  12  15
ENDBRANCH   1  11
BRANCH   8  24
HETATM   24  N5  UNL     1      25.662   2.177  53.381  1.00  0.00    -0.340 N 
HETATM   25  H16 UNL     1      25.331   2.448  54.329  1.00  0.00     0.167 HD
BRANCH  24  26
HETATM   26  C15 UNL     1      26.554   1.048  53.271  1.00  0.00     0.035 A 
HETATM   27  C16 UNL     1      25.777  -0.064  52.912  1.00  0.00     0.029 A 
HETATM   28  C17 UNL     1      26.369  -1.321  52.726  1.00  0.00     0.004 A 
HETATM   29  C18 UNL     1      27.731  -1.467  52.900  1.00  0.00     0.024 A 
HETATM   30  C19 UNL     1      28.457  -0.352  53.253  1.00  0.00     0.036 A 
HETATM   31 CL1  UNL     1      30.202  -0.407  53.502  1.00  0.00    -0.084 Cl
HETATM   32  C20 UNL     1      27.909   0.894  53.441  1.00  0.00     0.053 A 
ENDBRANCH  24  26
ENDBRANCH   8  24
TORSDOF 9
ENDMDL
MODEL 7
REMARK VINA RESULT:      -7.4      3.979      8.917
REMARK  9 active torsions:
REMARK  status: ('A' for Active; 'I' for Inactive)
REMARK    1  A    between atoms: N1_2  and  C2_3 
REMARK    2  A    between atoms: N1_2  and  C4_6 
REMARK    3  A    between atoms: C2_3  and  C3_4 
REMARK    4  A    between atoms: C4_6  and  C5_7 
REMARK    5  A    between atoms: C5_7  and  C6_8 
REMARK    6  A    between atoms: C7_9  and  C8_10 
REMARK       I    between atoms: C8_10  and  N2_12 
REMARK    7  A    between atoms: N2_12  and  C9_13 
REMARK    8  A    between atoms: C14_20  and  N5_21 
REMARK    9  A    between atoms: N5_21  and  C15_22 
ROOT
HETATM    1  C9  UNL     1      28.405   6.959  48.267  1.00  0.00     0.036 A 
HETATM    2  C10 UNL     1      27.893   7.592  47.147  1.00  0.00     0.032 A 
HETATM    3  C11 UNL     1      28.733   8.191  46.214  1.00  0.00     0.035 A 
HETATM    4  C12 UNL     1      30.106   8.129  46.450  1.00  0.00     0.072 A 
HETATM    5  N3  UNL     1      30.993   8.668  45.598  1.00  0.00    -0.241 NA
HETATM    6  C13 UNL     1      32.316   8.605  45.808  1.00  0.00     0.236 A 
HETATM    7  N4  UNL     1      32.769   7.979  46.913  1.00  0.00    -0.224 NA
HETATM    8  C14 UNL     1      31.942   7.411  47.819  1.00  0.00     0.142 A 
HETATM    9  C21 UNL     1      30.591   7.493  47.572  1.00  0.00     0.041 A 
HETATM   10  C22 UNL     1      29.763   6.899  48.499  1.00  0.00     0.047 A 
ENDROOT
BRANCH   1  11
HETATM   11  N2  UNL     1      27.328   6.419  49.057  1.00  0.00    -0.316 N 
HETATM   12  C8  UNL     1      27.337   5.003  48.998  1.00  0.00     0.300 C 
HETATM   13  O1  UNL     1      28.259   4.474  48.288  1.00  0.00    -0.258 OA
HETATM   14  H12 UNL     1      26.563   6.810  49.647  1.00  0.00     0.170 HD
BRANCH  12  15
HETATM   15  C7  UNL     1      26.420   4.102  49.652  1.00  0.00    -0.005 C 
HETATM   16  C6  UNL     1      25.664   3.335  50.194  1.00  0.00    -0.095 C 
BRANCH  16  17
HETATM   17  C5  UNL     1      24.753   2.386  50.834  1.00  0.00     0.114 C 
BRANCH  17  18
HETATM   18  C4  UNL     1      24.490   2.743  52.303  1.00  0.00     0.128 C 
BRANCH  18  19
HETATM   19  N1  UNL     1      23.106   2.586  52.550  1.00  0.00    -0.414 N 
HETATM   20  C1  UNL     1      22.638   1.326  52.982  1.00  0.00     0.143 C 
BRANCH  19  21
HETATM   21  C2  UNL     1      22.204   3.440  51.867  1.00  0.00     0.147 C 
BRANCH  21  22
HETATM   22  C3  UNL     1      22.441   4.858  52.401  1.00  0.00     0.241 C 
HETATM   23  F1  UNL     1      23.114   5.625  51.467  1.00  0.00    -0.254 F 
ENDBRANCH  21  22
ENDBRANCH  19  21
ENDBRANCH  18  19
ENDBRANCH  17  18
ENDBRANCH  16  17
ENDBRANCH  12  15
ENDBRANCH   1  11
BRANCH   8  24
HETATM   24  N5  UNL     1      32.514   6.761  48.963  1.00  0.00    -0.340 N 
HETATM   25  H16 UNL     1      32.679   6.933  49.975  1.00  0.00     0.167 HD
BRANCH  24  26
HETATM   26  C15 UNL     1      32.954   5.502  48.409  1.00  0.00     0.035 A 
HETATM   27  C16 UNL     1      34.343   5.427  48.597  1.00  0.00     0.029 A 
HETATM   28  C17 UNL     1      35.064   4.308  48.160  1.00  0.00     0.004 A 
HETATM   29  C18 UNL     1      34.402   3.268  47.538  1.00  0.00     0.024 A 
HETATM   30  C19 UNL     1      33.040   3.381  47.373  1.00  0.00     0.036 A 
HETATM   31 CL1  UNL     1      32.080   2.123  46.594  1.00  0.00    -0.084 Cl
HETATM   32  C20 UNL     1      32.302   4.463  47.789  1.00  0.00     0.053 A 
ENDBRANCH  24  26
ENDBRANCH   8  24
TORSDOF 9
ENDMDL
MODEL 8
REMARK VINA RESULT:      -7.4      3.642      4.747
REMARK  9 active torsions:
REMARK  status: ('A' for Active; 'I' for Inactive)
REMARK    1  A    between atoms: N1_2  and  C2_3 
REMARK    2  A    between atoms: N1_2  and  C4_6 
REMARK    3  A    between atoms: C2_3  and  C3_4 
REMARK    4  A    between atoms: C4_6  and  C5_7 
REMARK    5  A    between atoms: C5_7  and  C6_8 
REMARK    6  A    between atoms: C7_9  and  C8_10 
REMARK       I    between atoms: C8_10  and  N2_12 
REMARK    7  A    between atoms: N2_12  and  C9_13 
REMARK    8  A    between atoms: C14_20  and  N5_21 
REMARK    9  A    between atoms: N5_21  and  C15_22 
ROOT
HETATM    1  C9  UNL     1      24.246   3.953  51.257  1.00  0.00     0.036 A 
HETATM    2  C10 UNL     1      23.655   5.163  51.577  1.00  0.00     0.032 A 
HETATM    3  C11 UNL     1      22.298   5.244  51.870  1.00  0.00     0.035 A 
HETATM    4  C12 UNL     1      21.559   4.063  51.829  1.00  0.00     0.072 A 
HETATM    5  N3  UNL     1      20.246   4.043  52.109  1.00  0.00    -0.241 NA
HETATM    6  C13 UNL     1      19.525   2.911  52.083  1.00  0.00     0.236 A 
HETATM    7  N4  UNL     1      20.143   1.755  51.766  1.00  0.00    -0.224 NA
HETATM    8  C14 UNL     1      21.461   1.691  51.471  1.00  0.00     0.142 A 
HETATM    9  C21 UNL     1      22.169   2.870  51.507  1.00  0.00     0.041 A 
HETATM   10  C22 UNL     1      23.513   2.785  51.216  1.00  0.00     0.047 A 
ENDROOT
BRANCH   1  11
HETATM   11  N2  UNL     1      25.652   4.146  51.009  1.00  0.00    -0.316 N 
HETATM   12  C8  UNL     1      25.862   4.579  49.676  1.00  0.00     0.300 C 
HETATM   13  O1  UNL     1      24.814   4.719  48.956  1.00  0.00    -0.258 OA
HETATM   14  H12 UNL     1      26.530   4.046  51.561  1.00  0.00     0.170 HD
BRANCH  12  15
HETATM   15  C7  UNL     1      27.126   4.876  49.049  1.00  0.00    -0.005 C 
HETATM   16  C6  UNL     1      28.175   5.130  48.511  1.00  0.00    -0.095 C 
BRANCH  16  17
HETATM   17  C5  UNL     1      29.436   5.433  47.834  1.00  0.00     0.114 C 
BRANCH  17  18
HETATM   18  C4  UNL     1      30.492   5.980  48.805  1.00  0.00     0.128 C 
BRANCH  18  19
HETATM   19  N1  UNL     1      31.743   5.424  48.447  1.00  0.00    -0.414 N 
HETATM   20  C1  UNL     1      32.917   6.121  48.807  1.00  0.00     0.143 C 
BRANCH  19  21
HETATM   21  C2  UNL     1      31.794   4.556  47.327  1.00  0.00     0.147 C 
BRANCH  21  22
HETATM   22  C3  UNL     1      32.758   3.420  47.688  1.00  0.00     0.241 C 
HETATM   23  F1  UNL     1      33.758   3.308  46.739  1.00  0.00    -0.254 F 
ENDBRANCH  21  22
ENDBRANCH  19  21
ENDBRANCH  18  19
ENDBRANCH  17  18
ENDBRANCH  16  17
ENDBRANCH  12  15
ENDBRANCH   1  11
BRANCH   8  24
HETATM   24  N5  UNL     1      22.035   0.416  51.149  1.00  0.00    -0.340 N 
HETATM   25  H16 UNL     1      22.253  -0.170  50.319  1.00  0.00     0.167 HD
BRANCH  24  26
HETATM   26  C15 UNL     1      22.366  -0.106  52.454  1.00  0.00     0.035 A 
HETATM   27  C16 UNL     1      21.176  -0.573  53.031  1.00  0.00     0.029 A 
HETATM   28  C17 UNL     1      21.176  -1.145  54.310  1.00  0.00     0.004 A 
HETATM   29  C18 UNL     1      22.361  -1.249  55.011  1.00  0.00     0.024 A 
HETATM   30  C19 UNL     1      23.507  -0.778  54.411  1.00  0.00     0.036 A 
HETATM   31 CL1  UNL     1      25.082  -0.854  55.200  1.00  0.00    -0.084 Cl
HETATM   32  C20 UNL     1      23.542  -0.213  53.158  1.00  0.00     0.053 A 
ENDBRANCH  24  26
ENDBRANCH   8  24
TORSDOF 9
ENDMDL
MODEL 9
REMARK VINA RESULT:      -7.1      4.364      5.837
REMARK  9 active torsions:
REMARK  status: ('A' for Active; 'I' for Inactive)
REMARK    1  A    between atoms: N1_2  and  C2_3 
REMARK    2  A    between atoms: N1_2  and  C4_6 
REMARK    3  A    between atoms: C2_3  and  C3_4 
REMARK    4  A    between atoms: C4_6  and  C5_7 
REMARK    5  A    between atoms: C5_7  and  C6_8 
REMARK    6  A    between atoms: C7_9  and  C8_10 
REMARK       I    between atoms: C8_10  and  N2_12 
REMARK    7  A    between atoms: N2_12  and  C9_13 
REMARK    8  A    between atoms: C14_20  and  N5_21 
REMARK    9  A    between atoms: N5_21  and  C15_22 
ROOT
HETATM    1  C9  UNL     1      25.881   6.490  49.567  1.00  0.00     0.036 A 
HETATM    2  C10 UNL     1      25.557   7.621  50.296  1.00  0.00     0.032 A 
HETATM    3  C11 UNL     1      24.246   7.874  50.685  1.00  0.00     0.035 A 
HETATM    4  C12 UNL     1      23.274   6.946  50.313  1.00  0.00     0.072 A 
HETATM    5  N3  UNL     1      21.984   7.100  50.654  1.00  0.00    -0.241 NA
HETATM    6  C13 UNL     1      21.042   6.208  50.311  1.00  0.00     0.236 A 
HETATM    7  N4  UNL     1      21.404   5.121  49.600  1.00  0.00    -0.224 NA
HETATM    8  C14 UNL     1      22.680   4.893  49.218  1.00  0.00     0.142 A 
HETATM    9  C21 UNL     1      23.621   5.827  49.587  1.00  0.00     0.041 A 
HETATM   10  C22 UNL     1      24.918   5.573  49.199  1.00  0.00     0.047 A 
ENDROOT
BRANCH   1  11
HETATM   11  N2  UNL     1      27.297   6.466  49.306  1.00  0.00    -0.316 N 
HETATM   12  C8  UNL     1      27.575   7.036  48.038  1.00  0.00     0.300 C 
HETATM   13  O1  UNL     1      26.564   7.457  47.376  1.00  0.00    -0.258 OA
HETATM   14  H12 UNL     1      28.147   6.138  49.813  1.00  0.00     0.170 HD
BRANCH  12  15
HETATM   15  C7  UNL     1      28.868   7.191  47.420  1.00  0.00    -0.005 C 
HETATM   16  C6  UNL     1      29.947   7.338  46.902  1.00  0.00    -0.095 C 
BRANCH  16  17
HETATM   17  C5  UNL     1      31.246   7.536  46.259  1.00  0.00     0.114 C 
BRANCH  17  18
HETATM   18  C4  UNL     1      32.395   7.543  47.275  1.00  0.00     0.128 C 
BRANCH  18  19
HETATM   19  N1  UNL     1      33.028   6.278  47.227  1.00  0.00    -0.414 N 
HETATM   20  C1  UNL     1      33.479   5.798  45.979  1.00  0.00     0.143 C 
BRANCH  19  21
HETATM   21  C2  UNL     1      32.714   5.334  48.237  1.00  0.00     0.147 C 
BRANCH  21  22
HETATM   22  C3  UNL     1      32.200   4.076  47.528  1.00  0.00     0.241 C 
HETATM   23  F1  UNL     1      30.833   4.149  47.334  1.00  0.00    -0.254 F 
ENDBRANCH  21  22
ENDBRANCH  19  21
ENDBRANCH  18  19
ENDBRANCH  17  18
ENDBRANCH  16  17
ENDBRANCH  12  15
ENDBRANCH   1  11
BRANCH   8  24
HETATM   24  N5  UNL     1      22.974   3.706  48.467  1.00  0.00    -0.340 N 
HETATM   25  H16 UNL     1      23.307   3.425  47.524  1.00  0.00     0.167 HD
BRANCH  24  26
HETATM   26  C15 UNL     1      22.678   2.663  49.421  1.00  0.00     0.035 A 
HETATM   27  C16 UNL     1      21.631   1.895  48.887  1.00  0.00     0.029 A 
HETATM   28  C17 UNL     1      21.119   0.796  49.590  1.00  0.00     0.004 A 
HETATM   29  C18 UNL     1      21.651   0.465  50.820  1.00  0.00     0.024 A 
HETATM   30  C19 UNL     1      22.676   1.243  51.309  1.00  0.00     0.036 A 
HETATM   31 CL1  UNL     1      23.439   0.924  52.866  1.00  0.00    -0.084 Cl
HETATM   32  C20 UNL     1      23.201   2.326  50.646  1.00  0.00     0.053 A 
ENDBRANCH  24  26
ENDBRANCH   8  24
TORSDOF 9
ENDMDL
