MODEL 1
REMARK VINA RESULT:      -7.1      0.000      0.000
REMARK  4 active torsions:
REMARK  status: ('A' for Active; 'I' for Inactive)
REMARK    1  A    between atoms: C2_2  and  C3_3 
REMARK    2  A    between atoms: C11_15  and  O2_16 
REMARK    3  A    between atoms: C13_18  and  O3_19 
REMARK    4  A    between atoms: C15_21  and  O4_22 
ROOT
HETATM    1  C3  UNL     1      23.315  -0.678  54.483  1.00  0.00    -0.051 C 
HETATM    2  C4  UNL     1      24.635  -0.825  54.746  1.00  0.00     0.002 C 
HETATM    3  C5  UNL     1      25.808  -0.480  53.955  1.00  0.00     0.178 C 
HETATM    4  N1  UNL     1      26.633   0.626  54.365  1.00  0.00    -0.279 NA
HETATM    5  C6  UNL     1      27.049   1.470  53.397  1.00  0.00     0.228 C 
HETATM    6  N2  UNL     1      26.777   1.392  52.042  1.00  0.00    -0.237 NA
HETATM    7  C7  UNL     1      25.737   1.581  51.444  1.00  0.00     0.211 C 
HETATM    8  N3  UNL     1      24.491   1.956  52.093  1.00  0.00    -0.337 N 
HETATM    9  C8  UNL     1      23.568   1.131  52.752  1.00  0.00     0.152 A 
HETATM   10  C9  UNL     1      22.878   0.299  53.458  1.00  0.00    -0.018 A 
HETATM   11  O1  UNL     1      22.129   1.013  52.641  1.00  0.00     0.000 OA
HETATM   12  C10 UNL     1      20.956   1.693  52.628  1.00  0.00     0.074 C 
HETATM   13  C11 UNL     1      21.091   3.141  52.283  1.00  0.00     0.082 C 
HETATM   14  C13 UNL     1      22.054   4.002  51.976  1.00  0.00     0.132 C 
HETATM   15  C15 UNL     1      23.503   4.148  51.770  1.00  0.00     0.119 C 
HETATM   16  C17 UNL     1      24.564   3.335  51.810  1.00  0.00     0.132 C 
ENDROOT
BRANCH   1  17
HETATM   17  C2  UNL     1      21.941  -0.903  54.976  1.00  0.00     0.034 C 
HETATM   18  C1  UNL     1      21.324  -2.005  54.067  1.00  0.00     0.010 C 
ENDBRANCH   1  17
BRANCH  13  19
HETATM   19  O2  UNL     1      19.762   3.608  52.337  1.00  0.00    -0.357 OA
HETATM   20  C12 UNL     1      18.759   2.913  51.611  1.00  0.00     0.209 C 
ENDBRANCH  13  19
BRANCH  15  21
HETATM   21  O4  UNL     1      23.985   5.449  51.440  1.00  0.00    -0.352 OA
HETATM   22  C16 UNL     1      24.854   5.511  50.332  1.00  0.00     0.210 C 
ENDBRANCH  15  21
BRANCH  14  23
HETATM   23  O3  UNL     1      21.511   5.298  51.745  1.00  0.00    -0.351 OA
HETATM   24  C14 UNL     1      21.061   5.733  50.493  1.00  0.00     0.210 C 
ENDBRANCH  14  23
TORSDOF 4
ENDMDL
MODEL 2
REMARK VINA RESULT:      -6.7      1.574      4.595
REMARK  4 active torsions:
REMARK  status: ('A' for Active; 'I' for Inactive)
REMARK    1  A    between atoms: C2_2  and  C3_3 
REMARK    2  A    between atoms: C11_15  and  O2_16 
REMARK    3  A    between atoms: C13_18  and  O3_19 
REMARK    4  A    between atoms: C15_21  and  O4_22 
ROOT
HETATM    1  C3  UNL     1      25.786   2.970  51.191  1.00  0.00    -0.051 C 
HETATM    2  C4  UNL     1      26.750   2.020  51.207  1.00  0.00     0.002 C 
HETATM    3  C5  UNL     1      27.036   0.969  52.175  1.00  0.00     0.178 C 
HETATM    4  N1  UNL     1      26.764  -0.401  51.827  1.00  0.00    -0.279 NA
HETATM    5  C6  UNL     1      26.172  -1.164  52.770  1.00  0.00     0.228 C 
HETATM    6  N2  UNL     1      25.797  -0.781  54.046  1.00  0.00    -0.237 NA
HETATM    7  C7  UNL     1      24.903  -0.043  54.407  1.00  0.00     0.211 C 
HETATM    8  N3  UNL     1      23.990   0.623  53.493  1.00  0.00    -0.337 N 
HETATM    9  C8  UNL     1      24.199   1.795  52.751  1.00  0.00     0.152 A 
HETATM   10  C9  UNL     1      24.564   2.786  52.009  1.00  0.00    -0.018 A 
HETATM   11  O1  UNL     1      23.399   2.990  52.588  1.00  0.00     0.000 OA
HETATM   12  C10 UNL     1      22.161   3.468  52.305  1.00  0.00     0.074 C 
HETATM   13  C11 UNL     1      21.058   2.485  52.524  1.00  0.00     0.082 C 
HETATM   14  C13 UNL     1      20.915   1.228  52.928  1.00  0.00     0.132 C 
HETATM   15  C15 UNL     1      21.639   0.036  53.398  1.00  0.00     0.119 C 
HETATM   16  C17 UNL     1      22.915  -0.275  53.647  1.00  0.00     0.132 C 
ENDROOT
BRANCH   1  17
HETATM   17  C2  UNL     1      25.227   4.127  50.462  1.00  0.00     0.034 C 
HETATM   18  C1  UNL     1      24.411   3.544  49.273  1.00  0.00     0.010 C 
ENDBRANCH   1  17
BRANCH  13  19
HETATM   19  O2  UNL     1      19.905   3.211  52.166  1.00  0.00    -0.357 OA
HETATM   20  C12 UNL     1      19.958   4.072  51.038  1.00  0.00     0.209 C 
ENDBRANCH  13  19
BRANCH  15  21
HETATM   21  O4  UNL     1      20.861  -1.124  53.686  1.00  0.00    -0.352 OA
HETATM   22  C16 UNL     1      21.500  -2.102  54.475  1.00  0.00     0.210 C 
ENDBRANCH  15  21
BRANCH  14  23
HETATM   23  O3  UNL     1      19.542   0.853  52.919  1.00  0.00    -0.351 OA
HETATM   24  C14 UNL     1      18.902   0.297  51.807  1.00  0.00     0.210 C 
ENDBRANCH  14  23
TORSDOF 4
ENDMDL
MODEL 3
REMARK VINA RESULT:      -6.6      2.430      6.646
REMARK  4 active torsions:
REMARK  status: ('A' for Active; 'I' for Inactive)
REMARK    1  A    between atoms: C2_2  and  C3_3 
REMARK    2  A    between atoms: C11_15  and  O2_16 
REMARK    3  A    between atoms: C13_18  and  O3_19 
REMARK    4  A    between atoms: C15_21  and  O4_22 
ROOT
HETATM    1  C3  UNL     1      23.272   4.559  50.695  1.00  0.00    -0.051 C 
HETATM    2  C4  UNL     1      21.942   4.704  50.901  1.00  0.00     0.002 C 
HETATM    3  C5  UNL     1      20.878   3.712  50.988  1.00  0.00     0.178 C 
HETATM    4  N1  UNL     1      20.271   3.441  52.264  1.00  0.00    -0.279 NA
HETATM    5  C6  UNL     1      20.050   2.147  52.574  1.00  0.00     0.228 C 
HETATM    6  N2  UNL     1      20.338   1.037  51.798  1.00  0.00    -0.237 NA
HETATM    7  C7  UNL     1      21.411   0.549  51.505  1.00  0.00     0.211 C 
HETATM    8  N3  UNL     1      22.688   1.080  51.954  1.00  0.00    -0.337 N 
HETATM    9  C8  UNL     1      23.418   2.157  51.430  1.00  0.00     0.152 A 
HETATM   10  C9  UNL     1      23.916   3.251  50.959  1.00  0.00    -0.018 A 
HETATM   11  O1  UNL     1      24.809   2.287  51.052  1.00  0.00     0.000 OA
HETATM   12  C10 UNL     1      26.091   2.086  51.447  1.00  0.00     0.074 C 
HETATM   13  C11 UNL     1      26.246   1.077  52.538  1.00  0.00     0.082 C 
HETATM   14  C13 UNL     1      25.474   0.283  53.272  1.00  0.00     0.132 C 
HETATM   15  C15 UNL     1      24.086  -0.136  53.519  1.00  0.00     0.119 C 
HETATM   16  C17 UNL     1      22.888   0.164  53.006  1.00  0.00     0.132 C 
ENDROOT
BRANCH   1  17
HETATM   17  C2  UNL     1      24.563   5.258  50.533  1.00  0.00     0.034 C 
HETATM   18  C1  UNL     1      24.827   5.343  49.002  1.00  0.00     0.010 C 
ENDBRANCH   1  17
BRANCH  13  19
HETATM   19  O2  UNL     1      27.637   1.055  52.760  1.00  0.00    -0.357 OA
HETATM   20  C12 UNL     1      28.279   2.239  53.212  1.00  0.00     0.209 C 
ENDBRANCH  13  19
BRANCH  15  21
HETATM   21  O4  UNL     1      23.872  -1.103  54.545  1.00  0.00    -0.352 OA
HETATM   22  C16 UNL     1      22.545  -1.216  55.006  1.00  0.00     0.210 C 
ENDBRANCH  15  21
BRANCH  14  23
HETATM   23  O3  UNL     1      26.262  -0.475  54.184  1.00  0.00    -0.351 OA
HETATM   24  C14 UNL     1      26.577  -0.041  55.476  1.00  0.00     0.210 C 
ENDBRANCH  14  23
TORSDOF 4
ENDMDL
MODEL 4
REMARK VINA RESULT:      -6.6      2.562      4.627
REMARK  4 active torsions:
REMARK  status: ('A' for Active; 'I' for Inactive)
REMARK    1  A    between atoms: C2_2  and  C3_3 
REMARK    2  A    between atoms: C11_15  and  O2_16 
REMARK    3  A    between atoms: C13_18  and  O3_19 
REMARK    4  A    between atoms: C15_21  and  O4_22 
ROOT
HETATM    1  C3  UNL     1      25.070  -0.318  54.341  1.00  0.00    -0.051 C 
HETATM    2  C4  UNL     1      24.259  -1.211  54.955  1.00  0.00     0.002 C 
HETATM    3  C5  UNL     1      22.831  -1.159  55.243  1.00  0.00     0.178 C 
HETATM    4  N1  UNL     1      21.933  -2.007  54.504  1.00  0.00    -0.279 NA
HETATM    5  C6  UNL     1      20.783  -1.450  54.070  1.00  0.00     0.228 C 
HETATM    6  N2  UNL     1      20.360  -0.145  54.259  1.00  0.00    -0.237 NA
HETATM    7  C7  UNL     1      20.778   0.887  53.776  1.00  0.00     0.211 C 
HETATM    8  N3  UNL     1      21.883   0.946  52.833  1.00  0.00    -0.337 N 
HETATM    9  C8  UNL     1      23.260   0.912  53.100  1.00  0.00     0.152 A 
HETATM   10  C9  UNL     1      24.485   0.717  53.458  1.00  0.00    -0.018 A 
HETATM   11  O1  UNL     1      24.351   1.752  52.654  1.00  0.00     0.000 OA
HETATM   12  C10 UNL     1      24.946   2.320  51.575  1.00  0.00     0.074 C 
HETATM   13  C11 UNL     1      24.058   2.449  50.380  1.00  0.00     0.082 C 
HETATM   14  C13 UNL     1      22.808   2.160  50.038  1.00  0.00     0.132 C 
HETATM   15  C15 UNL     1      21.543   1.582  50.517  1.00  0.00     0.119 C 
HETATM   16  C17 UNL     1      21.102   1.058  51.666  1.00  0.00     0.132 C 
ENDROOT
BRANCH   1  17
HETATM   17  C2  UNL     1      26.454  -0.020  53.916  1.00  0.00     0.034 C 
HETATM   18  C1  UNL     1      26.726  -0.902  52.663  1.00  0.00     0.010 C 
ENDBRANCH   1  17
BRANCH  13  19
HETATM   19  O2  UNL     1      24.896   3.053  49.422  1.00  0.00    -0.357 OA
HETATM   20  C12 UNL     1      26.253   3.305  49.756  1.00  0.00     0.209 C 
ENDBRANCH  13  19
BRANCH  15  21
HETATM   21  O4  UNL     1      20.460   1.530  49.591  1.00  0.00    -0.352 OA
HETATM   22  C16 UNL     1      19.215   1.150  50.132  1.00  0.00     0.210 C 
ENDBRANCH  15  21
BRANCH  14  23
HETATM   23  O3  UNL     1      22.556   2.549  48.692  1.00  0.00    -0.351 OA
HETATM   24  C14 UNL     1      22.148   3.836  48.326  1.00  0.00     0.210 C 
ENDBRANCH  14  23
TORSDOF 4
ENDMDL
MODEL 5
REMARK VINA RESULT:      -6.3      2.466      4.920
REMARK  4 active torsions:
REMARK  status: ('A' for Active; 'I' for Inactive)
REMARK    1  A    between atoms: C2_2  and  C3_3 
REMARK    2  A    between atoms: C11_15  and  O2_16 
REMARK    3  A    between atoms: C13_18  and  O3_19 
REMARK    4  A    between atoms: C15_21  and  O4_22 
ROOT
HETATM    1  C3  UNL     1      21.304  -0.253  52.955  1.00  0.00    -0.051 C 
HETATM    2  C4  UNL     1      20.079  -0.161  52.386  1.00  0.00     0.002 C 
HETATM    3  C5  UNL     1      19.281   1.003  52.024  1.00  0.00     0.178 C 
HETATM    4  N1  UNL     1      19.109   1.333  50.634  1.00  0.00    -0.279 NA
HETATM    5  C6  UNL     1      19.224   2.635  50.296  1.00  0.00     0.228 C 
HETATM    6  N2  UNL     1      19.487   3.700  51.140  1.00  0.00    -0.237 NA
HETATM    7  C7  UNL     1      20.509   3.996  51.726  1.00  0.00     0.211 C 
HETATM    8  N3  UNL     1      21.739   3.227  51.638  1.00  0.00    -0.337 N 
HETATM    9  C8  UNL     1      22.086   2.055  52.327  1.00  0.00     0.152 A 
HETATM   10  C9  UNL     1      22.226   0.907  52.900  1.00  0.00    -0.018 A 
HETATM   11  O1  UNL     1      23.271   1.689  53.073  1.00  0.00     0.000 OA
HETATM   12  C10 UNL     1      24.627   1.639  53.050  1.00  0.00     0.074 C 
HETATM   13  C11 UNL     1      25.259   2.564  52.061  1.00  0.00     0.082 C 
HETATM   14  C13 UNL     1      24.878   3.457  51.155  1.00  0.00     0.132 C 
HETATM   15  C15 UNL     1      23.713   4.112  50.541  1.00  0.00     0.119 C 
HETATM   16  C17 UNL     1      22.386   4.053  50.697  1.00  0.00     0.132 C 
ENDROOT
BRANCH   1  17
HETATM   17  C2  UNL     1      22.350  -1.168  53.456  1.00  0.00     0.034 C 
HETATM   18  C1  UNL     1      22.281  -1.103  55.009  1.00  0.00     0.010 C 
ENDBRANCH   1  17
BRANCH  13  19
HETATM   19  O2  UNL     1      26.637   2.325  52.233  1.00  0.00    -0.357 OA
HETATM   20  C12 UNL     1      27.058   1.452  53.271  1.00  0.00     0.209 C 
ENDBRANCH  13  19
BRANCH  15  21
HETATM   21  O4  UNL     1      23.971   5.065  49.511  1.00  0.00    -0.352 OA
HETATM   22  C16 UNL     1      23.090   5.023  48.411  1.00  0.00     0.210 C 
ENDBRANCH  15  21
BRANCH  14  23
HETATM   23  O3  UNL     1      26.012   4.027  50.509  1.00  0.00    -0.351 OA
HETATM   24  C14 UNL     1      26.617   3.467  49.379  1.00  0.00     0.210 C 
ENDBRANCH  14  23
TORSDOF 4
ENDMDL
MODEL 6
REMARK VINA RESULT:      -6.2      2.562      6.410
REMARK  4 active torsions:
REMARK  status: ('A' for Active; 'I' for Inactive)
REMARK    1  A    between atoms: C2_2  and  C3_3 
REMARK    2  A    between atoms: C11_15  and  O2_16 
REMARK    3  A    between atoms: C13_18  and  O3_19 
REMARK    4  A    between atoms: C15_21  and  O4_22 
ROOT
HETATM    1  C3  UNL     1      21.417   4.948  50.045  1.00  0.00    -0.051 C 
HETATM    2  C4  UNL     1      20.339   4.604  50.789  1.00  0.00     0.002 C 
HETATM    3  C5  UNL     1      19.878   3.302  51.251  1.00  0.00     0.178 C 
HETATM    4  N1  UNL     1      19.988   2.971  52.647  1.00  0.00    -0.279 NA
HETATM    5  C6  UNL     1      20.434   1.734  52.949  1.00  0.00     0.228 C 
HETATM    6  N2  UNL     1      20.796   0.733  52.064  1.00  0.00    -0.237 NA
HETATM    7  C7  UNL     1      21.760   0.655  51.329  1.00  0.00     0.211 C 
HETATM    8  N3  UNL     1      22.792   1.675  51.241  1.00  0.00    -0.337 N 
HETATM    9  C8  UNL     1      22.768   2.880  50.523  1.00  0.00     0.152 A 
HETATM   10  C9  UNL     1      22.567   4.019  49.949  1.00  0.00    -0.018 A 
HETATM   11  O1  UNL     1      23.721   3.480  49.613  1.00  0.00     0.000 OA
HETATM   12  C10 UNL     1      25.021   3.824  49.435  1.00  0.00     0.074 C 
HETATM   13  C11 UNL     1      25.979   3.080  50.308  1.00  0.00     0.082 C 
HETATM   14  C13 UNL     1      25.941   2.145  51.250  1.00  0.00     0.132 C 
HETATM   15  C15 UNL     1      25.051   1.265  52.023  1.00  0.00     0.119 C 
HETATM   16  C17 UNL     1      23.735   1.030  52.066  1.00  0.00     0.132 C 
ENDROOT
BRANCH   1  17
HETATM   17  C2  UNL     1      22.152   6.059  49.405  1.00  0.00     0.034 C 
HETATM   18  C1  UNL     1      21.907   5.921  47.875  1.00  0.00     0.010 C 
ENDBRANCH   1  17
BRANCH  13  19
HETATM   19  O2  UNL     1      27.230   3.610  49.936  1.00  0.00    -0.357 OA
HETATM   20  C12 UNL     1      27.283   4.599  48.918  1.00  0.00     0.209 C 
ENDBRANCH  13  19
BRANCH  15  21
HETATM   21  O4  UNL     1      25.659   0.413  52.991  1.00  0.00    -0.352 OA
HETATM   22  C16 UNL     1      24.779  -0.438  53.690  1.00  0.00     0.210 C 
ENDBRANCH  15  21
BRANCH  14  23
HETATM   23  O3  UNL     1      27.254   1.849  51.714  1.00  0.00    -0.351 OA
HETATM   24  C14 UNL     1      27.769   2.326  52.924  1.00  0.00     0.210 C 
ENDBRANCH  14  23
TORSDOF 4
ENDMDL
MODEL 7
REMARK VINA RESULT:      -5.9      1.900      5.160
REMARK  4 active torsions:
REMARK  status: ('A' for Active; 'I' for Inactive)
REMARK    1  A    between atoms: C2_2  and  C3_3 
REMARK    2  A    between atoms: C11_15  and  O2_16 
REMARK    3  A    between atoms: C13_18  and  O3_19 
REMARK    4  A    between atoms: C15_21  and  O4_22 
ROOT
HETATM    1  C3  UNL     1      24.121   4.404  49.170  1.00  0.00    -0.051 C 
HETATM    2  C4  UNL     1      25.446   4.186  49.335  1.00  0.00     0.002 C 
HETATM    3  C5  UNL     1      26.204   3.763  50.505  1.00  0.00     0.178 C 
HETATM    4  N1  UNL     1      26.760   2.436  50.541  1.00  0.00    -0.279 NA
HETATM    5  C6  UNL     1      26.631   1.750  51.697  1.00  0.00     0.228 C 
HETATM    6  N2  UNL     1      26.025   2.180  52.864  1.00  0.00    -0.237 NA
HETATM    7  C7  UNL     1      24.850   2.368  53.109  1.00  0.00     0.211 C 
HETATM    8  N3  UNL     1      23.783   2.154  52.146  1.00  0.00    -0.337 N 
HETATM    9  C8  UNL     1      23.354   3.005  51.116  1.00  0.00     0.152 A 
HETATM   10  C9  UNL     1      23.155   3.799  50.117  1.00  0.00    -0.018 A 
HETATM   11  O1  UNL     1      22.038   3.470  50.733  1.00  0.00     0.000 OA
HETATM   12  C10 UNL     1      20.765   3.094  50.454  1.00  0.00     0.074 C 
HETATM   13  C11 UNL     1      20.380   1.764  51.016  1.00  0.00     0.082 C 
HETATM   14  C13 UNL     1      20.933   0.794  51.735  1.00  0.00     0.132 C 
HETATM   15  C15 UNL     1      22.163   0.370  52.421  1.00  0.00     0.119 C 
HETATM   16  C17 UNL     1      23.379   0.891  52.621  1.00  0.00     0.132 C 
ENDROOT
BRANCH   1  17
HETATM   17  C2  UNL     1      23.062   4.824  48.228  1.00  0.00     0.034 C 
HETATM   18  C1  UNL     1      22.833   6.342  48.476  1.00  0.00     0.010 C 
ENDBRANCH   1  17
BRANCH  13  19
HETATM   19  O2  UNL     1      19.044   1.611  50.595  1.00  0.00    -0.357 OA
HETATM   20  C12 UNL     1      18.646   2.179  49.356  1.00  0.00     0.209 C 
ENDBRANCH  13  19
BRANCH  15  21
HETATM   21  O4  UNL     1      22.143  -0.903  53.064  1.00  0.00    -0.352 OA
HETATM   22  C16 UNL     1      22.604  -0.918  54.396  1.00  0.00     0.210 C 
ENDBRANCH  15  21
BRANCH  14  23
HETATM   23  O3  UNL     1      20.002  -0.262  51.949  1.00  0.00    -0.351 OA
HETATM   24  C14 UNL     1      19.134  -0.314  53.045  1.00  0.00     0.210 C 
ENDBRANCH  14  23
TORSDOF 4
ENDMDL
MODEL 8
REMARK VINA RESULT:      -5.9      8.416     11.720
REMARK  4 active torsions:
REMARK  status: ('A' for Active; 'I' for Inactive)
REMARK    1  A    between atoms: C2_2  and  C3_3 
REMARK    2  A    between atoms: C11_15  and  O2_16 
REMARK    3  A    between atoms: C13_18  and  O3_19 
REMARK    4  A    between atoms: C15_21  and  O4_22 
ROOT
HETATM    1  C3  UNL     1      28.052   6.206  48.386  1.00  0.00    -0.051 C 
HETATM    2  C4  UNL     1      27.411   7.384  48.207  1.00  0.00     0.002 C 
HETATM    3  C5  UNL     1      27.923   8.746  48.129  1.00  0.00     0.178 C 
HETATM    4  N1  UNL     1      27.919   9.428  46.862  1.00  0.00    -0.279 NA
HETATM    5  C6  UNL     1      29.028  10.128  46.541  1.00  0.00     0.228 C 
HETATM    6  N2  UNL     1      30.178  10.271  47.298  1.00  0.00    -0.237 NA
HETATM    7  C7  UNL     1      31.042   9.460  47.563  1.00  0.00     0.211 C 
HETATM    8  N3  UNL     1      31.026   8.083  47.095  1.00  0.00    -0.337 N 
HETATM    9  C8  UNL     1      30.317   6.992  47.618  1.00  0.00     0.152 A 
HETATM   10  C9  UNL     1      29.502   6.110  48.093  1.00  0.00    -0.018 A 
HETATM   11  O1  UNL     1      30.731   5.651  47.970  1.00  0.00     0.000 OA
HETATM   12  C10 UNL     1      31.394   4.546  47.547  1.00  0.00     0.074 C 
HETATM   13  C11 UNL     1      32.366   4.800  46.441  1.00  0.00     0.082 C 
HETATM   14  C13 UNL     1      32.794   5.825  45.713  1.00  0.00     0.132 C 
HETATM   15  C15 UNL     1      32.651   7.272  45.488  1.00  0.00     0.119 C 
HETATM   16  C17 UNL     1      31.929   8.260  46.028  1.00  0.00     0.132 C 
ENDROOT
BRANCH   1  17
HETATM   17  C2  UNL     1      27.899   4.744  48.530  1.00  0.00     0.034 C 
HETATM   18  C1  UNL     1      26.554   4.517  49.278  1.00  0.00     0.010 C 
ENDBRANCH   1  17
BRANCH  13  19
HETATM   19  O2  UNL     1      32.909   3.524  46.191  1.00  0.00    -0.357 OA
HETATM   20  C12 UNL     1      33.471   2.793  47.271  1.00  0.00     0.209 C 
ENDBRANCH  13  19
BRANCH  15  21
HETATM   21  O4  UNL     1      33.445   7.851  44.455  1.00  0.00    -0.352 OA
HETATM   22  C16 UNL     1      34.245   8.944  44.844  1.00  0.00     0.210 C 
ENDBRANCH  15  21
BRANCH  14  23
HETATM   23  O3  UNL     1      33.777   5.396  44.775  1.00  0.00    -0.351 OA
HETATM   24  C14 UNL     1      33.464   4.828  43.536  1.00  0.00     0.210 C 
ENDBRANCH  14  23
TORSDOF 4
ENDMDL
MODEL 9
REMARK VINA RESULT:      -5.8      2.538      4.832
REMARK  4 active torsions:
REMARK  status: ('A' for Active; 'I' for Inactive)
REMARK    1  A    between atoms: C2_2  and  C3_3 
REMARK    2  A    between atoms: C11_15  and  O2_16 
REMARK    3  A    between atoms: C13_18  and  O3_19 
REMARK    4  A    between atoms: C15_21  and  O4_22 
ROOT
HETATM    1  C3  UNL     1      24.661   1.041  52.644  1.00  0.00    -0.051 C 
HETATM    2  C4  UNL     1      23.766   0.114  53.057  1.00  0.00     0.002 C 
HETATM    3  C5  UNL     1      22.360   0.240  53.418  1.00  0.00     0.178 C 
HETATM    4  N1  UNL     1      21.357  -0.296  52.537  1.00  0.00    -0.279 NA
HETATM    5  C6  UNL     1      20.268   0.469  52.311  1.00  0.00     0.228 C 
HETATM    6  N2  UNL     1      20.000   1.722  52.836  1.00  0.00    -0.237 NA
HETATM    7  C7  UNL     1      20.522   2.793  52.603  1.00  0.00     0.211 C 
HETATM    8  N3  UNL     1      21.607   2.970  51.651  1.00  0.00    -0.337 N 
HETATM    9  C8  UNL     1      22.976   2.726  51.834  1.00  0.00     0.152 A 
HETATM   10  C9  UNL     1      24.178   2.321  52.073  1.00  0.00    -0.018 A 
HETATM   11  O1  UNL     1      24.146   3.533  51.557  1.00  0.00     0.000 OA
HETATM   12  C10 UNL     1      24.779   4.287  50.625  1.00  0.00     0.074 C 
HETATM   13  C11 UNL     1      23.887   4.803  49.543  1.00  0.00     0.082 C 
HETATM   14  C13 UNL     1      22.605   4.742  49.202  1.00  0.00     0.132 C 
HETATM   15  C15 UNL     1      21.293   4.199  49.584  1.00  0.00     0.119 C 
HETATM   16  C17 UNL     1      20.819   3.452  50.588  1.00  0.00     0.132 C 
ENDROOT
BRANCH   1  17
HETATM   17  C2  UNL     1      26.060   1.290  52.239  1.00  0.00     0.034 C 
HETATM   18  C1  UNL     1      26.692  -0.105  51.968  1.00  0.00     0.010 C 
ENDBRANCH   1  17
BRANCH  13  19
HETATM   19  O2  UNL     1      24.767   5.538  48.724  1.00  0.00    -0.357 OA
HETATM   20  C12 UNL     1      26.165   5.442  48.958  1.00  0.00     0.209 C 
ENDBRANCH  13  19
BRANCH  15  21
HETATM   21  O4  UNL     1      20.192   4.494  48.727  1.00  0.00    -0.352 OA
HETATM   22  C16 UNL     1      19.348   3.406  48.425  1.00  0.00     0.210 C 
ENDBRANCH  15  21
BRANCH  14  23
HETATM   23  O3  UNL     1      22.371   5.481  48.007  1.00  0.00    -0.351 OA
HETATM   24  C14 UNL     1      22.327   4.898  46.736  1.00  0.00     0.210 C 
ENDBRANCH  14  23
TORSDOF 4
ENDMDL
