MODEL 1
REMARK VINA RESULT:      -8.2      0.000      0.000
REMARK  4 active torsions:
REMARK  status: ('A' for Active; 'I' for Inactive)
REMARK    1  A    between atoms: O1_2  and  C2_3 
REMARK    2  A    between atoms: C5_6  and  C6_7 
REMARK    3  A    between atoms: N2_9  and  C7_10 
REMARK    4  A    between atoms: C10_15  and  C11_16 
ROOT
HETATM    1  C6  UNL     1      24.854   2.859  51.660  1.00  0.00     0.067 C 
HETATM    2  N1  UNL     1      24.020   1.932  51.414  1.00  0.00    -0.175 NA
HETATM    3  N2  UNL     1      23.669   1.228  52.565  1.00  0.00    -0.252 N 
HETATM    4  C10 UNL     1      24.732   1.478  53.519  1.00  0.00     0.150 C 
HETATM    5  C17 UNL     1      25.169   2.870  53.112  1.00  0.00     0.094 C 
ENDROOT
BRANCH   1   6
HETATM    6  C5  UNL     1      25.433   3.787  50.693  1.00  0.00    -0.010 A 
HETATM    7  C4  UNL     1      26.568   3.459  49.980  1.00  0.00     0.016 A 
HETATM    8  C3  UNL     1      27.129   4.328  49.060  1.00  0.00     0.037 A 
HETATM    9  C2  UNL     1      26.553   5.581  48.824  1.00  0.00     0.068 A 
HETATM   10  C19 UNL     1      25.417   5.917  49.535  1.00  0.00     0.037 A 
HETATM   11  C18 UNL     1      24.897   5.020  50.438  1.00  0.00     0.016 A 
BRANCH   9  12
HETATM   12  O1  UNL     1      27.083   6.485  47.910  1.00  0.00    -0.356 OA
HETATM   13  C1  UNL     1      28.414   6.913  48.009  1.00  0.00     0.210 C 
ENDBRANCH   9  12
ENDBRANCH   1   6
BRANCH   3  14
HETATM   14  C7  UNL     1      22.481   0.427  52.734  1.00  0.00     0.114 C 
HETATM   15  C8  UNL     1      21.380   0.713  52.016  1.00  0.00     0.174 C 
HETATM   16  O2  UNL     1      20.231  -0.015  52.139  1.00  0.00    -0.350 OA
HETATM   17  C9  UNL     1      20.123  -0.688  53.383  1.00  0.00     0.255 C 
HETATM   18  S1  UNL     1      21.898  -0.988  53.686  1.00  0.00    -0.082 SA
ENDBRANCH   3  14
BRANCH   4  19
HETATM   19  C11 UNL     1      25.843   0.506  53.411  1.00  0.00    -0.033 A 
HETATM   20  C12 UNL     1      25.645  -0.702  52.785  1.00  0.00     0.011 A 
HETATM   21  C13 UNL     1      26.716  -1.579  52.708  1.00  0.00     0.024 A 
HETATM   22  C14 UNL     1      27.963  -1.265  53.244  1.00  0.00     0.034 A 
HETATM   23 CL1  UNL     1      29.343  -2.322  53.181  1.00  0.00    -0.084 Cl
HETATM   24  C15 UNL     1      28.161  -0.036  53.881  1.00  0.00     0.024 A 
HETATM   25  C16 UNL     1      27.073   0.840  53.951  1.00  0.00     0.011 A 
ENDBRANCH   4  19
TORSDOF 4
ENDMDL
MODEL 2
REMARK VINA RESULT:      -8.0      4.262      6.609
REMARK  4 active torsions:
REMARK  status: ('A' for Active; 'I' for Inactive)
REMARK    1  A    between atoms: O1_2  and  C2_3 
REMARK    2  A    between atoms: C5_6  and  C6_7 
REMARK    3  A    between atoms: N2_9  and  C7_10 
REMARK    4  A    between atoms: C10_15  and  C11_16 
ROOT
HETATM    1  C6  UNL     1      23.563   1.487  51.911  1.00  0.00     0.067 C 
HETATM    2  N1  UNL     1      23.169   1.385  50.708  1.00  0.00    -0.175 NA
HETATM    3  N2  UNL     1      22.008   2.120  50.475  1.00  0.00    -0.252 N 
HETATM    4  C10 UNL     1      21.407   2.329  51.779  1.00  0.00     0.150 C 
HETATM    5  C17 UNL     1      22.635   2.370  52.664  1.00  0.00     0.094 C 
ENDROOT
BRANCH   1   6
HETATM    6  C5  UNL     1      24.740   0.851  52.498  1.00  0.00    -0.010 A 
HETATM    7  C4  UNL     1      24.627  -0.006  53.573  1.00  0.00     0.016 A 
HETATM    8  C3  UNL     1      25.732  -0.616  54.141  1.00  0.00     0.037 A 
HETATM    9  C2  UNL     1      27.014  -0.377  53.633  1.00  0.00     0.068 A 
HETATM   10  C19 UNL     1      27.135   0.481  52.557  1.00  0.00     0.037 A 
HETATM   11  C18 UNL     1      26.007   1.063  52.027  1.00  0.00     0.016 A 
BRANCH   9  12
HETATM   12  O1  UNL     1      28.151  -0.968  54.171  1.00  0.00    -0.356 OA
HETATM   13  C1  UNL     1      29.432  -0.551  53.781  1.00  0.00     0.210 C 
ENDBRANCH   9  12
ENDBRANCH   1   6
BRANCH   3  14
HETATM   14  C7  UNL     1      21.535   2.566  49.187  1.00  0.00     0.114 C 
HETATM   15  C8  UNL     1      22.364   2.530  48.128  1.00  0.00     0.174 C 
HETATM   16  O2  UNL     1      21.964   2.940  46.887  1.00  0.00    -0.350 OA
HETATM   17  C9  UNL     1      20.879   3.851  46.920  1.00  0.00     0.255 C 
HETATM   18  S1  UNL     1      20.046   3.230  48.421  1.00  0.00    -0.082 SA
ENDBRANCH   3  14
BRANCH   4  19
HETATM   19  C11 UNL     1      20.489   1.236  52.171  1.00  0.00    -0.033 A 
HETATM   20  C12 UNL     1      19.384   0.953  51.403  1.00  0.00     0.011 A 
HETATM   21  C13 UNL     1      18.555  -0.080  51.811  1.00  0.00     0.024 A 
HETATM   22  C14 UNL     1      18.815  -0.821  52.962  1.00  0.00     0.034 A 
HETATM   23 CL1  UNL     1      17.814  -2.126  53.526  1.00  0.00    -0.084 Cl
HETATM   24  C15 UNL     1      19.940  -0.530  53.741  1.00  0.00     0.024 A 
HETATM   25  C16 UNL     1      20.768   0.513  53.318  1.00  0.00     0.011 A 
ENDBRANCH   4  19
TORSDOF 4
ENDMDL
MODEL 3
REMARK VINA RESULT:      -7.9      3.590      7.362
REMARK  4 active torsions:
REMARK  status: ('A' for Active; 'I' for Inactive)
REMARK    1  A    between atoms: O1_2  and  C2_3 
REMARK    2  A    between atoms: C5_6  and  C6_7 
REMARK    3  A    between atoms: N2_9  and  C7_10 
REMARK    4  A    between atoms: C10_15  and  C11_16 
ROOT
HETATM    1  C6  UNL     1      23.691  -0.076  53.466  1.00  0.00     0.067 C 
HETATM    2  N1  UNL     1      24.613  -0.754  52.916  1.00  0.00    -0.175 NA
HETATM    3  N2  UNL     1      25.876  -0.222  53.172  1.00  0.00    -0.252 N 
HETATM    4  C10 UNL     1      25.650   1.160  53.547  1.00  0.00     0.150 C 
HETATM    5  C17 UNL     1      24.288   1.067  54.203  1.00  0.00     0.094 C 
ENDROOT
BRANCH   1   6
HETATM    6  C5  UNL     1      22.257  -0.347  53.406  1.00  0.00    -0.010 A 
HETATM    7  C4  UNL     1      21.678  -1.310  54.206  1.00  0.00     0.016 A 
HETATM    8  C3  UNL     1      20.321  -1.579  54.160  1.00  0.00     0.037 A 
HETATM    9  C2  UNL     1      19.486  -0.872  53.288  1.00  0.00     0.068 A 
HETATM   10  C19 UNL     1      20.059   0.094  52.483  1.00  0.00     0.037 A 
HETATM   11  C18 UNL     1      21.413   0.325  52.564  1.00  0.00     0.016 A 
BRANCH   9  12
HETATM   12  O1  UNL     1      18.118  -1.108  53.208  1.00  0.00    -0.356 OA
HETATM   13  C1  UNL     1      17.594  -2.386  53.448  1.00  0.00     0.210 C 
ENDBRANCH   9  12
ENDBRANCH   1   6
BRANCH   3  14
HETATM   14  C7  UNL     1      27.128  -0.933  53.073  1.00  0.00     0.114 C 
HETATM   15  C8  UNL     1      27.135  -2.204  52.632  1.00  0.00     0.174 C 
HETATM   16  O2  UNL     1      28.293  -2.920  52.521  1.00  0.00    -0.350 OA
HETATM   17  C9  UNL     1      29.331  -2.445  53.362  1.00  0.00     0.255 C 
HETATM   18  S1  UNL     1      28.885  -0.675  53.372  1.00  0.00    -0.082 SA
ENDBRANCH   3  14
BRANCH   4  19
HETATM   19  C11 UNL     1      25.633   2.078  52.386  1.00  0.00    -0.033 A 
HETATM   20  C12 UNL     1      26.597   1.974  51.410  1.00  0.00     0.011 A 
HETATM   21  C13 UNL     1      26.539   2.854  50.341  1.00  0.00     0.024 A 
HETATM   22  C14 UNL     1      25.543   3.824  50.240  1.00  0.00     0.034 A 
HETATM   23 CL1  UNL     1      25.417   4.956  48.926  1.00  0.00    -0.084 Cl
HETATM   24  C15 UNL     1      24.565   3.927  51.235  1.00  0.00     0.024 A 
HETATM   25  C16 UNL     1      24.635   3.032  52.307  1.00  0.00     0.011 A 
ENDBRANCH   4  19
TORSDOF 4
ENDMDL
MODEL 4
REMARK VINA RESULT:      -7.9      3.767      6.401
REMARK  4 active torsions:
REMARK  status: ('A' for Active; 'I' for Inactive)
REMARK    1  A    between atoms: O1_2  and  C2_3 
REMARK    2  A    between atoms: C5_6  and  C6_7 
REMARK    3  A    between atoms: N2_9  and  C7_10 
REMARK    4  A    between atoms: C10_15  and  C11_16 
ROOT
HETATM    1  C6  UNL     1      24.619   2.228  51.500  1.00  0.00     0.067 C 
HETATM    2  N1  UNL     1      23.590   2.776  52.003  1.00  0.00    -0.175 NA
HETATM    3  N2  UNL     1      22.813   3.414  51.037  1.00  0.00    -0.252 N 
HETATM    4  C10 UNL     1      23.697   3.641  49.910  1.00  0.00     0.150 C 
HETATM    5  C17 UNL     1      24.637   2.461  50.033  1.00  0.00     0.094 C 
ENDROOT
BRANCH   1   6
HETATM    6  C5  UNL     1      25.646   1.479  52.219  1.00  0.00    -0.010 A 
HETATM    7  C4  UNL     1      25.385   0.226  52.735  1.00  0.00     0.016 A 
HETATM    8  C3  UNL     1      26.347  -0.497  53.419  1.00  0.00     0.037 A 
HETATM    9  C2  UNL     1      27.629   0.031  53.610  1.00  0.00     0.068 A 
HETATM   10  C19 UNL     1      27.897   1.285  53.098  1.00  0.00     0.037 A 
HETATM   11  C18 UNL     1      26.908   1.965  52.425  1.00  0.00     0.016 A 
BRANCH   9  12
HETATM   12  O1  UNL     1      28.626  -0.659  54.291  1.00  0.00    -0.356 OA
HETATM   13  C1  UNL     1      29.766  -1.124  53.621  1.00  0.00     0.210 C 
ENDBRANCH   9  12
ENDBRANCH   1   6
BRANCH   3  14
HETATM   14  C7  UNL     1      21.418   3.759  51.168  1.00  0.00     0.114 C 
HETATM   15  C8  UNL     1      20.683   3.190  52.141  1.00  0.00     0.174 C 
HETATM   16  O2  UNL     1      19.359   3.483  52.307  1.00  0.00    -0.350 OA
HETATM   17  C9  UNL     1      18.739   3.968  51.128  1.00  0.00     0.255 C 
HETATM   18  S1  UNL     1      20.180   4.809  50.388  1.00  0.00    -0.082 SA
ENDBRANCH   3  14
BRANCH   4  19
HETATM   19  C11 UNL     1      24.424   4.928  49.999  1.00  0.00    -0.033 A 
HETATM   20  C12 UNL     1      23.964   5.925  50.827  1.00  0.00     0.011 A 
HETATM   21  C13 UNL     1      24.679   7.111  50.877  1.00  0.00     0.024 A 
HETATM   22  C14 UNL     1      25.831   7.308  50.117  1.00  0.00     0.034 A 
HETATM   23 CL1  UNL     1      26.770   8.772  50.135  1.00  0.00    -0.084 Cl
HETATM   24  C15 UNL     1      26.295   6.292  49.275  1.00  0.00     0.024 A 
HETATM   25  C16 UNL     1      25.565   5.100  49.235  1.00  0.00     0.011 A 
ENDBRANCH   4  19
TORSDOF 4
ENDMDL
MODEL 5
REMARK VINA RESULT:      -7.8      1.551      1.953
REMARK  4 active torsions:
REMARK  status: ('A' for Active; 'I' for Inactive)
REMARK    1  A    between atoms: O1_2  and  C2_3 
REMARK    2  A    between atoms: C5_6  and  C6_7 
REMARK    3  A    between atoms: N2_9  and  C7_10 
REMARK    4  A    between atoms: C10_15  and  C11_16 
ROOT
HETATM    1  C6  UNL     1      24.470   3.460  50.740  1.00  0.00     0.067 C 
HETATM    2  N1  UNL     1      23.611   2.661  50.254  1.00  0.00    -0.175 NA
HETATM    3  N2  UNL     1      22.880   2.013  51.248  1.00  0.00    -0.252 N 
HETATM    4  C10 UNL     1      23.683   2.109  52.452  1.00  0.00     0.150 C 
HETATM    5  C17 UNL     1      24.396   3.426  52.224  1.00  0.00     0.094 C 
ENDROOT
BRANCH   1   6
HETATM    6  C5  UNL     1      25.402   4.298  49.990  1.00  0.00    -0.010 A 
HETATM    7  C4  UNL     1      25.114   5.619  49.718  1.00  0.00     0.016 A 
HETATM    8  C3  UNL     1      25.986   6.425  49.008  1.00  0.00     0.037 A 
HETATM    9  C2  UNL     1      27.203   5.916  48.539  1.00  0.00     0.068 A 
HETATM   10  C19 UNL     1      27.498   4.593  48.808  1.00  0.00     0.037 A 
HETATM   11  C18 UNL     1      26.598   3.832  49.517  1.00  0.00     0.016 A 
BRANCH   9  12
HETATM   12  O1  UNL     1      28.109   6.690  47.822  1.00  0.00    -0.356 OA
HETATM   13  C1  UNL     1      29.478   6.389  47.832  1.00  0.00     0.210 C 
ENDBRANCH   9  12
ENDBRANCH   1   6
BRANCH   3  14
HETATM   14  C7  UNL     1      21.591   1.387  51.077  1.00  0.00     0.114 C 
HETATM   15  C8  UNL     1      20.949   1.505  49.901  1.00  0.00     0.174 C 
HETATM   16  O2  UNL     1      19.727   0.932  49.688  1.00  0.00    -0.350 OA
HETATM   17  C9  UNL     1      19.001   0.695  50.883  1.00  0.00     0.255 C 
HETATM   18  S1  UNL     1      20.411   0.388  52.001  1.00  0.00    -0.082 SA
ENDBRANCH   3  14
BRANCH   4  19
HETATM   19  C11 UNL     1      24.640   0.990  52.597  1.00  0.00    -0.033 A 
HETATM   20  C12 UNL     1      24.291  -0.129  53.316  1.00  0.00     0.011 A 
HETATM   21  C13 UNL     1      25.221  -1.151  53.423  1.00  0.00     0.024 A 
HETATM   22  C14 UNL     1      26.478  -1.067  52.828  1.00  0.00     0.034 A 
HETATM   23 CL1  UNL     1      27.687  -2.313  52.927  1.00  0.00    -0.084 Cl
HETATM   24  C15 UNL     1      26.830   0.073  52.098  1.00  0.00     0.024 A 
HETATM   25  C16 UNL     1      25.883   1.096  51.998  1.00  0.00     0.011 A 
ENDBRANCH   4  19
TORSDOF 4
ENDMDL
MODEL 6
REMARK VINA RESULT:      -7.7      4.174      7.161
REMARK  4 active torsions:
REMARK  status: ('A' for Active; 'I' for Inactive)
REMARK    1  A    between atoms: O1_2  and  C2_3 
REMARK    2  A    between atoms: C5_6  and  C6_7 
REMARK    3  A    between atoms: N2_9  and  C7_10 
REMARK    4  A    between atoms: C10_15  and  C11_16 
ROOT
HETATM    1  C6  UNL     1      25.006   3.582  50.898  1.00  0.00     0.067 C 
HETATM    2  N1  UNL     1      24.497   4.708  51.193  1.00  0.00    -0.175 NA
HETATM    3  N2  UNL     1      24.044   5.388  50.063  1.00  0.00    -0.252 N 
HETATM    4  C10 UNL     1      24.750   4.799  48.941  1.00  0.00     0.150 C 
HETATM    5  C17 UNL     1      24.939   3.377  49.428  1.00  0.00     0.094 C 
ENDROOT
BRANCH   1   6
HETATM    6  C5  UNL     1      25.576   2.614  51.831  1.00  0.00    -0.010 A 
HETATM    7  C4  UNL     1      24.930   2.290  53.007  1.00  0.00     0.016 A 
HETATM    8  C3  UNL     1      25.458   1.375  53.901  1.00  0.00     0.037 A 
HETATM    9  C2  UNL     1      26.678   0.744  53.635  1.00  0.00     0.068 A 
HETATM   10  C19 UNL     1      27.331   1.064  52.460  1.00  0.00     0.037 A 
HETATM   11  C18 UNL     1      26.766   1.980  51.603  1.00  0.00     0.016 A 
BRANCH   9  12
HETATM   12  O1  UNL     1      27.245  -0.181  54.505  1.00  0.00    -0.356 OA
HETATM   13  C1  UNL     1      28.595  -0.090  54.872  1.00  0.00     0.210 C 
ENDBRANCH   9  12
ENDBRANCH   1   6
BRANCH   3  14
HETATM   14  C7  UNL     1      23.070   6.452  50.052  1.00  0.00     0.114 C 
HETATM   15  C8  UNL     1      22.159   6.527  51.039  1.00  0.00     0.174 C 
HETATM   16  O2  UNL     1      21.216   7.516  51.074  1.00  0.00    -0.350 OA
HETATM   17  C9  UNL     1      20.945   8.079  49.802  1.00  0.00     0.255 C 
HETATM   18  S1  UNL     1      22.599   7.878  49.057  1.00  0.00    -0.082 SA
ENDBRANCH   3  14
BRANCH   4  19
HETATM   19  C11 UNL     1      26.047   5.458  48.667  1.00  0.00    -0.033 A 
HETATM   20  C12 UNL     1      27.217   4.741  48.752  1.00  0.00     0.011 A 
HETATM   21  C13 UNL     1      28.407   5.401  48.486  1.00  0.00     0.024 A 
HETATM   22  C14 UNL     1      28.437   6.751  48.142  1.00  0.00     0.034 A 
HETATM   23 CL1  UNL     1      29.894   7.635  47.797  1.00  0.00    -0.084 Cl
HETATM   24  C15 UNL     1      27.244   7.477  48.057  1.00  0.00     0.024 A 
HETATM   25  C16 UNL     1      26.052   6.799  48.327  1.00  0.00     0.011 A 
ENDBRANCH   4  19
TORSDOF 4
ENDMDL
MODEL 7
REMARK VINA RESULT:      -7.6      3.791      5.586
REMARK  4 active torsions:
REMARK  status: ('A' for Active; 'I' for Inactive)
REMARK    1  A    between atoms: O1_2  and  C2_3 
REMARK    2  A    between atoms: C5_6  and  C6_7 
REMARK    3  A    between atoms: N2_9  and  C7_10 
REMARK    4  A    between atoms: C10_15  and  C11_16 
ROOT
HETATM    1  C6  UNL     1      23.589   3.593  51.501  1.00  0.00     0.067 C 
HETATM    2  N1  UNL     1      24.144   3.285  52.602  1.00  0.00    -0.175 NA
HETATM    3  N2  UNL     1      24.590   1.965  52.611  1.00  0.00    -0.252 N 
HETATM    4  C10 UNL     1      23.834   1.288  51.574  1.00  0.00     0.150 C 
HETATM    5  C17 UNL     1      23.609   2.419  50.591  1.00  0.00     0.094 C 
ENDROOT
BRANCH   1   6
HETATM    6  C5  UNL     1      23.011   4.887  51.150  1.00  0.00    -0.010 A 
HETATM    7  C4  UNL     1      23.780   6.032  51.133  1.00  0.00     0.016 A 
HETATM    8  C3  UNL     1      23.247   7.265  50.803  1.00  0.00     0.037 A 
HETATM    9  C2  UNL     1      21.893   7.388  50.472  1.00  0.00     0.068 A 
HETATM   10  C19 UNL     1      21.115   6.246  50.488  1.00  0.00     0.037 A 
HETATM   11  C18 UNL     1      21.691   5.043  50.824  1.00  0.00     0.016 A 
BRANCH   9  12
HETATM   12  O1  UNL     1      21.315   8.607  50.135  1.00  0.00    -0.356 OA
HETATM   13  C1  UNL     1      19.940   8.706  49.881  1.00  0.00     0.210 C 
ENDBRANCH   9  12
ENDBRANCH   1   6
BRANCH   3  14
HETATM   14  C7  UNL     1      25.599   1.420  53.485  1.00  0.00     0.114 C 
HETATM   15  C8  UNL     1      26.708   2.136  53.745  1.00  0.00     0.174 C 
HETATM   16  O2  UNL     1      27.693   1.666  54.567  1.00  0.00    -0.350 OA
HETATM   17  C9  UNL     1      27.711   0.251  54.670  1.00  0.00     0.255 C 
HETATM   18  S1  UNL     1      25.924  -0.059  54.461  1.00  0.00    -0.082 SA
ENDBRANCH   3  14
BRANCH   4  19
HETATM   19  C11 UNL     1      22.554   0.731  52.065  1.00  0.00    -0.033 A 
HETATM   20  C12 UNL     1      22.466   0.224  53.341  1.00  0.00     0.011 A 
HETATM   21  C13 UNL     1      21.246  -0.287  53.755  1.00  0.00     0.024 A 
HETATM   22  C14 UNL     1      20.130  -0.297  52.920  1.00  0.00     0.034 A 
HETATM   23 CL1  UNL     1      18.575  -0.923  53.382  1.00  0.00    -0.084 Cl
HETATM   24  C15 UNL     1      20.224   0.219  51.623  1.00  0.00     0.024 A 
HETATM   25  C16 UNL     1      21.460   0.731  51.218  1.00  0.00     0.011 A 
ENDBRANCH   4  19
TORSDOF 4
ENDMDL
MODEL 8
REMARK VINA RESULT:      -7.5      3.799      6.406
REMARK  4 active torsions:
REMARK  status: ('A' for Active; 'I' for Inactive)
REMARK    1  A    between atoms: O1_2  and  C2_3 
REMARK    2  A    between atoms: C5_6  and  C6_7 
REMARK    3  A    between atoms: N2_9  and  C7_10 
REMARK    4  A    between atoms: C10_15  and  C11_16 
ROOT
HETATM    1  C6  UNL     1      25.053   2.413  52.112  1.00  0.00     0.067 C 
HETATM    2  N1  UNL     1      24.646   2.637  50.930  1.00  0.00    -0.175 NA
HETATM    3  N2  UNL     1      23.585   3.540  50.904  1.00  0.00    -0.252 N 
HETATM    4  C10 UNL     1      23.017   3.516  52.239  1.00  0.00     0.150 C 
HETATM    5  C17 UNL     1      24.242   3.205  53.073  1.00  0.00     0.094 C 
ENDROOT
BRANCH   1   6
HETATM    6  C5  UNL     1      26.142   1.523  52.504  1.00  0.00    -0.010 A 
HETATM    7  C4  UNL     1      26.018   0.153  52.399  1.00  0.00     0.016 A 
HETATM    8  C3  UNL     1      27.041  -0.703  52.766  1.00  0.00     0.037 A 
HETATM    9  C2  UNL     1      28.248  -0.197  53.262  1.00  0.00     0.068 A 
HETATM   10  C19 UNL     1      28.379   1.174  53.371  1.00  0.00     0.037 A 
HETATM   11  C18 UNL     1      27.334   1.984  52.993  1.00  0.00     0.016 A 
BRANCH   9  12
HETATM   12  O1  UNL     1      29.302  -1.020  53.643  1.00  0.00    -0.356 OA
HETATM   13  C1  UNL     1      29.333  -2.370  53.269  1.00  0.00     0.210 C 
ENDBRANCH   9  12
ENDBRANCH   1   6
BRANCH   3  14
HETATM   14  C7  UNL     1      23.169   4.322  49.766  1.00  0.00     0.114 C 
HETATM   15  C8  UNL     1      22.807   3.698  48.630  1.00  0.00     0.174 C 
HETATM   16  O2  UNL     1      22.405   4.392  47.524  1.00  0.00    -0.350 OA
HETATM   17  C9  UNL     1      22.891   5.724  47.490  1.00  0.00     0.255 C 
HETATM   18  S1  UNL     1      22.939   6.043  49.286  1.00  0.00    -0.082 SA
ENDBRANCH   3  14
BRANCH   4  19
HETATM   19  C11 UNL     1      21.972   2.481  52.401  1.00  0.00    -0.033 A 
HETATM   20  C12 UNL     1      20.703   2.698  51.916  1.00  0.00     0.011 A 
HETATM   21  C13 UNL     1      19.759   1.699  52.091  1.00  0.00     0.024 A 
HETATM   22  C14 UNL     1      20.065   0.503  52.737  1.00  0.00     0.034 A 
HETATM   23 CL1  UNL     1      18.925  -0.786  52.988  1.00  0.00    -0.084 Cl
HETATM   24  C15 UNL     1      21.356   0.285  53.229  1.00  0.00     0.024 A 
HETATM   25  C16 UNL     1      22.299   1.301  53.046  1.00  0.00     0.011 A 
ENDBRANCH   4  19
TORSDOF 4
ENDMDL
MODEL 9
REMARK VINA RESULT:      -7.3      5.504      9.669
REMARK  4 active torsions:
REMARK  status: ('A' for Active; 'I' for Inactive)
REMARK    1  A    between atoms: O1_2  and  C2_3 
REMARK    2  A    between atoms: C5_6  and  C6_7 
REMARK    3  A    between atoms: N2_9  and  C7_10 
REMARK    4  A    between atoms: C10_15  and  C11_16 
ROOT
HETATM    1  C6  UNL     1      27.817   7.132  48.305  1.00  0.00     0.067 C 
HETATM    2  N1  UNL     1      28.148   8.127  49.022  1.00  0.00    -0.175 NA
HETATM    3  N2  UNL     1      29.006   8.994  48.347  1.00  0.00    -0.252 N 
HETATM    4  C10 UNL     1      29.593   8.211  47.277  1.00  0.00     0.150 C 
HETATM    5  C17 UNL     1      28.470   7.240  46.975  1.00  0.00     0.094 C 
ENDROOT
BRANCH   1   6
HETATM    6  C5  UNL     1      26.935   6.035  48.694  1.00  0.00    -0.010 A 
HETATM    7  C4  UNL     1      27.431   4.771  48.937  1.00  0.00     0.016 A 
HETATM    8  C3  UNL     1      26.608   3.721  49.306  1.00  0.00     0.037 A 
HETATM    9  C2  UNL     1      25.229   3.915  49.444  1.00  0.00     0.068 A 
HETATM   10  C19 UNL     1      24.724   5.178  49.201  1.00  0.00     0.037 A 
HETATM   11  C18 UNL     1      25.583   6.189  48.837  1.00  0.00     0.016 A 
BRANCH   9  12
HETATM   12  O1  UNL     1      24.365   2.889  49.812  1.00  0.00    -0.356 OA
HETATM   13  C1  UNL     1      24.366   2.382  51.119  1.00  0.00     0.210 C 
ENDBRANCH   9  12
ENDBRANCH   1   6
BRANCH   3  14
HETATM   14  C7  UNL     1      29.237  10.379  48.676  1.00  0.00     0.114 C 
HETATM   15  C8  UNL     1      28.188  11.184  48.928  1.00  0.00     0.174 C 
HETATM   16  O2  UNL     1      28.353  12.503  49.244  1.00  0.00    -0.350 OA
HETATM   17  C9  UNL     1      29.578  13.044  48.777  1.00  0.00     0.255 C 
HETATM   18  S1  UNL     1      30.601  11.536  48.889  1.00  0.00    -0.082 SA
ENDBRANCH   3  14
BRANCH   4  19
HETATM   19  C11 UNL     1      30.827   7.505  47.689  1.00  0.00    -0.033 A 
HETATM   20  C12 UNL     1      30.883   6.131  47.649  1.00  0.00     0.011 A 
HETATM   21  C13 UNL     1      32.060   5.515  48.044  1.00  0.00     0.024 A 
HETATM   22  C14 UNL     1      33.165   6.248  48.473  1.00  0.00     0.034 A 
HETATM   23 CL1  UNL     1      34.668   5.535  48.980  1.00  0.00    -0.084 Cl
HETATM   24  C15 UNL     1      33.105   7.645  48.512  1.00  0.00     0.024 A 
HETATM   25  C16 UNL     1      31.912   8.253  48.110  1.00  0.00     0.011 A 
ENDBRANCH   4  19
TORSDOF 4
ENDMDL
