MODEL 1
REMARK VINA RESULT:      -8.4      0.000      0.000
REMARK  7 active torsions:
REMARK  status: ('A' for Active; 'I' for Inactive)
REMARK    1  A    between atoms: N1_1  and  C1_2 
REMARK    2  A    between atoms: C6_8  and  C7_9 
REMARK    3  A    between atoms: C10_14  and  C11_15 
REMARK    4  A    between atoms: C11_15  and  C12_16 
REMARK    5  A    between atoms: C14_18  and  O1_19 
REMARK    6  A    between atoms: O1_19  and  C15_20 
REMARK    7  A    between atoms: C18_26  and  O2_27 
ROOT
HETATM    1  C7  UNL     1      25.407   0.191  53.639  1.00  0.00     0.078 A 
HETATM    2  N2  UNL     1      26.245  -0.879  53.750  1.00  0.00    -0.241 NA
HETATM    3  C8  UNL     1      27.561  -0.748  53.461  1.00  0.00     0.233 A 
HETATM    4  N3  UNL     1      28.069   0.423  53.062  1.00  0.00    -0.254 NA
HETATM    5  C9  UNL     1      27.261   1.482  52.952  1.00  0.00     0.127 A 
HETATM    6  C10 UNL     1      25.920   1.401  53.240  1.00  0.00    -0.006 A 
ENDROOT
BRANCH   6   7
HETATM    7  C11 UNL     1      25.170   2.613  53.337  1.00  0.00     0.084 C 
BRANCH   7   8
HETATM    8  C12 UNL     1      24.451   3.154  52.143  1.00  0.00    -0.018 A 
HETATM    9  C13 UNL     1      24.226   2.769  50.868  1.00  0.00     0.047 A 
HETATM   10  C14 UNL     1      23.481   3.434  49.945  1.00  0.00     0.079 A 
HETATM   11  C16 UNL     1      22.874   4.605  50.248  1.00  0.00     0.040 A 
HETATM   12  C17 UNL     1      23.040   5.101  51.539  1.00  0.00     0.040 A 
HETATM   13  C18 UNL     1      23.802   4.385  52.432  1.00  0.00     0.072 A 
BRANCH  10  14
HETATM   14  O1  UNL     1      23.248   3.034  48.634  1.00  0.00    -0.255 OA
BRANCH  14  15
HETATM   15  C15 UNL     1      22.173   2.107  48.441  1.00  0.00     0.530 C 
HETATM   16  F1  UNL     1      22.481   1.283  47.367  1.00  0.00    -0.144 F 
HETATM   17  F2  UNL     1      20.971   2.745  48.231  1.00  0.00    -0.144 F 
HETATM   18  F3  UNL     1      22.032   1.261  49.533  1.00  0.00    -0.144 F 
ENDBRANCH  14  15
ENDBRANCH  10  14
BRANCH  13  19
HETATM   19  O2  UNL     1      23.898   4.986  53.694  1.00  0.00    -0.360 OA
HETATM   20  H13 UNL     1      23.014   5.259  54.141  1.00  0.00     0.217 HD
ENDBRANCH  13  19
ENDBRANCH   7   8
ENDBRANCH   6   7
BRANCH   1  21
HETATM   21  C6  UNL     1      24.040  -0.165  53.844  1.00  0.00     0.021 A 
HETATM   22  C1  UNL     1      23.703  -1.000  54.909  1.00  0.00     0.038 A 
HETATM   23  C2  UNL     1      22.458  -1.512  55.185  1.00  0.00     0.031 A 
HETATM   24  C3  UNL     1      21.393  -1.228  54.384  1.00  0.00     0.021 A 
HETATM   25  C4  UNL     1      21.620  -0.411  53.297  1.00  0.00     0.011 A 
HETATM   26 BR1  UNL     1      20.164   0.005  52.157  1.00  0.00    -0.051 Br
HETATM   27  C5  UNL     1      22.897   0.054  53.108  1.00  0.00     0.035 A 
BRANCH  22  28
HETATM   28  N1  UNL     1      24.674  -1.437  55.899  1.00  0.00    -0.398 N 
HETATM   29  H1  UNL     1      25.707  -1.311  55.883  1.00  0.00     0.156 HD
HETATM   30  H2  UNL     1      24.291  -1.938  56.757  1.00  0.00     0.156 HD
ENDBRANCH  22  28
ENDBRANCH   1  21
TORSDOF 7
ENDMDL
MODEL 2
REMARK VINA RESULT:      -8.4      4.303      6.723
REMARK  7 active torsions:
REMARK  status: ('A' for Active; 'I' for Inactive)
REMARK    1  A    between atoms: N1_1  and  C1_2 
REMARK    2  A    between atoms: C6_8  and  C7_9 
REMARK    3  A    between atoms: C10_14  and  C11_15 
REMARK    4  A    between atoms: C11_15  and  C12_16 
REMARK    5  A    between atoms: C14_18  and  O1_19 
REMARK    6  A    between atoms: O1_19  and  C15_20 
REMARK    7  A    between atoms: C18_26  and  O2_27 
ROOT
HETATM    1  C7  UNL     1      22.622   2.744  49.873  1.00  0.00     0.078 A 
HETATM    2  N2  UNL     1      22.061   2.563  48.644  1.00  0.00    -0.241 NA
HETATM    3  C8  UNL     1      21.213   1.529  48.426  1.00  0.00     0.233 A 
HETATM    4  N3  UNL     1      20.906   0.669  49.403  1.00  0.00    -0.254 NA
HETATM    5  C9  UNL     1      21.444   0.836  50.615  1.00  0.00     0.127 A 
HETATM    6  C10 UNL     1      22.305   1.873  50.887  1.00  0.00    -0.006 A 
ENDROOT
BRANCH   6   7
HETATM    7  C11 UNL     1      22.647   2.135  52.248  1.00  0.00     0.084 C 
BRANCH   7   8
HETATM    8  C12 UNL     1      23.908   1.581  52.830  1.00  0.00    -0.018 A 
HETATM    9  C13 UNL     1      24.475   0.364  52.981  1.00  0.00     0.047 A 
HETATM   10  C14 UNL     1      25.693   0.104  53.527  1.00  0.00     0.079 A 
HETATM   11  C16 UNL     1      26.478   1.104  53.992  1.00  0.00     0.040 A 
HETATM   12  C17 UNL     1      25.992   2.405  53.891  1.00  0.00     0.040 A 
HETATM   13  C18 UNL     1      24.754   2.609  53.328  1.00  0.00     0.072 A 
BRANCH  10  14
HETATM   14  O1  UNL     1      26.276  -1.148  53.677  1.00  0.00    -0.255 OA
BRANCH  14  15
HETATM   15  C15 UNL     1      27.186  -1.548  52.646  1.00  0.00     0.530 C 
HETATM   16  F1  UNL     1      28.484  -1.324  53.084  1.00  0.00    -0.144 F 
HETATM   17  F2  UNL     1      26.953  -0.882  51.464  1.00  0.00    -0.144 F 
HETATM   18  F3  UNL     1      27.105  -2.912  52.400  1.00  0.00    -0.144 F 
ENDBRANCH  14  15
ENDBRANCH  10  14
BRANCH  13  19
HETATM   19  O2  UNL     1      24.374   3.957  53.284  1.00  0.00    -0.360 OA
HETATM   20  H13 UNL     1      24.960   4.581  52.716  1.00  0.00     0.217 HD
ENDBRANCH  13  19
ENDBRANCH   7   8
ENDBRANCH   6   7
BRANCH   1  21
HETATM   21  C6  UNL     1      23.593   3.790  49.880  1.00  0.00     0.021 A 
HETATM   22  C1  UNL     1      23.207   5.080  50.244  1.00  0.00     0.038 A 
HETATM   23  C2  UNL     1      23.988   6.209  50.207  1.00  0.00     0.031 A 
HETATM   24  C3  UNL     1      25.282   6.150  49.781  1.00  0.00     0.021 A 
HETATM   25  C4  UNL     1      25.763   4.917  49.393  1.00  0.00     0.011 A 
HETATM   26 BR1  UNL     1      27.555   4.794  48.790  1.00  0.00    -0.051 Br
HETATM   27  C5  UNL     1      24.906   3.849  49.469  1.00  0.00     0.035 A 
BRANCH  22  28
HETATM   28  N1  UNL     1      21.873   5.389  50.733  1.00  0.00    -0.398 N 
HETATM   29  H1  UNL     1      20.963   5.021  50.389  1.00  0.00     0.156 HD
HETATM   30  H2  UNL     1      21.809   6.066  51.553  1.00  0.00     0.156 HD
ENDBRANCH  22  28
ENDBRANCH   1  21
TORSDOF 7
ENDMDL
MODEL 3
REMARK VINA RESULT:      -8.2      4.575      6.864
REMARK  7 active torsions:
REMARK  status: ('A' for Active; 'I' for Inactive)
REMARK    1  A    between atoms: N1_1  and  C1_2 
REMARK    2  A    between atoms: C6_8  and  C7_9 
REMARK    3  A    between atoms: C10_14  and  C11_15 
REMARK    4  A    between atoms: C11_15  and  C12_16 
REMARK    5  A    between atoms: C14_18  and  O1_19 
REMARK    6  A    between atoms: O1_19  and  C15_20 
REMARK    7  A    between atoms: C18_26  and  O2_27 
ROOT
HETATM    1  C7  UNL     1      25.190   5.404  49.174  1.00  0.00     0.078 A 
HETATM    2  N2  UNL     1      25.528   6.589  48.591  1.00  0.00    -0.241 NA
HETATM    3  C8  UNL     1      26.807   6.821  48.209  1.00  0.00     0.233 A 
HETATM    4  N3  UNL     1      27.761   5.902  48.391  1.00  0.00    -0.254 NA
HETATM    5  C9  UNL     1      27.445   4.734  48.958  1.00  0.00     0.127 A 
HETATM    6  C10 UNL     1      26.161   4.449  49.357  1.00  0.00    -0.006 A 
ENDROOT
BRANCH   6   7
HETATM    7  C11 UNL     1      25.844   3.106  49.725  1.00  0.00     0.084 C 
BRANCH   7   8
HETATM    8  C12 UNL     1      26.098   2.625  51.118  1.00  0.00    -0.018 A 
HETATM    9  C13 UNL     1      27.166   2.467  51.930  1.00  0.00     0.047 A 
HETATM   10  C14 UNL     1      27.143   2.034  53.218  1.00  0.00     0.079 A 
HETATM   11  C16 UNL     1      25.979   1.704  53.824  1.00  0.00     0.040 A 
HETATM   12  C17 UNL     1      24.808   1.826  53.079  1.00  0.00     0.040 A 
HETATM   13  C18 UNL     1      24.891   2.271  51.781  1.00  0.00     0.072 A 
BRANCH  10  14
HETATM   14  O1  UNL     1      28.244   1.877  54.052  1.00  0.00    -0.255 OA
BRANCH  14  15
HETATM   15  C15 UNL     1      28.825   0.568  54.089  1.00  0.00     0.530 C 
HETATM   16  F1  UNL     1      28.574   0.001  55.331  1.00  0.00    -0.144 F 
HETATM   17  F2  UNL     1      30.177   0.595  53.834  1.00  0.00    -0.144 F 
HETATM   18  F3  UNL     1      28.225  -0.278  53.165  1.00  0.00    -0.144 F 
ENDBRANCH  14  15
ENDBRANCH  10  14
BRANCH  13  19
HETATM   19  O2  UNL     1      23.650   2.349  51.135  1.00  0.00    -0.360 OA
HETATM   20  H13 UNL     1      23.545   1.797  50.274  1.00  0.00     0.217 HD
ENDBRANCH  13  19
ENDBRANCH   7   8
ENDBRANCH   6   7
BRANCH   1  21
HETATM   21  C6  UNL     1      23.840   5.391  49.638  1.00  0.00     0.021 A 
HETATM   22  C1  UNL     1      23.545   5.909  50.900  1.00  0.00     0.038 A 
HETATM   23  C2  UNL     1      22.325   5.882  51.530  1.00  0.00     0.031 A 
HETATM   24  C3  UNL     1      21.243   5.308  50.933  1.00  0.00     0.021 A 
HETATM   25  C4  UNL     1      21.429   4.762  49.681  1.00  0.00     0.011 A 
HETATM   26 BR1  UNL     1      19.948   3.951  48.819  1.00  0.00    -0.051 Br
HETATM   27  C5  UNL     1      22.684   4.840  49.133  1.00  0.00     0.035 A 
BRANCH  22  28
HETATM   28  N1  UNL     1      24.542   6.572  51.726  1.00  0.00    -0.398 N 
HETATM   29  H1  UNL     1      24.522   6.724  52.755  1.00  0.00     0.156 HD
HETATM   30  H2  UNL     1      25.408   6.939  51.229  1.00  0.00     0.156 HD
ENDBRANCH  22  28
ENDBRANCH   1  21
TORSDOF 7
ENDMDL
MODEL 4
REMARK VINA RESULT:      -8.1      3.683      6.007
REMARK  7 active torsions:
REMARK  status: ('A' for Active; 'I' for Inactive)
REMARK    1  A    between atoms: N1_1  and  C1_2 
REMARK    2  A    between atoms: C6_8  and  C7_9 
REMARK    3  A    between atoms: C10_14  and  C11_15 
REMARK    4  A    between atoms: C11_15  and  C12_16 
REMARK    5  A    between atoms: C14_18  and  O1_19 
REMARK    6  A    between atoms: O1_19  and  C15_20 
REMARK    7  A    between atoms: C18_26  and  O2_27 
ROOT
HETATM    1  C7  UNL     1      23.706   3.670  51.181  1.00  0.00     0.078 A 
HETATM    2  N2  UNL     1      23.833   4.938  51.665  1.00  0.00    -0.241 NA
HETATM    3  C8  UNL     1      23.103   5.947  51.134  1.00  0.00     0.233 A 
HETATM    4  N3  UNL     1      22.247   5.728  50.130  1.00  0.00    -0.254 NA
HETATM    5  C9  UNL     1      22.108   4.490  49.647  1.00  0.00     0.127 A 
HETATM    6  C10 UNL     1      22.822   3.431  50.157  1.00  0.00    -0.006 A 
ENDROOT
BRANCH   6   7
HETATM    7  C11 UNL     1      22.450   2.109  49.767  1.00  0.00     0.084 C 
BRANCH   7   8
HETATM    8  C12 UNL     1      21.372   1.379  50.503  1.00  0.00    -0.018 A 
HETATM    9  C13 UNL     1      21.216   0.815  51.720  1.00  0.00     0.047 A 
HETATM   10  C14 UNL     1      20.088   0.222  52.195  1.00  0.00     0.079 A 
HETATM   11  C16 UNL     1      18.969   0.143  51.439  1.00  0.00     0.040 A 
HETATM   12  C17 UNL     1      19.015   0.692  50.159  1.00  0.00     0.040 A 
HETATM   13  C18 UNL     1      20.182   1.281  49.733  1.00  0.00     0.072 A 
BRANCH  10  14
HETATM   14  O1  UNL     1      19.928  -0.355  53.450  1.00  0.00    -0.255 OA
BRANCH  14  15
HETATM   15  C15 UNL     1      21.094  -0.964  54.016  1.00  0.00     0.530 C 
HETATM   16  F1  UNL     1      21.705  -0.054  54.868  1.00  0.00    -0.144 F 
HETATM   17  F2  UNL     1      21.977  -1.390  53.050  1.00  0.00    -0.144 F 
HETATM   18  F3  UNL     1      20.760  -2.053  54.811  1.00  0.00    -0.144 F 
ENDBRANCH  14  15
ENDBRANCH  10  14
BRANCH  13  19
HETATM   19  O2  UNL     1      20.107   1.793  48.430  1.00  0.00    -0.360 OA
HETATM   20  H13 UNL     1      19.832   1.133  47.692  1.00  0.00     0.217 HD
ENDBRANCH  13  19
ENDBRANCH   7   8
ENDBRANCH   6   7
BRANCH   1  21
HETATM   21  C6  UNL     1      24.650   2.769  51.760  1.00  0.00     0.021 A 
HETATM   22  C1  UNL     1      25.982   2.817  51.349  1.00  0.00     0.038 A 
HETATM   23  C2  UNL     1      26.987   1.962  51.731  1.00  0.00     0.031 A 
HETATM   24  C3  UNL     1      26.740   0.935  52.592  1.00  0.00     0.021 A 
HETATM   25  C4  UNL     1      25.450   0.796  53.057  1.00  0.00     0.011 A 
HETATM   26 BR1  UNL     1      25.066  -0.622  54.254  1.00  0.00    -0.051 Br
HETATM   27  C5  UNL     1      24.517   1.702  52.620  1.00  0.00     0.035 A 
BRANCH  22  28
HETATM   28  N1  UNL     1      26.483   3.828  50.432  1.00  0.00    -0.398 N 
HETATM   29  H1  UNL     1      26.479   4.861  50.553  1.00  0.00     0.156 HD
HETATM   30  H2  UNL     1      26.921   3.479  49.527  1.00  0.00     0.156 HD
ENDBRANCH  22  28
ENDBRANCH   1  21
TORSDOF 7
ENDMDL
MODEL 5
REMARK VINA RESULT:      -8.1      3.992      5.457
REMARK  7 active torsions:
REMARK  status: ('A' for Active; 'I' for Inactive)
REMARK    1  A    between atoms: N1_1  and  C1_2 
REMARK    2  A    between atoms: C6_8  and  C7_9 
REMARK    3  A    between atoms: C10_14  and  C11_15 
REMARK    4  A    between atoms: C11_15  and  C12_16 
REMARK    5  A    between atoms: C14_18  and  O1_19 
REMARK    6  A    between atoms: O1_19  and  C15_20 
REMARK    7  A    between atoms: C18_26  and  O2_27 
ROOT
HETATM    1  C7  UNL     1      21.823   1.396  50.150  1.00  0.00     0.078 A 
HETATM    2  N2  UNL     1      21.485   0.954  48.905  1.00  0.00    -0.241 NA
HETATM    3  C8  UNL     1      21.901   1.627  47.805  1.00  0.00     0.233 A 
HETATM    4  N3  UNL     1      22.647   2.732  47.912  1.00  0.00    -0.254 NA
HETATM    5  C9  UNL     1      22.990   3.176  49.125  1.00  0.00     0.127 A 
HETATM    6  C10 UNL     1      22.598   2.524  50.270  1.00  0.00    -0.006 A 
ENDROOT
BRANCH   6   7
HETATM    7  C11 UNL     1      23.196   2.906  51.509  1.00  0.00     0.084 C 
BRANCH   7   8
HETATM    8  C12 UNL     1      24.417   2.200  52.007  1.00  0.00    -0.018 A 
HETATM    9  C13 UNL     1      25.162   1.136  51.637  1.00  0.00     0.047 A 
HETATM   10  C14 UNL     1      26.293   0.692  52.247  1.00  0.00     0.079 A 
HETATM   11  C16 UNL     1      26.789   1.318  53.339  1.00  0.00     0.040 A 
HETATM   12  C17 UNL     1      26.099   2.432  53.813  1.00  0.00     0.040 A 
HETATM   13  C18 UNL     1      24.962   2.836  53.155  1.00  0.00     0.072 A 
BRANCH  10  14
HETATM   14  O1  UNL     1      27.061  -0.401  51.861  1.00  0.00    -0.255 OA
BRANCH  14  15
HETATM   15  C15 UNL     1      26.935  -1.576  52.671  1.00  0.00     0.530 C 
HETATM   16  F1  UNL     1      28.087  -1.721  53.431  1.00  0.00    -0.144 F 
HETATM   17  F2  UNL     1      26.709  -2.703  51.914  1.00  0.00    -0.144 F 
HETATM   18  F3  UNL     1      25.898  -1.450  53.586  1.00  0.00    -0.144 F 
ENDBRANCH  14  15
ENDBRANCH  10  14
BRANCH  13  19
HETATM   19  O2  UNL     1      24.355   3.962  53.727  1.00  0.00    -0.360 OA
HETATM   20  H13 UNL     1      24.962   4.774  53.899  1.00  0.00     0.217 HD
ENDBRANCH  13  19
ENDBRANCH   7   8
ENDBRANCH   6   7
BRANCH   1  21
HETATM   21  C6  UNL     1      21.183   0.650  51.184  1.00  0.00     0.021 A 
HETATM   22  C1  UNL     1      19.790   0.647  51.264  1.00  0.00     0.038 A 
HETATM   23  C2  UNL     1      19.028   0.067  52.249  1.00  0.00     0.031 A 
HETATM   24  C3  UNL     1      19.615  -0.588  53.291  1.00  0.00     0.021 A 
HETATM   25  C4  UNL     1      20.992  -0.641  53.308  1.00  0.00     0.011 A 
HETATM   26 BR1  UNL     1      21.845  -1.540  54.742  1.00  0.00    -0.051 Br
HETATM   27  C5  UNL     1      21.664  -0.033  52.278  1.00  0.00     0.035 A 
BRANCH  22  28
HETATM   28  N1  UNL     1      18.947   1.282  50.264  1.00  0.00    -0.398 N 
HETATM   29  H1  UNL     1      18.128   1.905  50.417  1.00  0.00     0.156 HD
HETATM   30  H2  UNL     1      19.198   1.104  49.245  1.00  0.00     0.156 HD
ENDBRANCH  22  28
ENDBRANCH   1  21
TORSDOF 7
ENDMDL
MODEL 6
REMARK VINA RESULT:      -7.8      4.522      7.252
REMARK  7 active torsions:
REMARK  status: ('A' for Active; 'I' for Inactive)
REMARK    1  A    between atoms: N1_1  and  C1_2 
REMARK    2  A    between atoms: C6_8  and  C7_9 
REMARK    3  A    between atoms: C10_14  and  C11_15 
REMARK    4  A    between atoms: C11_15  and  C12_16 
REMARK    5  A    between atoms: C14_18  and  O1_19 
REMARK    6  A    between atoms: O1_19  and  C15_20 
REMARK    7  A    between atoms: C18_26  and  O2_27 
ROOT
HETATM    1  C7  UNL     1      23.970   4.311  49.676  1.00  0.00     0.078 A 
HETATM    2  N2  UNL     1      23.044   4.432  48.683  1.00  0.00    -0.241 NA
HETATM    3  C8  UNL     1      22.131   3.453  48.477  1.00  0.00     0.233 A 
HETATM    4  N3  UNL     1      22.115   2.352  49.237  1.00  0.00    -0.254 NA
HETATM    5  C9  UNL     1      23.014   2.220  50.217  1.00  0.00     0.127 A 
HETATM    6  C10 UNL     1      23.956   3.188  50.468  1.00  0.00    -0.006 A 
ENDROOT
BRANCH   6   7
HETATM    7  C11 UNL     1      24.720   3.099  51.672  1.00  0.00     0.084 C 
BRANCH   7   8
HETATM    8  C12 UNL     1      24.887   1.784  52.364  1.00  0.00    -0.018 A 
HETATM    9  C13 UNL     1      24.187   1.036  53.246  1.00  0.00     0.047 A 
HETATM   10  C14 UNL     1      24.536  -0.190  53.717  1.00  0.00     0.079 A 
HETATM   11  C16 UNL     1      25.680  -0.792  53.319  1.00  0.00     0.040 A 
HETATM   12  C17 UNL     1      26.485  -0.110  52.409  1.00  0.00     0.040 A 
HETATM   13  C18 UNL     1      26.082   1.126  51.965  1.00  0.00     0.072 A 
BRANCH  10  14
HETATM   14  O1  UNL     1      23.813  -0.959  54.621  1.00  0.00    -0.255 OA
BRANCH  14  15
HETATM   15  C15 UNL     1      22.433  -1.174  54.304  1.00  0.00     0.530 C 
HETATM   16  F1  UNL     1      22.310  -1.332  52.930  1.00  0.00    -0.144 F 
HETATM   17  F2  UNL     1      21.634  -0.144  54.745  1.00  0.00    -0.144 F 
HETATM   18  F3  UNL     1      21.964  -2.358  54.859  1.00  0.00    -0.144 F 
ENDBRANCH  14  15
ENDBRANCH  10  14
BRANCH  13  19
HETATM   19  O2  UNL     1      26.974   1.713  51.057  1.00  0.00    -0.360 OA
HETATM   20  H13 UNL     1      26.920   1.388  50.084  1.00  0.00     0.217 HD
ENDBRANCH  13  19
ENDBRANCH   7   8
ENDBRANCH   6   7
BRANCH   1  21
HETATM   21  C6  UNL     1      24.934   5.364  49.653  1.00  0.00     0.021 A 
HETATM   22  C1  UNL     1      24.651   6.564  50.305  1.00  0.00     0.038 A 
HETATM   23  C2  UNL     1      25.421   7.701  50.296  1.00  0.00     0.031 A 
HETATM   24  C3  UNL     1      26.592   7.746  49.601  1.00  0.00     0.021 A 
HETATM   25  C4  UNL     1      26.964   6.608  48.916  1.00  0.00     0.011 A 
HETATM   26 BR1  UNL     1      28.585   6.632  47.934  1.00  0.00    -0.051 Br
HETATM   27  C5  UNL     1      26.129   5.522  48.989  1.00  0.00     0.035 A 
BRANCH  22  28
HETATM   28  N1  UNL     1      23.456   6.754  51.112  1.00  0.00    -0.398 N 
HETATM   29  H1  UNL     1      22.573   6.205  51.088  1.00  0.00     0.156 HD
HETATM   30  H2  UNL     1      23.482   7.541  51.827  1.00  0.00     0.156 HD
ENDBRANCH  22  28
ENDBRANCH   1  21
TORSDOF 7
ENDMDL
MODEL 7
REMARK VINA RESULT:      -7.7      3.646      5.935
REMARK  7 active torsions:
REMARK  status: ('A' for Active; 'I' for Inactive)
REMARK    1  A    between atoms: N1_1  and  C1_2 
REMARK    2  A    between atoms: C6_8  and  C7_9 
REMARK    3  A    between atoms: C10_14  and  C11_15 
REMARK    4  A    between atoms: C11_15  and  C12_16 
REMARK    5  A    between atoms: C14_18  and  O1_19 
REMARK    6  A    between atoms: O1_19  and  C15_20 
REMARK    7  A    between atoms: C18_26  and  O2_27 
ROOT
HETATM    1  C7  UNL     1      24.991   5.368  49.268  1.00  0.00     0.078 A 
HETATM    2  N2  UNL     1      25.250   6.626  48.809  1.00  0.00    -0.241 NA
HETATM    3  C8  UNL     1      26.501   6.963  48.415  1.00  0.00     0.233 A 
HETATM    4  N3  UNL     1      27.504   6.080  48.465  1.00  0.00    -0.254 NA
HETATM    5  C9  UNL     1      27.265   4.843  48.908  1.00  0.00     0.127 A 
HETATM    6  C10 UNL     1      26.012   4.450  49.314  1.00  0.00    -0.006 A 
ENDROOT
BRANCH   6   7
HETATM    7  C11 UNL     1      25.774   3.061  49.542  1.00  0.00     0.084 C 
BRANCH   7   8
HETATM    8  C12 UNL     1      25.247   2.591  50.860  1.00  0.00    -0.018 A 
HETATM    9  C13 UNL     1      24.066   2.159  51.355  1.00  0.00     0.047 A 
HETATM   10  C14 UNL     1      23.832   1.733  52.624  1.00  0.00     0.079 A 
HETATM   11  C16 UNL     1      24.821   1.710  53.548  1.00  0.00     0.040 A 
HETATM   12  C17 UNL     1      26.085   2.136  53.149  1.00  0.00     0.040 A 
HETATM   13  C18 UNL     1      26.265   2.555  51.852  1.00  0.00     0.072 A 
BRANCH  10  14
HETATM   14  O1  UNL     1      22.617   1.286  53.130  1.00  0.00    -0.255 OA
BRANCH  14  15
HETATM   15  C15 UNL     1      22.272  -0.072  52.833  1.00  0.00     0.530 C 
HETATM   16  F1  UNL     1      21.287  -0.488  53.719  1.00  0.00    -0.144 F 
HETATM   17  F2  UNL     1      23.364  -0.908  52.897  1.00  0.00    -0.144 F 
HETATM   18  F3  UNL     1      21.709  -0.187  51.569  1.00  0.00    -0.144 F 
ENDBRANCH  14  15
ENDBRANCH  10  14
BRANCH  13  19
HETATM   19  O2  UNL     1      27.576   2.963  51.571  1.00  0.00    -0.360 OA
HETATM   20  H13 UNL     1      28.173   2.286  51.079  1.00  0.00     0.217 HD
ENDBRANCH  13  19
ENDBRANCH   7   8
ENDBRANCH   6   7
BRANCH   1  21
HETATM   21  C6  UNL     1      23.661   5.236  49.770  1.00  0.00     0.021 A 
HETATM   22  C1  UNL     1      23.361   5.713  51.046  1.00  0.00     0.038 A 
HETATM   23  C2  UNL     1      22.166   5.576  51.711  1.00  0.00     0.031 A 
HETATM   24  C3  UNL     1      21.119   4.918  51.137  1.00  0.00     0.021 A 
HETATM   25  C4  UNL     1      21.314   4.403  49.873  1.00  0.00     0.011 A 
HETATM   26 BR1  UNL     1      19.883   3.478  49.043  1.00  0.00    -0.051 Br
HETATM   27  C5  UNL     1      22.541   4.594  49.291  1.00  0.00     0.035 A 
BRANCH  22  28
HETATM   28  N1  UNL     1      24.321   6.449  51.853  1.00  0.00    -0.398 N 
HETATM   29  H1  UNL     1      25.257   6.804  51.570  1.00  0.00     0.156 HD
HETATM   30  H2  UNL     1      24.036   6.668  52.855  1.00  0.00     0.156 HD
ENDBRANCH  22  28
ENDBRANCH   1  21
TORSDOF 7
ENDMDL
MODEL 8
REMARK VINA RESULT:      -7.7      2.750      4.717
REMARK  7 active torsions:
REMARK  status: ('A' for Active; 'I' for Inactive)
REMARK    1  A    between atoms: N1_1  and  C1_2 
REMARK    2  A    between atoms: C6_8  and  C7_9 
REMARK    3  A    between atoms: C10_14  and  C11_15 
REMARK    4  A    between atoms: C11_15  and  C12_16 
REMARK    5  A    between atoms: C14_18  and  O1_19 
REMARK    6  A    between atoms: O1_19  and  C15_20 
REMARK    7  A    between atoms: C18_26  and  O2_27 
ROOT
HETATM    1  C7  UNL     1      25.828   1.723  52.311  1.00  0.00     0.078 A 
HETATM    2  N2  UNL     1      26.974   2.455  52.416  1.00  0.00    -0.241 NA
HETATM    3  C8  UNL     1      27.999   2.012  53.181  1.00  0.00     0.233 A 
HETATM    4  N3  UNL     1      27.915   0.855  53.848  1.00  0.00    -0.254 NA
HETATM    5  C9  UNL     1      26.801   0.124  53.752  1.00  0.00     0.127 A 
HETATM    6  C10 UNL     1      25.735   0.529  52.983  1.00  0.00    -0.006 A 
ENDROOT
BRANCH   6   7
HETATM    7  C11 UNL     1      24.685  -0.405  52.731  1.00  0.00     0.084 C 
BRANCH   7   8
HETATM    8  C12 UNL     1      23.284  -0.099  53.156  1.00  0.00    -0.018 A 
HETATM    9  C13 UNL     1      22.214   0.545  52.640  1.00  0.00     0.047 A 
HETATM   10  C14 UNL     1      20.989   0.663  53.218  1.00  0.00     0.079 A 
HETATM   11  C16 UNL     1      20.732   0.116  54.429  1.00  0.00     0.040 A 
HETATM   12  C17 UNL     1      21.767  -0.572  55.058  1.00  0.00     0.040 A 
HETATM   13  C18 UNL     1      22.984  -0.661  54.426  1.00  0.00     0.072 A 
BRANCH  10  14
HETATM   14  O1  UNL     1      19.888   1.322  52.684  1.00  0.00    -0.255 OA
BRANCH  14  15
HETATM   15  C15 UNL     1      19.200   0.644  51.626  1.00  0.00     0.530 C 
HETATM   16  F1  UNL     1      18.122   1.421  51.223  1.00  0.00    -0.144 F 
HETATM   17  F2  UNL     1      18.777  -0.610  52.005  1.00  0.00    -0.144 F 
HETATM   18  F3  UNL     1      20.005   0.512  50.502  1.00  0.00    -0.144 F 
ENDBRANCH  14  15
ENDBRANCH  10  14
BRANCH  13  19
HETATM   19  O2  UNL     1      23.944  -1.374  55.158  1.00  0.00    -0.360 OA
HETATM   20  H13 UNL     1      24.817  -0.877  55.375  1.00  0.00     0.217 HD
ENDBRANCH  13  19
ENDBRANCH   7   8
ENDBRANCH   6   7
BRANCH   1  21
HETATM   21  C6  UNL     1      24.809   2.408  51.583  1.00  0.00     0.021 A 
HETATM   22  C1  UNL     1      24.096   3.434  52.204  1.00  0.00     0.038 A 
HETATM   23  C2  UNL     1      23.027   4.120  51.682  1.00  0.00     0.031 A 
HETATM   24  C3  UNL     1      22.550   3.829  50.439  1.00  0.00     0.021 A 
HETATM   25  C4  UNL     1      23.185   2.825  49.739  1.00  0.00     0.011 A 
HETATM   26 BR1  UNL     1      22.549   2.388  48.008  1.00  0.00    -0.051 Br
HETATM   27  C5  UNL     1      24.245   2.200  50.344  1.00  0.00     0.035 A 
BRANCH  22  28
HETATM   28  N1  UNL     1      24.424   3.920  53.536  1.00  0.00    -0.398 N 
HETATM   29  H1  UNL     1      24.519   3.370  54.413  1.00  0.00     0.156 HD
HETATM   30  H2  UNL     1      24.602   4.965  53.633  1.00  0.00     0.156 HD
ENDBRANCH  22  28
ENDBRANCH   1  21
TORSDOF 7
ENDMDL
MODEL 9
REMARK VINA RESULT:      -7.6      4.594      7.279
REMARK  7 active torsions:
REMARK  status: ('A' for Active; 'I' for Inactive)
REMARK    1  A    between atoms: N1_1  and  C1_2 
REMARK    2  A    between atoms: C6_8  and  C7_9 
REMARK    3  A    between atoms: C10_14  and  C11_15 
REMARK    4  A    between atoms: C11_15  and  C12_16 
REMARK    5  A    between atoms: C14_18  and  O1_19 
REMARK    6  A    between atoms: O1_19  and  C15_20 
REMARK    7  A    between atoms: C18_26  and  O2_27 
ROOT
HETATM    1  C7  UNL     1      22.115   4.845  49.858  1.00  0.00     0.078 A 
HETATM    2  N2  UNL     1      21.466   5.137  48.695  1.00  0.00    -0.241 NA
HETATM    3  C8  UNL     1      20.276   4.555  48.413  1.00  0.00     0.233 A 
HETATM    4  N3  UNL     1      19.712   3.688  49.261  1.00  0.00    -0.254 NA
HETATM    5  C9  UNL     1      20.333   3.395  50.407  1.00  0.00     0.127 A 
HETATM    6  C10 UNL     1      21.540   3.963  50.740  1.00  0.00    -0.006 A 
ENDROOT
BRANCH   6   7
HETATM    7  C11 UNL     1      22.025   3.798  52.073  1.00  0.00     0.084 C 
BRANCH   7   8
HETATM    8  C12 UNL     1      22.615   2.493  52.505  1.00  0.00    -0.018 A 
HETATM    9  C13 UNL     1      22.189   1.221  52.664  1.00  0.00     0.047 A 
HETATM   10  C14 UNL     1      22.947   0.158  53.044  1.00  0.00     0.079 A 
HETATM   11  C16 UNL     1      24.265   0.301  53.313  1.00  0.00     0.040 A 
HETATM   12  C17 UNL     1      24.815   1.575  53.185  1.00  0.00     0.040 A 
HETATM   13  C18 UNL     1      24.001   2.612  52.795  1.00  0.00     0.072 A 
BRANCH  10  14
HETATM   14  O1  UNL     1      22.507  -1.151  53.202  1.00  0.00    -0.255 OA
BRANCH  14  15
HETATM   15  C15 UNL     1      21.661  -1.399  54.331  1.00  0.00     0.530 C 
HETATM   16  F1  UNL     1      21.764  -0.330  55.211  1.00  0.00    -0.144 F 
HETATM   17  F2  UNL     1      21.978  -2.579  54.965  1.00  0.00    -0.144 F 
HETATM   18  F3  UNL     1      20.324  -1.450  53.960  1.00  0.00    -0.144 F 
ENDBRANCH  14  15
ENDBRANCH  10  14
BRANCH  13  19
HETATM   19  O2  UNL     1      24.666   3.842  52.705  1.00  0.00    -0.360 OA
HETATM   20  H13 UNL     1      25.270   3.979  51.885  1.00  0.00     0.217 HD
ENDBRANCH  13  19
ENDBRANCH   7   8
ENDBRANCH   6   7
BRANCH   1  21
HETATM   21  C6  UNL     1      23.413   5.436  49.920  1.00  0.00     0.021 A 
HETATM   22  C1  UNL     1      23.554   6.726  50.431  1.00  0.00     0.038 A 
HETATM   23  C2  UNL     1      24.708   7.470  50.468  1.00  0.00     0.031 A 
HETATM   24  C3  UNL     1      25.876   6.972  49.973  1.00  0.00     0.021 A 
HETATM   25  C4  UNL     1      25.845   5.701  49.439  1.00  0.00     0.011 A 
HETATM   26 BR1  UNL     1      27.448   4.975  48.737  1.00  0.00    -0.051 Br
HETATM   27  C5  UNL     1      24.645   5.037  49.450  1.00  0.00     0.035 A 
BRANCH  22  28
HETATM   28  N1  UNL     1      22.444   7.461  51.016  1.00  0.00    -0.398 N 
HETATM   29  H1  UNL     1      22.287   7.695  52.018  1.00  0.00     0.156 HD
HETATM   30  H2  UNL     1      21.701   7.820  50.344  1.00  0.00     0.156 HD
ENDBRANCH  22  28
ENDBRANCH   1  21
TORSDOF 7
ENDMDL
