MODEL 1
REMARK VINA RESULT:      -9.0      0.000      0.000
REMARK  6 active torsions:
REMARK  status: ('A' for Active; 'I' for Inactive)
REMARK    1  A    between atoms: C2_2  and  O1_3 
REMARK    2  A    between atoms: O1_3  and  C3_4 
REMARK       I    between atoms: C3_4  and  N1_6 
REMARK    3  A    between atoms: N1_6  and  C4_7 
REMARK    4  A    between atoms: C10_13  and  C11_14 
REMARK    5  A    between atoms: C11_14  and  O3_15 
REMARK    6  A    between atoms: O3_15  and  C12_16 
ROOT
HETATM    1  C4  UNL     1      24.386  -0.560  53.964  1.00  0.00     0.037 A 
HETATM    2  C5  UNL     1      23.402  -1.182  54.735  1.00  0.00     0.030 A 
HETATM    3  C6  UNL     1      22.088  -1.074  54.331  1.00  0.00     0.016 A 
HETATM    4  C7  UNL     1      21.764  -0.359  53.184  1.00  0.00    -0.004 A 
HETATM    5  C8  UNL     1      22.736   0.256  52.422  1.00  0.00    -0.013 A 
HETATM    6  C9  UNL     1      24.052   0.149  52.824  1.00  0.00     0.042 A 
HETATM    7  C10 UNL     1      22.074   0.910  51.305  1.00  0.00    -0.010 C 
HETATM    8  C18 UNL     1      20.824   0.528  51.386  1.00  0.00     0.007 C 
HETATM    9  C19 UNL     1      20.501  -0.062  52.502  1.00  0.00     0.067 C 
HETATM   10  C20 UNL     1      19.227  -0.400  53.052  1.00  0.00     0.101 C 
HETATM   11  N2  UNL     1      18.206  -0.681  53.482  1.00  0.00    -0.191 NA
ENDROOT
BRANCH   7  12
HETATM   12  C11 UNL     1      22.726   1.793  50.337  1.00  0.00     0.216 C 
BRANCH  12  13
HETATM   13  O3  UNL     1      23.450   2.827  51.007  1.00  0.00    -0.347 OA
BRANCH  13  14
HETATM   14  C12 UNL     1      24.524   3.463  50.361  1.00  0.00     0.070 A 
HETATM   15  C13 UNL     1      25.828   3.051  50.313  1.00  0.00     0.037 A 
HETATM   16  C14 UNL     1      26.769   3.787  49.636  1.00  0.00     0.004 A 
HETATM   17  C15 UNL     1      26.379   4.953  49.004  1.00  0.00     0.019 A 
HETATM   18  C16 UNL     1      25.071   5.399  49.032  1.00  0.00     0.013 A 
HETATM   19 BR1  UNL     1      24.615   7.030  48.126  1.00  0.00    -0.051 Br
HETATM   20  C17 UNL     1      24.136   4.642  49.720  1.00  0.00     0.055 A 
ENDBRANCH  13  14
ENDBRANCH  12  13
ENDBRANCH   7  12
BRANCH   1  21
HETATM   21  N1  UNL     1      25.702  -0.738  54.475  1.00  0.00    -0.303 N 
HETATM   22  C3  UNL     1      26.570   0.335  54.742  1.00  0.00     0.365 C 
HETATM   23  O2  UNL     1      26.254   1.519  54.554  1.00  0.00    -0.238 OA
HETATM   24  H6  UNL     1      25.883  -1.768  54.602  1.00  0.00     0.171 HD
BRANCH  22  25
HETATM   25  O1  UNL     1      27.799  -0.084  55.233  1.00  0.00    -0.304 OA
BRANCH  25  26
HETATM   26  C2  UNL     1      29.015   0.282  54.565  1.00  0.00     0.176 C 
HETATM   27  C1  UNL     1      29.349  -0.928  53.681  1.00  0.00     0.034 C 
ENDBRANCH  25  26
ENDBRANCH  22  25
ENDBRANCH   1  21
TORSDOF 6
ENDMDL
MODEL 2
REMARK VINA RESULT:      -8.6      1.888      2.500
REMARK  6 active torsions:
REMARK  status: ('A' for Active; 'I' for Inactive)
REMARK    1  A    between atoms: C2_2  and  O1_3 
REMARK    2  A    between atoms: O1_3  and  C3_4 
REMARK       I    between atoms: C3_4  and  N1_6 
REMARK    3  A    between atoms: N1_6  and  C4_7 
REMARK    4  A    between atoms: C10_13  and  C11_14 
REMARK    5  A    between atoms: C11_14  and  O3_15 
REMARK    6  A    between atoms: O3_15  and  C12_16 
ROOT
HETATM    1  C4  UNL     1      25.071   0.411  52.813  1.00  0.00     0.037 A 
HETATM    2  C5  UNL     1      23.916   0.260  53.583  1.00  0.00     0.030 A 
HETATM    3  C6  UNL     1      22.783   0.950  53.205  1.00  0.00     0.016 A 
HETATM    4  C7  UNL     1      22.803   1.772  52.085  1.00  0.00    -0.004 A 
HETATM    5  C8  UNL     1      23.945   1.922  51.325  1.00  0.00    -0.013 A 
HETATM    6  C9  UNL     1      25.080   1.232  51.700  1.00  0.00     0.042 A 
HETATM    7  C10 UNL     1      23.636   2.838  50.239  1.00  0.00    -0.010 C 
HETATM    8  C18 UNL     1      22.344   3.042  50.330  1.00  0.00     0.007 C 
HETATM    9  C19 UNL     1      21.798   2.617  51.435  1.00  0.00     0.067 C 
HETATM   10  C20 UNL     1      20.507   2.856  51.998  1.00  0.00     0.101 C 
HETATM   11  N2  UNL     1      19.468   3.039  52.437  1.00  0.00    -0.191 NA
ENDROOT
BRANCH   7  12
HETATM   12  C11 UNL     1      24.606   3.376  49.285  1.00  0.00     0.216 C 
BRANCH  12  13
HETATM   13  O3  UNL     1      25.099   4.641  49.730  1.00  0.00    -0.347 OA
BRANCH  13  14
HETATM   14  C12 UNL     1      26.236   5.203  49.124  1.00  0.00     0.070 A 
HETATM   15  C13 UNL     1      27.452   4.605  48.921  1.00  0.00     0.037 A 
HETATM   16  C14 UNL     1      28.473   5.290  48.310  1.00  0.00     0.004 A 
HETATM   17  C15 UNL     1      28.256   6.594  47.905  1.00  0.00     0.019 A 
HETATM   18  C16 UNL     1      27.043   7.228  48.095  1.00  0.00     0.013 A 
HETATM   19 BR1  UNL     1      26.827   9.042  47.500  1.00  0.00    -0.051 Br
HETATM   20  C17 UNL     1      26.024   6.520  48.712  1.00  0.00     0.055 A 
ENDBRANCH  13  14
ENDBRANCH  12  13
ENDBRANCH   7  12
BRANCH   1  21
HETATM   21  N1  UNL     1      26.176  -0.346  53.295  1.00  0.00    -0.303 N 
HETATM   22  C3  UNL     1      27.086   0.151  54.245  1.00  0.00     0.365 C 
HETATM   23  O2  UNL     1      26.994   1.286  54.735  1.00  0.00    -0.238 OA
HETATM   24  H6  UNL     1      26.174  -1.288  52.826  1.00  0.00     0.171 HD
BRANCH  22  25
HETATM   25  O1  UNL     1      28.079  -0.766  54.560  1.00  0.00    -0.304 OA
BRANCH  25  26
HETATM   26  C2  UNL     1      29.039  -1.170  53.575  1.00  0.00     0.176 C 
HETATM   27  C1  UNL     1      30.095  -0.055  53.584  1.00  0.00     0.034 C 
ENDBRANCH  25  26
ENDBRANCH  22  25
ENDBRANCH   1  21
TORSDOF 6
ENDMDL
MODEL 3
REMARK VINA RESULT:      -8.4      1.517      1.932
REMARK  6 active torsions:
REMARK  status: ('A' for Active; 'I' for Inactive)
REMARK    1  A    between atoms: C2_2  and  O1_3 
REMARK    2  A    between atoms: O1_3  and  C3_4 
REMARK       I    between atoms: C3_4  and  N1_6 
REMARK    3  A    between atoms: N1_6  and  C4_7 
REMARK    4  A    between atoms: C10_13  and  C11_14 
REMARK    5  A    between atoms: C11_14  and  O3_15 
REMARK    6  A    between atoms: O3_15  and  C12_16 
ROOT
HETATM    1  C4  UNL     1      25.130   0.432  52.738  1.00  0.00     0.037 A 
HETATM    2  C5  UNL     1      24.392  -0.530  53.431  1.00  0.00     0.030 A 
HETATM    3  C6  UNL     1      23.025  -0.558  53.251  1.00  0.00     0.016 A 
HETATM    4  C7  UNL     1      22.409   0.353  52.402  1.00  0.00    -0.004 A 
HETATM    5  C8  UNL     1      23.139   1.304  51.718  1.00  0.00    -0.013 A 
HETATM    6  C9  UNL     1      24.508   1.334  51.895  1.00  0.00     0.042 A 
HETATM    7  C10 UNL     1      22.208   2.090  50.926  1.00  0.00    -0.010 C 
HETATM    8  C18 UNL     1      21.055   1.483  51.063  1.00  0.00     0.007 C 
HETATM    9  C19 UNL     1      21.018   0.583  52.004  1.00  0.00     0.067 C 
HETATM   10  C20 UNL     1      19.919  -0.105  52.604  1.00  0.00     0.101 C 
HETATM   11  N2  UNL     1      19.037  -0.662  53.072  1.00  0.00    -0.191 NA
ENDROOT
BRANCH   7  12
HETATM   12  C11 UNL     1      22.553   3.290  50.162  1.00  0.00     0.216 C 
BRANCH  12  13
HETATM   13  O3  UNL     1      22.807   4.388  51.040  1.00  0.00    -0.347 OA
BRANCH  13  14
HETATM   14  C12 UNL     1      23.771   5.352  50.697  1.00  0.00     0.070 A 
HETATM   15  C13 UNL     1      23.720   6.700  50.935  1.00  0.00     0.037 A 
HETATM   16  C14 UNL     1      24.749   7.518  50.536  1.00  0.00     0.004 A 
HETATM   17  C15 UNL     1      25.836   6.960  49.889  1.00  0.00     0.019 A 
HETATM   18  C16 UNL     1      25.919   5.605  49.633  1.00  0.00     0.013 A 
HETATM   19 BR1  UNL     1      27.467   4.913  48.728  1.00  0.00    -0.051 Br
HETATM   20  C17 UNL     1      24.872   4.796  50.044  1.00  0.00     0.055 A 
ENDBRANCH  13  14
ENDBRANCH  12  13
ENDBRANCH   7  12
BRANCH   1  21
HETATM   21  N1  UNL     1      26.528   0.368  52.999  1.00  0.00    -0.303 N 
HETATM   22  C3  UNL     1      27.206   1.326  53.773  1.00  0.00     0.365 C 
HETATM   23  O2  UNL     1      26.637   2.299  54.289  1.00  0.00    -0.238 OA
HETATM   24  H6  UNL     1      26.925  -0.484  52.525  1.00  0.00     0.171 HD
BRANCH  22  25
HETATM   25  O1  UNL     1      28.562   1.055  53.888  1.00  0.00    -0.304 OA
BRANCH  25  26
HETATM   26  C2  UNL     1      29.015  -0.142  54.536  1.00  0.00     0.176 C 
HETATM   27  C1  UNL     1      29.894  -0.840  53.489  1.00  0.00     0.034 C 
ENDBRANCH  25  26
ENDBRANCH  22  25
ENDBRANCH   1  21
TORSDOF 6
ENDMDL
MODEL 4
REMARK VINA RESULT:      -8.4      2.850      4.483
REMARK  6 active torsions:
REMARK  status: ('A' for Active; 'I' for Inactive)
REMARK    1  A    between atoms: C2_2  and  O1_3 
REMARK    2  A    between atoms: O1_3  and  C3_4 
REMARK       I    between atoms: C3_4  and  N1_6 
REMARK    3  A    between atoms: N1_6  and  C4_7 
REMARK    4  A    between atoms: C10_13  and  C11_14 
REMARK    5  A    between atoms: C11_14  and  O3_15 
REMARK    6  A    between atoms: O3_15  and  C12_16 
ROOT
HETATM    1  C4  UNL     1      25.330   2.302  51.966  1.00  0.00     0.037 A 
HETATM    2  C5  UNL     1      25.801   1.165  52.625  1.00  0.00     0.030 A 
HETATM    3  C6  UNL     1      24.887   0.352  53.262  1.00  0.00     0.016 A 
HETATM    4  C7  UNL     1      23.534   0.669  53.242  1.00  0.00    -0.004 A 
HETATM    5  C8  UNL     1      23.068   1.793  52.591  1.00  0.00    -0.013 A 
HETATM    6  C9  UNL     1      23.981   2.608  51.952  1.00  0.00     0.042 A 
HETATM    7  C10 UNL     1      21.625   1.834  52.758  1.00  0.00    -0.010 C 
HETATM    8  C18 UNL     1      21.322   0.699  53.338  1.00  0.00     0.007 C 
HETATM    9  C19 UNL     1      22.340   0.033  53.805  1.00  0.00     0.067 C 
HETATM   10  C20 UNL     1      22.404  -1.092  54.683  1.00  0.00     0.101 C 
HETATM   11  N2  UNL     1      22.450  -2.001  55.375  1.00  0.00    -0.191 NA
ENDROOT
BRANCH   7  12
HETATM   12  C11 UNL     1      20.758   2.938  52.342  1.00  0.00     0.216 C 
BRANCH  12  13
HETATM   13  O3  UNL     1      20.089   2.617  51.121  1.00  0.00    -0.347 OA
BRANCH  13  14
HETATM   14  C12 UNL     1      20.827   2.472  49.934  1.00  0.00     0.070 A 
HETATM   15  C13 UNL     1      21.132   1.307  49.281  1.00  0.00     0.037 A 
HETATM   16  C14 UNL     1      21.867   1.329  48.122  1.00  0.00     0.004 A 
HETATM   17  C15 UNL     1      22.298   2.545  47.625  1.00  0.00     0.019 A 
HETATM   18  C16 UNL     1      22.010   3.739  48.258  1.00  0.00     0.013 A 
HETATM   19 BR1  UNL     1      22.647   5.385  47.498  1.00  0.00    -0.051 Br
HETATM   20  C17 UNL     1      21.265   3.697  49.426  1.00  0.00     0.055 A 
ENDBRANCH  13  14
ENDBRANCH  12  13
ENDBRANCH   7  12
BRANCH   1  21
HETATM   21  N1  UNL     1      26.360   3.064  51.345  1.00  0.00    -0.303 N 
HETATM   22  C3  UNL     1      26.316   3.449  49.993  1.00  0.00     0.365 C 
HETATM   23  O2  UNL     1      25.377   3.155  49.240  1.00  0.00    -0.238 OA
HETATM   24  H6  UNL     1      27.110   3.266  52.055  1.00  0.00     0.171 HD
BRANCH  22  25
HETATM   25  O1  UNL     1      27.431   4.184  49.614  1.00  0.00    -0.304 OA
BRANCH  25  26
HETATM   26  C2  UNL     1      27.310   5.260  48.673  1.00  0.00     0.176 C 
HETATM   27  C1  UNL     1      28.755   5.589  48.273  1.00  0.00     0.034 C 
ENDBRANCH  25  26
ENDBRANCH  22  25
ENDBRANCH   1  21
TORSDOF 6
ENDMDL
MODEL 5
REMARK VINA RESULT:      -8.4      5.319      8.536
REMARK  6 active torsions:
REMARK  status: ('A' for Active; 'I' for Inactive)
REMARK    1  A    between atoms: C2_2  and  O1_3 
REMARK    2  A    between atoms: O1_3  and  C3_4 
REMARK       I    between atoms: C3_4  and  N1_6 
REMARK    3  A    between atoms: N1_6  and  C4_7 
REMARK    4  A    between atoms: C10_13  and  C11_14 
REMARK    5  A    between atoms: C11_14  and  O3_15 
REMARK    6  A    between atoms: O3_15  and  C12_16 
ROOT
HETATM    1  C4  UNL     1      29.784   5.987  47.855  1.00  0.00     0.037 A 
HETATM    2  C5  UNL     1      29.339   7.256  47.480  1.00  0.00     0.030 A 
HETATM    3  C6  UNL     1      28.007   7.564  47.666  1.00  0.00     0.016 A 
HETATM    4  C7  UNL     1      27.140   6.624  48.212  1.00  0.00    -0.004 A 
HETATM    5  C8  UNL     1      27.580   5.370  48.582  1.00  0.00    -0.013 A 
HETATM    6  C9  UNL     1      28.913   5.060  48.398  1.00  0.00     0.042 A 
HETATM    7  C10 UNL     1      26.440   4.640  49.111  1.00  0.00    -0.010 C 
HETATM    8  C18 UNL     1      25.473   5.522  49.164  1.00  0.00     0.007 C 
HETATM    9  C19 UNL     1      25.710   6.636  48.530  1.00  0.00     0.067 C 
HETATM   10  C20 UNL     1      24.845   7.712  48.164  1.00  0.00     0.101 C 
HETATM   11  N2  UNL     1      24.152   8.577  47.886  1.00  0.00    -0.191 NA
ENDROOT
BRANCH   7  12
HETATM   12  C11 UNL     1      26.443   3.225  49.485  1.00  0.00     0.216 C 
BRANCH  12  13
HETATM   13  O3  UNL     1      26.934   3.059  50.816  1.00  0.00    -0.347 OA
BRANCH  13  14
HETATM   14  C12 UNL     1      26.470   1.994  51.607  1.00  0.00     0.070 A 
HETATM   15  C13 UNL     1      27.223   1.079  52.294  1.00  0.00     0.037 A 
HETATM   16  C14 UNL     1      26.619   0.089  53.029  1.00  0.00     0.004 A 
HETATM   17  C15 UNL     1      25.238   0.028  53.063  1.00  0.00     0.019 A 
HETATM   18  C16 UNL     1      24.448   0.934  52.382  1.00  0.00     0.013 A 
HETATM   19 BR1  UNL     1      22.536   0.778  52.485  1.00  0.00    -0.051 Br
HETATM   20  C17 UNL     1      25.076   1.927  51.647  1.00  0.00     0.055 A 
ENDBRANCH  13  14
ENDBRANCH  12  13
ENDBRANCH   7  12
BRANCH   1  21
HETATM   21  N1  UNL     1      31.173   5.782  47.619  1.00  0.00    -0.303 N 
HETATM   22  C3  UNL     1      32.099   5.556  48.653  1.00  0.00     0.365 C 
HETATM   23  O2  UNL     1      31.775   5.518  49.849  1.00  0.00    -0.238 OA
HETATM   24  H6  UNL     1      31.354   5.832  46.583  1.00  0.00     0.171 HD
BRANCH  22  25
HETATM   25  O1  UNL     1      33.392   5.385  48.181  1.00  0.00    -0.304 OA
BRANCH  25  26
HETATM   26  C2  UNL     1      33.675   4.419  47.160  1.00  0.00     0.176 C 
HETATM   27  C1  UNL     1      34.587   3.390  47.842  1.00  0.00     0.034 C 
ENDBRANCH  25  26
ENDBRANCH  22  25
ENDBRANCH   1  21
TORSDOF 6
ENDMDL
MODEL 6
REMARK VINA RESULT:      -8.4      2.330      5.698
REMARK  6 active torsions:
REMARK  status: ('A' for Active; 'I' for Inactive)
REMARK    1  A    between atoms: C2_2  and  O1_3 
REMARK    2  A    between atoms: O1_3  and  C3_4 
REMARK       I    between atoms: C3_4  and  N1_6 
REMARK    3  A    between atoms: N1_6  and  C4_7 
REMARK    4  A    between atoms: C10_13  and  C11_14 
REMARK    5  A    between atoms: C11_14  and  O3_15 
REMARK    6  A    between atoms: O3_15  and  C12_16 
ROOT
HETATM    1  C4  UNL     1      22.392   0.651  52.155  1.00  0.00     0.037 A 
HETATM    2  C5  UNL     1      22.834  -0.145  53.213  1.00  0.00     0.030 A 
HETATM    3  C6  UNL     1      24.176  -0.121  53.534  1.00  0.00     0.016 A 
HETATM    4  C7  UNL     1      25.055   0.678  52.812  1.00  0.00    -0.004 A 
HETATM    5  C8  UNL     1      24.617   1.464  51.766  1.00  0.00    -0.013 A 
HETATM    6  C9  UNL     1      23.275   1.443  51.444  1.00  0.00     0.042 A 
HETATM    7  C10 UNL     1      25.770   2.168  51.230  1.00  0.00    -0.010 C 
HETATM    8  C18 UNL     1      26.748   1.887  52.055  1.00  0.00     0.007 C 
HETATM    9  C19 UNL     1      26.497   0.923  52.896  1.00  0.00     0.067 C 
HETATM   10  C20 UNL     1      27.357   0.186  53.766  1.00  0.00     0.101 C 
HETATM   11  N2  UNL     1      28.048  -0.392  54.470  1.00  0.00    -0.191 NA
ENDROOT
BRANCH   7  12
HETATM   12  C11 UNL     1      25.768   2.997  50.024  1.00  0.00     0.216 C 
BRANCH  12  13
HETATM   13  O3  UNL     1      27.063   3.557  49.798  1.00  0.00    -0.347 OA
BRANCH  13  14
HETATM   14  C12 UNL     1      27.189   4.784  49.122  1.00  0.00     0.070 A 
HETATM   15  C13 UNL     1      28.294   5.265  48.472  1.00  0.00     0.037 A 
HETATM   16  C14 UNL     1      28.260   6.491  47.854  1.00  0.00     0.004 A 
HETATM   17  C15 UNL     1      27.094   7.232  47.900  1.00  0.00     0.019 A 
HETATM   18  C16 UNL     1      25.962   6.777  48.547  1.00  0.00     0.013 A 
HETATM   19 BR1  UNL     1      24.383   7.872  48.562  1.00  0.00    -0.051 Br
HETATM   20  C17 UNL     1      26.015   5.537  49.164  1.00  0.00     0.055 A 
ENDBRANCH  13  14
ENDBRANCH  12  13
ENDBRANCH   7  12
BRANCH   1  21
HETATM   21  N1  UNL     1      20.992   0.547  51.915  1.00  0.00    -0.303 N 
HETATM   22  C3  UNL     1      20.067   1.506  52.365  1.00  0.00     0.365 C 
HETATM   23  O2  UNL     1      20.400   2.515  53.003  1.00  0.00    -0.238 OA
HETATM   24  H6  UNL     1      20.804  -0.335  51.372  1.00  0.00     0.171 HD
BRANCH  22  25
HETATM   25  O1  UNL     1      18.762   1.190  52.014  1.00  0.00    -0.304 OA
BRANCH  25  26
HETATM   26  C2  UNL     1      18.454  -0.072  51.406  1.00  0.00     0.176 C 
HETATM   27  C1  UNL     1      17.652  -0.830  52.472  1.00  0.00     0.034 C 
ENDBRANCH  25  26
ENDBRANCH  22  25
ENDBRANCH   1  21
TORSDOF 6
ENDMDL
MODEL 7
REMARK VINA RESULT:      -8.3      3.327      6.063
REMARK  6 active torsions:
REMARK  status: ('A' for Active; 'I' for Inactive)
REMARK    1  A    between atoms: C2_2  and  O1_3 
REMARK    2  A    between atoms: O1_3  and  C3_4 
REMARK       I    between atoms: C3_4  and  N1_6 
REMARK    3  A    between atoms: N1_6  and  C4_7 
REMARK    4  A    between atoms: C10_13  and  C11_14 
REMARK    5  A    between atoms: C11_14  and  O3_15 
REMARK    6  A    between atoms: O3_15  and  C12_16 
ROOT
HETATM    1  C4  UNL     1      26.040   1.504  51.711  1.00  0.00     0.037 A 
HETATM    2  C5  UNL     1      26.820   2.529  51.172  1.00  0.00     0.030 A 
HETATM    3  C6  UNL     1      26.187   3.526  50.458  1.00  0.00     0.016 A 
HETATM    4  C7  UNL     1      24.808   3.498  50.286  1.00  0.00    -0.004 A 
HETATM    5  C8  UNL     1      24.039   2.484  50.818  1.00  0.00    -0.013 A 
HETATM    6  C9  UNL     1      24.669   1.486  51.533  1.00  0.00     0.042 A 
HETATM    7  C10 UNL     1      22.654   2.748  50.462  1.00  0.00    -0.010 C 
HETATM    8  C18 UNL     1      22.672   3.931  49.900  1.00  0.00     0.007 C 
HETATM    9  C19 UNL     1      23.859   4.379  49.602  1.00  0.00     0.067 C 
HETATM   10  C20 UNL     1      24.271   5.481  48.792  1.00  0.00     0.101 C 
HETATM   11  N2  UNL     1      24.597   6.372  48.154  1.00  0.00    -0.191 NA
ENDROOT
BRANCH   7  12
HETATM   12  C11 UNL     1      21.531   1.843  50.710  1.00  0.00     0.216 C 
BRANCH  12  13
HETATM   13  O3  UNL     1      21.126   1.908  52.079  1.00  0.00    -0.347 OA
BRANCH  13  14
HETATM   14  C12 UNL     1      21.060   0.734  52.848  1.00  0.00     0.070 A 
HETATM   15  C13 UNL     1      22.061   0.170  53.593  1.00  0.00     0.037 A 
HETATM   16  C14 UNL     1      21.840  -0.989  54.295  1.00  0.00     0.004 A 
HETATM   17  C15 UNL     1      20.592  -1.579  54.238  1.00  0.00     0.019 A 
HETATM   18  C16 UNL     1      19.559  -1.038  53.496  1.00  0.00     0.013 A 
HETATM   19 BR1  UNL     1      17.854  -1.923  53.473  1.00  0.00    -0.051 Br
HETATM   20  C17 UNL     1      19.801   0.132  52.795  1.00  0.00     0.055 A 
ENDBRANCH  13  14
ENDBRANCH  12  13
ENDBRANCH   7  12
BRANCH   1  21
HETATM   21  N1  UNL     1      26.797   0.533  52.425  1.00  0.00    -0.303 N 
HETATM   22  C3  UNL     1      27.014   0.603  53.813  1.00  0.00     0.365 C 
HETATM   23  O2  UNL     1      26.561   1.515  54.519  1.00  0.00    -0.238 OA
HETATM   24  H6  UNL     1      27.141  -0.197  51.749  1.00  0.00     0.171 HD
BRANCH  22  25
HETATM   25  O1  UNL     1      27.781  -0.452  54.285  1.00  0.00    -0.304 OA
BRANCH  25  26
HETATM   26  C2  UNL     1      28.559  -1.251  53.383  1.00  0.00     0.176 C 
HETATM   27  C1  UNL     1      30.009  -0.811  53.627  1.00  0.00     0.034 C 
ENDBRANCH  25  26
ENDBRANCH  22  25
ENDBRANCH   1  21
TORSDOF 6
ENDMDL
MODEL 8
REMARK VINA RESULT:      -8.3      4.038      6.648
REMARK  6 active torsions:
REMARK  status: ('A' for Active; 'I' for Inactive)
REMARK    1  A    between atoms: C2_2  and  O1_3 
REMARK    2  A    between atoms: O1_3  and  C3_4 
REMARK       I    between atoms: C3_4  and  N1_6 
REMARK    3  A    between atoms: N1_6  and  C4_7 
REMARK    4  A    between atoms: C10_13  and  C11_14 
REMARK    5  A    between atoms: C11_14  and  O3_15 
REMARK    6  A    between atoms: O3_15  and  C12_16 
ROOT
HETATM    1  C4  UNL     1      25.233   0.679  53.037  1.00  0.00     0.037 A 
HETATM    2  C5  UNL     1      25.431   2.003  52.640  1.00  0.00     0.030 A 
HETATM    3  C6  UNL     1      24.323   2.773  52.355  1.00  0.00     0.016 A 
HETATM    4  C7  UNL     1      23.047   2.232  52.461  1.00  0.00    -0.004 A 
HETATM    5  C8  UNL     1      22.851   0.924  52.853  1.00  0.00    -0.013 A 
HETATM    6  C9  UNL     1      23.958   0.152  53.141  1.00  0.00     0.042 A 
HETATM    7  C10 UNL     1      21.419   0.675  52.864  1.00  0.00    -0.010 C 
HETATM    8  C18 UNL     1      20.874   1.845  52.639  1.00  0.00     0.007 C 
HETATM    9  C19 UNL     1      21.702   2.768  52.236  1.00  0.00     0.067 C 
HETATM   10  C20 UNL     1      21.468   4.062  51.677  1.00  0.00     0.101 C 
HETATM   11  N2  UNL     1      21.276   5.101  51.243  1.00  0.00    -0.191 NA
ENDROOT
BRANCH   7  12
HETATM   12  C11 UNL     1      20.789  -0.627  53.086  1.00  0.00     0.216 C 
BRANCH  12  13
HETATM   13  O3  UNL     1      19.543  -0.472  53.768  1.00  0.00    -0.347 OA
BRANCH  13  14
HETATM   14  C12 UNL     1      18.364  -0.985  53.200  1.00  0.00     0.070 A 
HETATM   15  C13 UNL     1      17.537  -0.367  52.301  1.00  0.00     0.037 A 
HETATM   16  C14 UNL     1      16.414  -1.004  51.835  1.00  0.00     0.004 A 
HETATM   17  C15 UNL     1      16.129  -2.278  52.289  1.00  0.00     0.019 A 
HETATM   18  C16 UNL     1      16.941  -2.931  53.197  1.00  0.00     0.013 A 
HETATM   19 BR1  UNL     1      16.471  -4.702  53.775  1.00  0.00    -0.051 Br
HETATM   20  C17 UNL     1      18.071  -2.273  53.655  1.00  0.00     0.055 A 
ENDBRANCH  13  14
ENDBRANCH  12  13
ENDBRANCH   7  12
BRANCH   1  21
HETATM   21  N1  UNL     1      26.444  -0.019  53.306  1.00  0.00    -0.303 N 
HETATM   22  C3  UNL     1      27.078   0.007  54.561  1.00  0.00     0.365 C 
HETATM   23  O2  UNL     1      26.629   0.638  55.529  1.00  0.00    -0.238 OA
HETATM   24  H6  UNL     1      26.749  -0.522  52.434  1.00  0.00     0.171 HD
BRANCH  22  25
HETATM   25  O1  UNL     1      28.244  -0.746  54.583  1.00  0.00    -0.304 OA
BRANCH  25  26
HETATM   26  C2  UNL     1      28.924  -1.075  53.364  1.00  0.00     0.176 C 
HETATM   27  C1  UNL     1      30.120  -0.115  53.316  1.00  0.00     0.034 C 
ENDBRANCH  25  26
ENDBRANCH  22  25
ENDBRANCH   1  21
TORSDOF 6
ENDMDL
MODEL 9
REMARK VINA RESULT:      -8.3      3.109      4.588
REMARK  6 active torsions:
REMARK  status: ('A' for Active; 'I' for Inactive)
REMARK    1  A    between atoms: C2_2  and  O1_3 
REMARK    2  A    between atoms: O1_3  and  C3_4 
REMARK       I    between atoms: C3_4  and  N1_6 
REMARK    3  A    between atoms: N1_6  and  C4_7 
REMARK    4  A    between atoms: C10_13  and  C11_14 
REMARK    5  A    between atoms: C11_14  and  O3_15 
REMARK    6  A    between atoms: O3_15  and  C12_16 
ROOT
HETATM    1  C4  UNL     1      26.052   1.026  52.234  1.00  0.00     0.037 A 
HETATM    2  C5  UNL     1      24.716   0.992  52.638  1.00  0.00     0.030 A 
HETATM    3  C6  UNL     1      23.831   1.868  52.044  1.00  0.00     0.016 A 
HETATM    4  C7  UNL     1      24.271   2.757  51.071  1.00  0.00    -0.004 A 
HETATM    5  C8  UNL     1      25.591   2.790  50.672  1.00  0.00    -0.013 A 
HETATM    6  C9  UNL     1      26.479   1.915  51.264  1.00  0.00     0.042 A 
HETATM    7  C10 UNL     1      25.719   3.817  49.652  1.00  0.00    -0.010 C 
HETATM    8  C18 UNL     1      24.491   4.204  49.409  1.00  0.00     0.007 C 
HETATM    9  C19 UNL     1      23.605   3.786  50.269  1.00  0.00     0.067 C 
HETATM   10  C20 UNL     1      22.246   4.173  50.481  1.00  0.00     0.101 C 
HETATM   11  N2  UNL     1      21.155   4.476  50.638  1.00  0.00    -0.191 NA
ENDROOT
BRANCH   7  12
HETATM   12  C11 UNL     1      26.980   4.273  49.064  1.00  0.00     0.216 C 
BRANCH  12  13
HETATM   13  O3  UNL     1      26.907   5.661  48.734  1.00  0.00    -0.347 OA
BRANCH  13  14
HETATM   14  C12 UNL     1      28.003   6.295  48.123  1.00  0.00     0.070 A 
HETATM   15  C13 UNL     1      28.005   7.489  47.452  1.00  0.00     0.037 A 
HETATM   16  C14 UNL     1      29.165   7.981  46.907  1.00  0.00     0.004 A 
HETATM   17  C15 UNL     1      30.332   7.252  47.045  1.00  0.00     0.019 A 
HETATM   18  C16 UNL     1      30.366   6.044  47.715  1.00  0.00     0.013 A 
HETATM   19 BR1  UNL     1      32.031   5.096  47.862  1.00  0.00    -0.051 Br
HETATM   20  C17 UNL     1      29.185   5.565  48.260  1.00  0.00     0.055 A 
ENDBRANCH  13  14
ENDBRANCH  12  13
ENDBRANCH   7  12
BRANCH   1  21
HETATM   21  N1  UNL     1      26.873   0.080  52.912  1.00  0.00    -0.303 N 
HETATM   22  C3  UNL     1      27.683   0.420  54.010  1.00  0.00     0.365 C 
HETATM   23  O2  UNL     1      27.743   1.569  54.471  1.00  0.00    -0.238 OA
HETATM   24  H6  UNL     1      26.759  -0.861  52.454  1.00  0.00     0.171 HD
BRANCH  22  25
HETATM   25  O1  UNL     1      28.392  -0.665  54.504  1.00  0.00    -0.304 OA
BRANCH  25  26
HETATM   26  C2  UNL     1      29.599  -1.102  53.864  1.00  0.00     0.176 C 
HETATM   27  C1  UNL     1      29.249  -2.474  53.272  1.00  0.00     0.034 C 
ENDBRANCH  25  26
ENDBRANCH  22  25
ENDBRANCH   1  21
TORSDOF 6
ENDMDL
