MODEL 1
REMARK VINA RESULT:      -7.7      0.000      0.000
REMARK  6 active torsions:
REMARK  status: ('A' for Active; 'I' for Inactive)
REMARK    1  A    between atoms: C2_2  and  C3_3 
REMARK    2  A    between atoms: C3_3  and  C4_4 
REMARK    3  A    between atoms: C8_8  and  N1_9 
REMARK    4  A    between atoms: N1_9  and  C9_10 
REMARK    5  A    between atoms: C9_10  and  C10_11 
REMARK    6  A    between atoms: C10_11  and  C11_12 
ROOT
HETATM    1  C4  UNL     1      27.436   0.948  54.220  1.00  0.00     0.041 C 
HETATM    2  C5  UNL     1      26.884   1.617  53.219  1.00  0.00     0.060 A 
HETATM    3  C6  UNL     1      25.446   1.967  53.091  1.00  0.00     0.110 A 
HETATM    4  C7  UNL     1      25.418   2.701  51.798  1.00  0.00     0.028 A 
HETATM    5  C8  UNL     1      24.348   3.291  51.117  1.00  0.00     0.040 A 
HETATM    6  C17 UNL     1      24.691   3.892  49.927  1.00  0.00     0.049 A 
HETATM    7  C18 UNL     1      25.956   3.954  49.384  1.00  0.00     0.122 A 
HETATM    8  N2  UNL     1      26.953   3.363  50.091  1.00  0.00    -0.236 NA
HETATM    9  C19 UNL     1      26.673   2.766  51.248  1.00  0.00     0.178 A 
HETATM   10  O1  UNL     1      27.538   2.117  52.104  1.00  0.00    -0.295 OA
ENDROOT
BRANCH   5  11
HETATM   11  N1  UNL     1      23.036   3.229  51.640  1.00  0.00    -0.389 N 
HETATM   12  H7  UNL     1      22.883   3.753  52.538  1.00  0.00     0.159 HD
BRANCH  11  13
HETATM   13  C9  UNL     1      21.841   2.571  51.165  1.00  0.00     0.124 C 
BRANCH  13  14
HETATM   14  C10 UNL     1      22.108   1.086  51.109  1.00  0.00     0.058 C 
BRANCH  14  15
HETATM   15  C11 UNL     1      21.963   0.463  52.452  1.00  0.00    -0.057 A 
HETATM   16  C12 UNL     1      20.902   0.819  53.224  1.00  0.00     0.007 A 
HETATM   17  C13 UNL     1      20.704   0.274  54.492  1.00  0.00     0.001 A 
HETATM   18  C14 UNL     1      21.652  -0.647  54.919  1.00  0.00     0.000 A 
HETATM   19  C15 UNL     1      22.730  -1.027  54.172  1.00  0.00     0.001 A 
HETATM   20  C16 UNL     1      22.886  -0.457  52.909  1.00  0.00     0.007 A 
ENDBRANCH  14  15
ENDBRANCH  13  14
ENDBRANCH  11  13
ENDBRANCH   5  11
BRANCH   1  21
HETATM   21  C3  UNL     1      28.870   0.680  54.201  1.00  0.00     0.053 C 
BRANCH  21  22
HETATM   22  C2  UNL     1      29.311  -0.527  53.877  1.00  0.00    -0.155 C 
HETATM   23  C1  UNL     1      29.522  -1.732  53.370  1.00  0.00     0.096 C 
ENDBRANCH  21  22
ENDBRANCH   1  21
TORSDOF 6
ENDMDL
MODEL 2
REMARK VINA RESULT:      -7.5      1.613      4.786
REMARK  6 active torsions:
REMARK  status: ('A' for Active; 'I' for Inactive)
REMARK    1  A    between atoms: C2_2  and  C3_3 
REMARK    2  A    between atoms: C3_3  and  C4_4 
REMARK    3  A    between atoms: C8_8  and  N1_9 
REMARK    4  A    between atoms: N1_9  and  C9_10 
REMARK    5  A    between atoms: C9_10  and  C10_11 
REMARK    6  A    between atoms: C10_11  and  C11_12 
ROOT
HETATM    1  C4  UNL     1      28.146   1.922  53.796  1.00  0.00     0.041 C 
HETATM    2  C5  UNL     1      26.879   1.588  53.598  1.00  0.00     0.060 A 
HETATM    3  C6  UNL     1      25.847   2.429  52.940  1.00  0.00     0.110 A 
HETATM    4  C7  UNL     1      24.645   1.554  53.001  1.00  0.00     0.028 A 
HETATM    5  C8  UNL     1      23.342   1.776  52.545  1.00  0.00     0.040 A 
HETATM    6  C17 UNL     1      22.473   0.734  52.775  1.00  0.00     0.049 A 
HETATM    7  C18 UNL     1      22.781  -0.460  53.391  1.00  0.00     0.122 A 
HETATM    8  N2  UNL     1      24.062  -0.616  53.813  1.00  0.00    -0.236 NA
HETATM    9  C19 UNL     1      24.943   0.364  53.615  1.00  0.00     0.178 A 
HETATM   10  O1  UNL     1      26.275   0.396  53.966  1.00  0.00    -0.295 OA
ENDROOT
BRANCH   5  11
HETATM   11  N1  UNL     1      22.991   2.997  51.924  1.00  0.00    -0.389 N 
HETATM   12  H7  UNL     1      23.170   3.861  52.494  1.00  0.00     0.159 HD
BRANCH  11  13
HETATM   13  C9  UNL     1      22.422   3.288  50.628  1.00  0.00     0.124 C 
BRANCH  13  14
HETATM   14  C10 UNL     1      23.361   2.761  49.569  1.00  0.00     0.058 C 
BRANCH  14  15
HETATM   15  C11 UNL     1      24.506   3.687  49.358  1.00  0.00    -0.057 A 
HETATM   16  C12 UNL     1      24.246   4.980  49.026  1.00  0.00     0.007 A 
HETATM   17  C13 UNL     1      25.271   5.901  48.814  1.00  0.00     0.001 A 
HETATM   18  C14 UNL     1      26.566   5.422  48.959  1.00  0.00     0.000 A 
HETATM   19  C15 UNL     1      26.865   4.132  49.290  1.00  0.00     0.001 A 
HETATM   20  C16 UNL     1      25.807   3.246  49.495  1.00  0.00     0.007 A 
ENDBRANCH  14  15
ENDBRANCH  13  14
ENDBRANCH  11  13
ENDBRANCH   5  11
BRANCH   1  21
HETATM   21  C3  UNL     1      29.041   0.982  54.462  1.00  0.00     0.053 C 
BRANCH  21  22
HETATM   22  C2  UNL     1      29.483  -0.082  53.808  1.00  0.00    -0.155 C 
HETATM   23  C1  UNL     1      29.719  -1.286  53.309  1.00  0.00     0.096 C 
ENDBRANCH  21  22
ENDBRANCH   1  21
TORSDOF 6
ENDMDL
MODEL 3
REMARK VINA RESULT:      -7.3      1.880      5.958
REMARK  6 active torsions:
REMARK  status: ('A' for Active; 'I' for Inactive)
REMARK    1  A    between atoms: C2_2  and  C3_3 
REMARK    2  A    between atoms: C3_3  and  C4_4 
REMARK    3  A    between atoms: C8_8  and  N1_9 
REMARK    4  A    between atoms: N1_9  and  C9_10 
REMARK    5  A    between atoms: C9_10  and  C10_11 
REMARK    6  A    between atoms: C10_11  and  C11_12 
ROOT
HETATM    1  C4  UNL     1      22.532  -0.981  54.224  1.00  0.00     0.041 C 
HETATM    2  C5  UNL     1      22.816  -0.130  53.250  1.00  0.00     0.060 A 
HETATM    3  C6  UNL     1      23.990   0.779  53.199  1.00  0.00     0.110 A 
HETATM    4  C7  UNL     1      23.787   1.478  51.902  1.00  0.00     0.028 A 
HETATM    5  C8  UNL     1      24.558   2.464  51.277  1.00  0.00     0.040 A 
HETATM    6  C17 UNL     1      24.063   2.891  50.065  1.00  0.00     0.049 A 
HETATM    7  C18 UNL     1      22.916   2.437  49.451  1.00  0.00     0.122 A 
HETATM    8  N2  UNL     1      22.210   1.480  50.107  1.00  0.00    -0.236 NA
HETATM    9  C19 UNL     1      22.646   1.033  51.283  1.00  0.00     0.178 A 
HETATM   10  O1  UNL     1      22.077   0.076  52.095  1.00  0.00    -0.295 OA
ENDROOT
BRANCH   5  11
HETATM   11  N1  UNL     1      25.730   2.962  51.890  1.00  0.00    -0.389 N 
HETATM   12  H7  UNL     1      25.602   3.827  52.472  1.00  0.00     0.159 HD
BRANCH  11  13
HETATM   13  C9  UNL     1      27.098   2.498  51.868  1.00  0.00     0.124 C 
BRANCH  13  14
HETATM   14  C10 UNL     1      27.476   2.071  53.267  1.00  0.00     0.058 C 
BRANCH  14  15
HETATM   15  C11 UNL     1      28.067   0.706  53.270  1.00  0.00    -0.057 A 
HETATM   16  C12 UNL     1      29.364   0.559  53.653  1.00  0.00     0.007 A 
HETATM   17  C13 UNL     1      29.982  -0.690  53.680  1.00  0.00     0.001 A 
HETATM   18  C14 UNL     1      29.199  -1.770  53.292  1.00  0.00     0.000 A 
HETATM   19  C15 UNL     1      27.897  -1.660  52.900  1.00  0.00     0.001 A 
HETATM   20  C16 UNL     1      27.319  -0.390  52.890  1.00  0.00     0.007 A 
ENDBRANCH  14  15
ENDBRANCH  13  14
ENDBRANCH  11  13
ENDBRANCH   5  11
BRANCH   1  21
HETATM   21  C3  UNL     1      21.336  -1.810  54.128  1.00  0.00     0.053 C 
BRANCH  21  22
HETATM   22  C2  UNL     1      20.164  -1.248  53.869  1.00  0.00    -0.155 C 
HETATM   23  C1  UNL     1      19.147  -0.535  53.411  1.00  0.00     0.096 C 
ENDBRANCH  21  22
ENDBRANCH   1  21
TORSDOF 6
ENDMDL
MODEL 4
REMARK VINA RESULT:      -7.3      1.910      4.778
REMARK  6 active torsions:
REMARK  status: ('A' for Active; 'I' for Inactive)
REMARK    1  A    between atoms: C2_2  and  C3_3 
REMARK    2  A    between atoms: C3_3  and  C4_4 
REMARK    3  A    between atoms: C8_8  and  N1_9 
REMARK    4  A    between atoms: N1_9  and  C9_10 
REMARK    5  A    between atoms: C9_10  and  C10_11 
REMARK    6  A    between atoms: C10_11  and  C11_12 
ROOT
HETATM    1  C4  UNL     1      26.111   3.272  49.675  1.00  0.00     0.041 C 
HETATM    2  C5  UNL     1      26.361   2.552  50.758  1.00  0.00     0.060 A 
HETATM    3  C6  UNL     1      25.492   1.483  51.316  1.00  0.00     0.110 A 
HETATM    4  C7  UNL     1      26.265   1.042  52.507  1.00  0.00     0.028 A 
HETATM    5  C8  UNL     1      25.977   0.056  53.456  1.00  0.00     0.040 A 
HETATM    6  C17 UNL     1      26.931  -0.084  54.439  1.00  0.00     0.049 A 
HETATM    7  C18 UNL     1      28.098   0.642  54.548  1.00  0.00     0.122 A 
HETATM    8  N2  UNL     1      28.321   1.584  53.597  1.00  0.00    -0.236 NA
HETATM    9  C19 UNL     1      27.428   1.760  52.625  1.00  0.00     0.178 A 
HETATM   10  O1  UNL     1      27.473   2.656  51.578  1.00  0.00    -0.295 OA
ENDROOT
BRANCH   5  11
HETATM   11  N1  UNL     1      24.781  -0.693  53.381  1.00  0.00    -0.389 N 
HETATM   12  H7  UNL     1      24.788  -1.485  52.691  1.00  0.00     0.159 HD
BRANCH  11  13
HETATM   13  C9  UNL     1      23.526  -0.575  54.087  1.00  0.00     0.124 C 
BRANCH  13  14
HETATM   14  C10 UNL     1      22.406  -0.855  53.113  1.00  0.00     0.058 C 
BRANCH  14  15
HETATM   15  C11 UNL     1      22.091   0.348  52.297  1.00  0.00    -0.057 A 
HETATM   16  C12 UNL     1      22.229   1.575  52.866  1.00  0.00     0.007 A 
HETATM   17  C13 UNL     1      21.952   2.744  52.159  1.00  0.00     0.001 A 
HETATM   18  C14 UNL     1      21.525   2.582  50.847  1.00  0.00     0.000 A 
HETATM   19  C15 UNL     1      21.374   1.367  50.245  1.00  0.00     0.001 A 
HETATM   20  C16 UNL     1      21.665   0.224  50.990  1.00  0.00     0.007 A 
ENDBRANCH  14  15
ENDBRANCH  13  14
ENDBRANCH  11  13
ENDBRANCH   5  11
BRANCH   1  21
HETATM   21  C3  UNL     1      27.066   4.290  49.253  1.00  0.00     0.053 C 
BRANCH  21  22
HETATM   22  C2  UNL     1      26.629   5.461  48.814  1.00  0.00    -0.155 C 
HETATM   23  C1  UNL     1      25.932   6.529  48.459  1.00  0.00     0.096 C 
ENDBRANCH  21  22
ENDBRANCH   1  21
TORSDOF 6
ENDMDL
MODEL 5
REMARK VINA RESULT:      -7.2      2.500      7.143
REMARK  6 active torsions:
REMARK  status: ('A' for Active; 'I' for Inactive)
REMARK    1  A    between atoms: C2_2  and  C3_3 
REMARK    2  A    between atoms: C3_3  and  C4_4 
REMARK    3  A    between atoms: C8_8  and  N1_9 
REMARK    4  A    between atoms: N1_9  and  C9_10 
REMARK    5  A    between atoms: C9_10  and  C10_11 
REMARK    6  A    between atoms: C10_11  and  C11_12 
ROOT
HETATM    1  C4  UNL     1      21.541   0.550  53.210  1.00  0.00     0.041 C 
HETATM    2  C5  UNL     1      22.862   0.482  53.152  1.00  0.00     0.060 A 
HETATM    3  C6  UNL     1      23.762   1.496  52.543  1.00  0.00     0.110 A 
HETATM    4  C7  UNL     1      25.104   0.896  52.768  1.00  0.00     0.028 A 
HETATM    5  C8  UNL     1      26.374   1.370  52.423  1.00  0.00     0.040 A 
HETATM    6  C17 UNL     1      27.411   0.542  52.792  1.00  0.00     0.049 A 
HETATM    7  C18 UNL     1      27.292  -0.664  53.448  1.00  0.00     0.122 A 
HETATM    8  N2  UNL     1      26.034  -1.070  53.757  1.00  0.00    -0.236 NA
HETATM    9  C19 UNL     1      24.997  -0.306  53.421  1.00  0.00     0.178 A 
HETATM   10  O1  UNL     1      23.657  -0.542  53.643  1.00  0.00    -0.295 OA
ENDROOT
BRANCH   5  11
HETATM   11  N1  UNL     1      26.527   2.594  51.734  1.00  0.00    -0.389 N 
HETATM   12  H7  UNL     1      26.622   3.445  52.342  1.00  0.00     0.159 HD
BRANCH  11  13
HETATM   13  C9  UNL     1      26.579   2.905  50.323  1.00  0.00     0.124 C 
BRANCH  13  14
HETATM   14  C10 UNL     1      25.477   3.890  50.014  1.00  0.00     0.058 C 
BRANCH  14  15
HETATM   15  C11 UNL     1      25.994   5.048  49.238  1.00  0.00    -0.057 A 
HETATM   16  C12 UNL     1      27.304   5.055  48.873  1.00  0.00     0.007 A 
HETATM   17  C13 UNL     1      27.855   6.108  48.144  1.00  0.00     0.001 A 
HETATM   18  C14 UNL     1      26.991   7.146  47.817  1.00  0.00     0.000 A 
HETATM   19  C15 UNL     1      25.673   7.173  48.167  1.00  0.00     0.001 A 
HETATM   20  C16 UNL     1      25.164   6.097  48.894  1.00  0.00     0.007 A 
ENDBRANCH  14  15
ENDBRANCH  13  14
ENDBRANCH  11  13
ENDBRANCH   5  11
BRANCH   1  21
HETATM   21  C3  UNL     1      20.793  -0.531  53.843  1.00  0.00     0.053 C 
BRANCH  21  22
HETATM   22  C2  UNL     1      19.554  -0.792  53.453  1.00  0.00    -0.155 C 
HETATM   23  C1  UNL     1      18.397  -0.911  52.820  1.00  0.00     0.096 C 
ENDBRANCH  21  22
ENDBRANCH   1  21
TORSDOF 6
ENDMDL
MODEL 6
REMARK VINA RESULT:      -7.1      3.196      7.862
REMARK  6 active torsions:
REMARK  status: ('A' for Active; 'I' for Inactive)
REMARK    1  A    between atoms: C2_2  and  C3_3 
REMARK    2  A    between atoms: C3_3  and  C4_4 
REMARK    3  A    between atoms: C8_8  and  N1_9 
REMARK    4  A    between atoms: N1_9  and  C9_10 
REMARK    5  A    between atoms: C9_10  and  C10_11 
REMARK    6  A    between atoms: C10_11  and  C11_12 
ROOT
HETATM    1  C4  UNL     1      18.520   0.375  51.884  1.00  0.00     0.041 C 
HETATM    2  C5  UNL     1      19.648   0.083  52.515  1.00  0.00     0.060 A 
HETATM    3  C6  UNL     1      20.983   0.670  52.232  1.00  0.00     0.110 A 
HETATM    4  C7  UNL     1      21.845  -0.019  53.229  1.00  0.00     0.028 A 
HETATM    5  C8  UNL     1      23.217   0.099  53.473  1.00  0.00     0.040 A 
HETATM    6  C17 UNL     1      23.687  -0.704  54.487  1.00  0.00     0.049 A 
HETATM    7  C18 UNL     1      22.937  -1.577  55.246  1.00  0.00     0.122 A 
HETATM    8  N2  UNL     1      21.611  -1.648  54.961  1.00  0.00    -0.236 NA
HETATM    9  C19 UNL     1      21.106  -0.891  53.989  1.00  0.00     0.178 A 
HETATM   10  O1  UNL     1      19.801  -0.822  53.554  1.00  0.00    -0.295 OA
ENDROOT
BRANCH   5  11
HETATM   11  N1  UNL     1      24.016   0.973  52.701  1.00  0.00    -0.389 N 
HETATM   12  H7  UNL     1      23.622   1.936  52.557  1.00  0.00     0.159 HD
BRANCH  11  13
HETATM   13  C9  UNL     1      25.298   0.790  52.059  1.00  0.00     0.124 C 
BRANCH  13  14
HETATM   14  C10 UNL     1      26.375   1.241  53.016  1.00  0.00     0.058 C 
BRANCH  14  15
HETATM   15  C11 UNL     1      27.452   0.222  53.132  1.00  0.00    -0.057 A 
HETATM   16  C12 UNL     1      27.168  -1.066  52.800  1.00  0.00     0.007 A 
HETATM   17  C13 UNL     1      28.130  -2.072  52.885  1.00  0.00     0.001 A 
HETATM   18  C14 UNL     1      29.387  -1.684  53.327  1.00  0.00     0.000 A 
HETATM   19  C15 UNL     1      29.707  -0.402  53.669  1.00  0.00     0.001 A 
HETATM   20  C16 UNL     1      28.714   0.572  53.568  1.00  0.00     0.007 A 
ENDBRANCH  14  15
ENDBRANCH  13  14
ENDBRANCH  11  13
ENDBRANCH   5  11
BRANCH   1  21
HETATM   21  C3  UNL     1      17.284  -0.290  52.279  1.00  0.00     0.053 C 
BRANCH  21  22
HETATM   22  C2  UNL     1      16.466  -0.767  51.351  1.00  0.00    -0.155 C 
HETATM   23  C1  UNL     1      15.719  -0.995  50.283  1.00  0.00     0.096 C 
ENDBRANCH  21  22
ENDBRANCH   1  21
TORSDOF 6
ENDMDL
MODEL 7
REMARK VINA RESULT:      -6.9      1.422      2.230
REMARK  6 active torsions:
REMARK  status: ('A' for Active; 'I' for Inactive)
REMARK    1  A    between atoms: C2_2  and  C3_3 
REMARK    2  A    between atoms: C3_3  and  C4_4 
REMARK    3  A    between atoms: C8_8  and  N1_9 
REMARK    4  A    between atoms: N1_9  and  C9_10 
REMARK    5  A    between atoms: C9_10  and  C10_11 
REMARK    6  A    between atoms: C10_11  and  C11_12 
ROOT
HETATM    1  C4  UNL     1      25.967  -0.232  52.998  1.00  0.00     0.041 C 
HETATM    2  C5  UNL     1      25.848   0.895  52.313  1.00  0.00     0.060 A 
HETATM    3  C6  UNL     1      24.759   1.895  52.461  1.00  0.00     0.110 A 
HETATM    4  C7  UNL     1      25.142   2.924  51.457  1.00  0.00     0.028 A 
HETATM    5  C8  UNL     1      24.515   4.125  51.111  1.00  0.00     0.040 A 
HETATM    6  C17 UNL     1      25.157   4.838  50.124  1.00  0.00     0.049 A 
HETATM    7  C18 UNL     1      26.320   4.471  49.482  1.00  0.00     0.122 A 
HETATM    8  N2  UNL     1      26.881   3.294  49.861  1.00  0.00    -0.236 NA
HETATM    9  C19 UNL     1      26.299   2.566  50.812  1.00  0.00     0.178 A 
HETATM   10  O1  UNL     1      26.709   1.356  51.330  1.00  0.00    -0.295 OA
ENDROOT
BRANCH   5  11
HETATM   11  N1  UNL     1      23.312   4.521  51.739  1.00  0.00    -0.389 N 
HETATM   12  H7  UNL     1      23.333   4.528  52.789  1.00  0.00     0.159 HD
BRANCH  11  13
HETATM   13  C9  UNL     1      22.034   4.925  51.201  1.00  0.00     0.124 C 
BRANCH  13  14
HETATM   14  C10 UNL     1      20.953   4.147  51.912  1.00  0.00     0.058 C 
BRANCH  14  15
HETATM   15  C11 UNL     1      21.107   2.685  51.686  1.00  0.00    -0.057 A 
HETATM   16  C12 UNL     1      21.296   2.238  50.416  1.00  0.00     0.007 A 
HETATM   17  C13 UNL     1      21.448   0.882  50.133  1.00  0.00     0.001 A 
HETATM   18  C14 UNL     1      21.392   0.018  51.219  1.00  0.00     0.000 A 
HETATM   19  C15 UNL     1      21.203   0.431  52.507  1.00  0.00     0.001 A 
HETATM   20  C16 UNL     1      21.057   1.798  52.743  1.00  0.00     0.007 A 
ENDBRANCH  14  15
ENDBRANCH  13  14
ENDBRANCH  11  13
ENDBRANCH   5  11
BRANCH   1  21
HETATM   21  C3  UNL     1      27.098  -1.116  52.736  1.00  0.00     0.053 C 
BRANCH  21  22
HETATM   22  C2  UNL     1      28.257  -0.900  53.342  1.00  0.00    -0.155 C 
HETATM   23  C1  UNL     1      29.499  -0.592  53.682  1.00  0.00     0.096 C 
ENDBRANCH  21  22
ENDBRANCH   1  21
TORSDOF 6
ENDMDL
MODEL 8
REMARK VINA RESULT:      -6.9      2.553      6.639
REMARK  6 active torsions:
REMARK  status: ('A' for Active; 'I' for Inactive)
REMARK    1  A    between atoms: C2_2  and  C3_3 
REMARK    2  A    between atoms: C3_3  and  C4_4 
REMARK    3  A    between atoms: C8_8  and  N1_9 
REMARK    4  A    between atoms: N1_9  and  C9_10 
REMARK    5  A    between atoms: C9_10  and  C10_11 
REMARK    6  A    between atoms: C10_11  and  C11_12 
ROOT
HETATM    1  C4  UNL     1      19.796  -0.505  53.520  1.00  0.00     0.041 C 
HETATM    2  C5  UNL     1      20.681   0.159  52.792  1.00  0.00     0.060 A 
HETATM    3  C6  UNL     1      22.016   0.623  53.250  1.00  0.00     0.110 A 
HETATM    4  C7  UNL     1      22.548   1.291  52.032  1.00  0.00     0.028 A 
HETATM    5  C8  UNL     1      23.771   1.935  51.817  1.00  0.00     0.040 A 
HETATM    6  C17 UNL     1      23.929   2.448  50.549  1.00  0.00     0.049 A 
HETATM    7  C18 UNL     1      23.012   2.375  49.523  1.00  0.00     0.122 A 
HETATM    8  N2  UNL     1      21.844   1.738  49.793  1.00  0.00    -0.236 NA
HETATM    9  C19 UNL     1      21.641   1.224  51.005  1.00  0.00     0.178 A 
HETATM   10  O1  UNL     1      20.533   0.548  51.470  1.00  0.00    -0.295 OA
ENDROOT
BRANCH   5  11
HETATM   11  N1  UNL     1      24.725   2.041  52.854  1.00  0.00    -0.389 N 
HETATM   12  H7  UNL     1      25.006   3.020  53.110  1.00  0.00     0.159 HD
BRANCH  11  13
HETATM   13  C9  UNL     1      25.400   1.039  53.647  1.00  0.00     0.124 C 
BRANCH  13  14
HETATM   14  C10 UNL     1      25.660  -0.162  52.770  1.00  0.00     0.058 C 
BRANCH  14  15
HETATM   15  C11 UNL     1      27.024  -0.709  52.998  1.00  0.00    -0.057 A 
HETATM   16  C12 UNL     1      27.262  -2.015  52.698  1.00  0.00     0.007 A 
HETATM   17  C13 UNL     1      28.516  -2.592  52.887  1.00  0.00     0.001 A 
HETATM   18  C14 UNL     1      29.504  -1.760  53.399  1.00  0.00     0.000 A 
HETATM   19  C15 UNL     1      29.302  -0.447  53.712  1.00  0.00     0.001 A 
HETATM   20  C16 UNL     1      28.031   0.088  53.505  1.00  0.00     0.007 A 
ENDBRANCH  14  15
ENDBRANCH  13  14
ENDBRANCH  11  13
ENDBRANCH   5  11
BRANCH   1  21
HETATM   21  C3  UNL     1      18.521  -0.892  52.925  1.00  0.00     0.053 C 
BRANCH  21  22
HETATM   22  C2  UNL     1      18.000  -2.079  53.199  1.00  0.00    -0.155 C 
HETATM   23  C1  UNL     1      17.411  -3.140  53.729  1.00  0.00     0.096 C 
ENDBRANCH  21  22
ENDBRANCH   1  21
TORSDOF 6
ENDMDL
MODEL 9
REMARK VINA RESULT:      -6.8      2.620      5.124
REMARK  6 active torsions:
REMARK  status: ('A' for Active; 'I' for Inactive)
REMARK    1  A    between atoms: C2_2  and  C3_3 
REMARK    2  A    between atoms: C3_3  and  C4_4 
REMARK    3  A    between atoms: C8_8  and  N1_9 
REMARK    4  A    between atoms: N1_9  and  C9_10 
REMARK    5  A    between atoms: C9_10  and  C10_11 
REMARK    6  A    between atoms: C10_11  and  C11_12 
ROOT
HETATM    1  C4  UNL     1      26.169   0.537  52.129  1.00  0.00     0.041 C 
HETATM    2  C5  UNL     1      24.940   0.345  52.583  1.00  0.00     0.060 A 
HETATM    3  C6  UNL     1      23.746   1.162  52.243  1.00  0.00     0.110 A 
HETATM    4  C7  UNL     1      22.675   0.492  53.030  1.00  0.00     0.028 A 
HETATM    5  C8  UNL     1      21.313   0.789  53.136  1.00  0.00     0.040 A 
HETATM    6  C17 UNL     1      20.610  -0.053  53.968  1.00  0.00     0.049 A 
HETATM    7  C18 UNL     1      21.128  -1.120  54.670  1.00  0.00     0.122 A 
HETATM    8  N2  UNL     1      22.457  -1.358  54.526  1.00  0.00    -0.236 NA
HETATM    9  C19 UNL     1      23.183  -0.571  53.733  1.00  0.00     0.178 A 
HETATM   10  O1  UNL     1      24.531  -0.648  53.460  1.00  0.00    -0.295 OA
ENDROOT
BRANCH   5  11
HETATM   11  N1  UNL     1      20.755   1.887  52.442  1.00  0.00    -0.389 N 
HETATM   12  H7  UNL     1      21.264   2.798  52.557  1.00  0.00     0.159 HD
BRANCH  11  13
HETATM   13  C9  UNL     1      19.596   1.996  51.587  1.00  0.00     0.124 C 
BRANCH  13  14
HETATM   14  C10 UNL     1      19.801   1.093  50.394  1.00  0.00     0.058 C 
BRANCH  14  15
HETATM   15  C11 UNL     1      20.535   1.796  49.308  1.00  0.00    -0.057 A 
HETATM   16  C12 UNL     1      21.653   1.215  48.795  1.00  0.00     0.007 A 
HETATM   17  C13 UNL     1      22.389   1.818  47.776  1.00  0.00     0.001 A 
HETATM   18  C14 UNL     1      21.918   3.043  47.321  1.00  0.00     0.000 A 
HETATM   19  C15 UNL     1      20.802   3.656  47.813  1.00  0.00     0.001 A 
HETATM   20  C16 UNL     1      20.096   3.015  48.831  1.00  0.00     0.007 A 
ENDBRANCH  14  15
ENDBRANCH  13  14
ENDBRANCH  11  13
ENDBRANCH   5  11
BRANCH   1  21
HETATM   21  C3  UNL     1      27.241  -0.354  52.559  1.00  0.00     0.053 C 
BRANCH  21  22
HETATM   22  C2  UNL     1      28.026  -0.002  53.566  1.00  0.00    -0.155 C 
HETATM   23  C1  UNL     1      28.610   0.212  54.736  1.00  0.00     0.096 C 
ENDBRANCH  21  22
ENDBRANCH   1  21
TORSDOF 6
ENDMDL
