MODEL 1
REMARK VINA RESULT:      -8.4      0.000      0.000
REMARK  1 active torsions:
REMARK  status: ('A' for Active; 'I' for Inactive)
REMARK    1  A    between atoms: C2_2  and  C3_3 
REMARK       I    between atoms: C3_3  and  N1_5 
ROOT
HETATM    1  C3  UNL     1      27.287   1.936  52.885  1.00  0.00     0.242 C 
HETATM    2  O1  UNL     1      28.436   2.326  52.581  1.00  0.00    -0.268 OA
HETATM    3  N1  UNL     1      26.245   2.341  52.010  1.00  0.00    -0.344 N 
HETATM    4  C4  UNL     1      26.538   3.144  50.866  1.00  0.00     0.131 C 
HETATM    5  C5  UNL     1      25.570   3.052  49.740  1.00  0.00     0.059 C 
HETATM    6  C6  UNL     1      24.148   3.037  50.119  1.00  0.00    -0.038 C 
HETATM    7  C7  UNL     1      23.305   3.099  49.001  1.00  0.00     0.058 C 
HETATM    8  C8  UNL     1      22.272   4.049  48.916  1.00  0.00     0.125 C 
HETATM    9  N2  UNL     1      22.535   5.414  48.790  1.00  0.00    -0.225 NA
HETATM   10  C9  UNL     1      22.409   6.239  49.919  1.00  0.00     0.236 C 
HETATM   11  N3  UNL     1      21.883   6.049  51.211  1.00  0.00    -0.236 NA
HETATM   12  C10 UNL     1      21.539   4.745  51.581  1.00  0.00     0.109 C 
HETATM   13  S1  UNL     1      22.809   3.894  52.398  1.00  0.00    -0.074 SA
HETATM   14  C11 UNL     1      23.959   2.963  51.508  1.00  0.00     0.009 C 
HETATM   15  C12 UNL     1      24.845   1.997  52.182  1.00  0.00     0.172 C 
HETATM   16  C13 UNL     1      20.267   4.128  51.274  1.00  0.00     0.220 C 
HETATM   17  O2  UNL     1      20.091   3.194  52.570  1.00  0.00    -0.300 OA
HETATM   18  C14 UNL     1      19.550   2.030  52.102  1.00  0.00    -0.013 C 
HETATM   19  C15 UNL     1      19.127   1.129  51.715  1.00  0.00     0.068 A 
HETATM   20  C16 UNL     1      18.606   0.026  51.212  1.00  0.00     0.022 A 
HETATM   21  C17 UNL     1      18.574   1.047  50.129  1.00  0.00     0.018 A 
HETATM   22  C18 UNL     1      18.958   2.505  49.888  1.00  0.00     0.035 C 
HETATM   23  C19 UNL     1      20.274   3.049  50.211  1.00  0.00     0.120 C 
HETATM   24  N4  UNL     1      20.945   3.461  48.997  1.00  0.00    -0.367 N 
HETATM   25  H18 UNL     1      20.526   3.371  48.038  1.00  0.00     0.161 HD
ENDROOT
BRANCH   1  26
HETATM   26  C2  UNL     1      27.109   1.126  54.067  1.00  0.00     0.064 C 
HETATM   27  C1  UNL     1      28.157   0.409  54.456  1.00  0.00     0.017 C 
ENDBRANCH   1  26
TORSDOF 1
ENDMDL
MODEL 2
REMARK VINA RESULT:      -8.2      2.822      5.309
REMARK  1 active torsions:
REMARK  status: ('A' for Active; 'I' for Inactive)
REMARK    1  A    between atoms: C2_2  and  C3_3 
REMARK       I    between atoms: C3_3  and  N1_5 
ROOT
HETATM    1  C3  UNL     1      27.717   0.292  53.624  1.00  0.00     0.242 C 
HETATM    2  O1  UNL     1      27.371  -0.737  54.243  1.00  0.00    -0.268 OA
HETATM    3  N1  UNL     1      26.664   1.149  53.207  1.00  0.00    -0.344 N 
HETATM    4  C4  UNL     1      25.307   0.814  53.500  1.00  0.00     0.131 C 
HETATM    5  C5  UNL     1      24.353   1.954  53.558  1.00  0.00     0.059 C 
HETATM    6  C6  UNL     1      24.511   2.973  52.508  1.00  0.00    -0.038 C 
HETATM    7  C7  UNL     1      23.486   3.929  52.545  1.00  0.00     0.058 C 
HETATM    8  C8  UNL     1      22.747   4.253  51.393  1.00  0.00     0.125 C 
HETATM    9  N2  UNL     1      21.872   3.342  50.799  1.00  0.00    -0.225 NA
HETATM   10  C9  UNL     1      22.279   2.667  49.637  1.00  0.00     0.236 C 
HETATM   11  N3  UNL     1      23.369   2.810  48.758  1.00  0.00    -0.236 NA
HETATM   12  C10 UNL     1      24.394   3.680  49.139  1.00  0.00     0.109 C 
HETATM   13  S1  UNL     1      25.687   2.903  49.992  1.00  0.00    -0.074 SA
HETATM   14  C11 UNL     1      25.647   2.759  51.712  1.00  0.00     0.009 C 
HETATM   15  C12 UNL     1      26.852   2.389  52.476  1.00  0.00     0.172 C 
HETATM   16  C13 UNL     1      24.372   5.107  48.900  1.00  0.00     0.220 C 
HETATM   17  O2  UNL     1      25.941   5.376  48.677  1.00  0.00    -0.300 OA
HETATM   18  C14 UNL     1      26.191   6.570  49.294  1.00  0.00    -0.013 C 
HETATM   19  C15 UNL     1      26.364   7.504  49.782  1.00  0.00     0.068 A 
HETATM   20  C16 UNL     1      26.552   8.659  50.391  1.00  0.00     0.022 A 
HETATM   21  C17 UNL     1      25.080   8.445  50.324  1.00  0.00     0.018 A 
HETATM   22  C18 UNL     1      24.071   7.422  49.807  1.00  0.00     0.035 C 
HETATM   23  C19 UNL     1      24.155   5.995  50.108  1.00  0.00     0.120 C 
HETATM   24  N4  UNL     1      23.013   5.595  50.901  1.00  0.00    -0.367 N 
HETATM   25  H18 UNL     1      22.251   6.252  51.203  1.00  0.00     0.161 HD
ENDROOT
BRANCH   1  26
HETATM   26  C2  UNL     1      29.122   0.529  53.384  1.00  0.00     0.064 C 
HETATM   27  C1  UNL     1      29.932  -0.511  53.544  1.00  0.00     0.017 C 
ENDBRANCH   1  26
TORSDOF 1
ENDMDL
MODEL 3
REMARK VINA RESULT:      -7.8      2.432      4.576
REMARK  1 active torsions:
REMARK  status: ('A' for Active; 'I' for Inactive)
REMARK    1  A    between atoms: C2_2  and  C3_3 
REMARK       I    between atoms: C3_3  and  N1_5 
ROOT
HETATM    1  C3  UNL     1      25.925  -0.136  54.093  1.00  0.00     0.242 C 
HETATM    2  O1  UNL     1      25.683  -1.248  54.611  1.00  0.00    -0.268 OA
HETATM    3  N1  UNL     1      24.820   0.517  53.484  1.00  0.00    -0.344 N 
HETATM    4  C4  UNL     1      23.531  -0.098  53.487  1.00  0.00     0.131 C 
HETATM    5  C5  UNL     1      22.370   0.825  53.368  1.00  0.00     0.059 C 
HETATM    6  C6  UNL     1      22.517   1.914  52.390  1.00  0.00    -0.038 C 
HETATM    7  C7  UNL     1      21.330   2.643  52.233  1.00  0.00     0.058 C 
HETATM    8  C8  UNL     1      20.782   2.880  50.960  1.00  0.00     0.125 C 
HETATM    9  N2  UNL     1      20.248   1.850  50.184  1.00  0.00    -0.225 NA
HETATM   10  C9  UNL     1      21.006   1.339  49.119  1.00  0.00     0.236 C 
HETATM   11  N3  UNL     1      22.194   1.747  48.483  1.00  0.00    -0.236 NA
HETATM   12  C10 UNL     1      22.923   2.780  49.081  1.00  0.00     0.109 C 
HETATM   13  S1  UNL     1      24.155   2.227  50.167  1.00  0.00    -0.074 SA
HETATM   14  C11 UNL     1      23.807   1.977  51.840  1.00  0.00     0.009 C 
HETATM   15  C12 UNL     1      24.888   1.810  52.829  1.00  0.00     0.172 C 
HETATM   16  C13 UNL     1      22.653   4.186  48.867  1.00  0.00     0.220 C 
HETATM   17  O2  UNL     1      24.145   4.774  48.975  1.00  0.00    -0.300 OA
HETATM   18  C14 UNL     1      24.017   5.955  49.649  1.00  0.00    -0.013 C 
HETATM   19  C15 UNL     1      23.894   6.875  50.178  1.00  0.00     0.068 A 
HETATM   20  C16 UNL     1      23.716   8.006  50.833  1.00  0.00     0.022 A 
HETATM   21  C17 UNL     1      22.362   7.508  50.463  1.00  0.00     0.018 A 
HETATM   22  C18 UNL     1      21.709   6.337  49.733  1.00  0.00     0.035 C 
HETATM   23  C19 UNL     1      22.024   4.941  50.020  1.00  0.00     0.120 C 
HETATM   24  N4  UNL     1      20.856   4.275  50.556  1.00  0.00    -0.367 N 
HETATM   25  H18 UNL     1      19.931   4.749  50.706  1.00  0.00     0.161 HD
ENDROOT
BRANCH   1  26
HETATM   26  C2  UNL     1      27.269   0.389  54.150  1.00  0.00     0.064 C 
HETATM   27  C1  UNL     1      28.200  -0.302  53.502  1.00  0.00     0.017 C 
ENDBRANCH   1  26
TORSDOF 1
ENDMDL
MODEL 4
REMARK VINA RESULT:      -7.7      8.423     12.125
REMARK  1 active torsions:
REMARK  status: ('A' for Active; 'I' for Inactive)
REMARK    1  A    between atoms: C2_2  and  C3_3 
REMARK       I    between atoms: C3_3  and  N1_5 
ROOT
HETATM    1  C3  UNL     1      27.506   9.054  47.748  1.00  0.00     0.242 C 
HETATM    2  O1  UNL     1      27.175  10.185  48.165  1.00  0.00    -0.268 OA
HETATM    3  N1  UNL     1      28.857   8.682  47.975  1.00  0.00    -0.344 N 
HETATM    4  C4  UNL     1      29.747   9.577  48.644  1.00  0.00     0.131 C 
HETATM    5  C5  UNL     1      30.906   8.949  49.333  1.00  0.00     0.059 C 
HETATM    6  C6  UNL     1      31.579   7.868  48.596  1.00  0.00    -0.038 C 
HETATM    7  C7  UNL     1      32.744   7.435  49.245  1.00  0.00     0.058 C 
HETATM    8  C8  UNL     1      33.970   7.347  48.564  1.00  0.00     0.125 C 
HETATM    9  N2  UNL     1      34.647   8.482  48.115  1.00  0.00    -0.225 NA
HETATM   10  C9  UNL     1      34.582   8.819  46.753  1.00  0.00     0.236 C 
HETATM   11  N3  UNL     1      34.105   8.156  45.607  1.00  0.00    -0.236 NA
HETATM   12  C10 UNL     1      33.381   6.975  45.800  1.00  0.00     0.109 C 
HETATM   13  S1  UNL     1      31.668   7.214  45.897  1.00  0.00    -0.074 SA
HETATM   14  C11 UNL     1      30.905   7.516  47.417  1.00  0.00     0.009 C 
HETATM   15  C12 UNL     1      29.442   7.417  47.570  1.00  0.00     0.172 C 
HETATM   16  C13 UNL     1      33.991   5.672  45.959  1.00  0.00     0.220 C 
HETATM   17  O2  UNL     1      32.872   4.755  45.260  1.00  0.00    -0.300 OA
HETATM   18  C14 UNL     1      32.803   3.626  46.027  1.00  0.00    -0.013 C 
HETATM   19  C15 UNL     1      32.766   2.753  46.641  1.00  0.00     0.068 A 
HETATM   20  C16 UNL     1      32.739   1.685  47.415  1.00  0.00     0.022 A 
HETATM   21  C17 UNL     1      33.922   2.486  47.833  1.00  0.00     0.018 A 
HETATM   22  C18 UNL     1      34.638   3.786  47.473  1.00  0.00     0.035 C 
HETATM   23  C19 UNL     1      33.950   5.068  47.348  1.00  0.00     0.120 C 
HETATM   24  N4  UNL     1      34.421   5.978  48.370  1.00  0.00    -0.367 N 
HETATM   25  H18 UNL     1      35.149   5.728  49.084  1.00  0.00     0.161 HD
ENDROOT
BRANCH   1  26
HETATM   26  C2  UNL     1      26.521   8.233  47.085  1.00  0.00     0.064 C 
HETATM   27  C1  UNL     1      25.729   7.511  47.870  1.00  0.00     0.017 C 
ENDBRANCH   1  26
TORSDOF 1
ENDMDL
MODEL 5
REMARK VINA RESULT:      -7.7      2.962      5.743
REMARK  1 active torsions:
REMARK  status: ('A' for Active; 'I' for Inactive)
REMARK    1  A    between atoms: C2_2  and  C3_3 
REMARK       I    between atoms: C3_3  and  N1_5 
ROOT
HETATM    1  C3  UNL     1      24.638   7.482  47.430  1.00  0.00     0.242 C 
HETATM    2  O1  UNL     1      23.967   8.037  46.533  1.00  0.00    -0.268 OA
HETATM    3  N1  UNL     1      24.089   6.286  47.964  1.00  0.00    -0.344 N 
HETATM    4  C4  UNL     1      22.843   5.787  47.475  1.00  0.00     0.131 C 
HETATM    5  C5  UNL     1      22.620   4.325  47.637  1.00  0.00     0.059 C 
HETATM    6  C6  UNL     1      23.035   3.754  48.928  1.00  0.00    -0.038 C 
HETATM    7  C7  UNL     1      22.655   2.410  49.055  1.00  0.00     0.058 C 
HETATM    8  C8  UNL     1      21.950   1.953  50.182  1.00  0.00     0.125 C 
HETATM    9  N2  UNL     1      20.634   2.345  50.436  1.00  0.00    -0.225 NA
HETATM   10  C9  UNL     1      20.393   3.328  51.409  1.00  0.00     0.236 C 
HETATM   11  N3  UNL     1      21.194   3.948  52.388  1.00  0.00    -0.236 NA
HETATM   12  C10 UNL     1      22.570   3.708  52.341  1.00  0.00     0.109 C 
HETATM   13  S1  UNL     1      23.453   4.888  51.430  1.00  0.00    -0.074 SA
HETATM   14  C11 UNL     1      23.715   4.678  49.736  1.00  0.00     0.009 C 
HETATM   15  C12 UNL     1      24.707   5.491  49.010  1.00  0.00     0.172 C 
HETATM   16  C13 UNL     1      23.209   2.559  52.945  1.00  0.00     0.220 C 
HETATM   17  O2  UNL     1      24.615   3.214  53.367  1.00  0.00    -0.300 OA
HETATM   18  C14 UNL     1      25.550   2.250  53.112  1.00  0.00    -0.013 C 
HETATM   19  C15 UNL     1      26.264   1.483  52.905  1.00  0.00     0.068 A 
HETATM   20  C16 UNL     1      27.126   0.520  52.641  1.00  0.00     0.022 A 
HETATM   21  C17 UNL     1      25.768  -0.077  52.520  1.00  0.00     0.018 A 
HETATM   22  C18 UNL     1      24.300   0.323  52.658  1.00  0.00     0.035 C 
HETATM   23  C19 UNL     1      23.726   1.493  52.000  1.00  0.00     0.120 C 
HETATM   24  N4  UNL     1      22.735   1.073  51.032  1.00  0.00    -0.367 N 
HETATM   25  H18 UNL     1      22.485   0.070  50.849  1.00  0.00     0.161 HD
ENDROOT
BRANCH   1  26
HETATM   26  C2  UNL     1      25.886   8.078  47.846  1.00  0.00     0.064 C 
HETATM   27  C1  UNL     1      26.833   8.171  46.920  1.00  0.00     0.017 C 
ENDBRANCH   1  26
TORSDOF 1
ENDMDL
MODEL 6
REMARK VINA RESULT:      -7.6      2.852      4.095
REMARK  1 active torsions:
REMARK  status: ('A' for Active; 'I' for Inactive)
REMARK    1  A    between atoms: C2_2  and  C3_3 
REMARK       I    between atoms: C3_3  and  N1_5 
ROOT
HETATM    1  C3  UNL     1      23.526  -0.088  53.132  1.00  0.00     0.242 C 
HETATM    2  O1  UNL     1      24.350  -0.361  54.032  1.00  0.00    -0.268 OA
HETATM    3  N1  UNL     1      23.849   1.027  52.314  1.00  0.00    -0.344 N 
HETATM    4  C4  UNL     1      25.051   1.763  52.544  1.00  0.00     0.131 C 
HETATM    5  C5  UNL     1      25.595   2.502  51.374  1.00  0.00     0.059 C 
HETATM    6  C6  UNL     1      24.604   3.208  50.546  1.00  0.00    -0.038 C 
HETATM    7  C7  UNL     1      25.210   3.997  49.558  1.00  0.00     0.058 C 
HETATM    8  C8  UNL     1      24.874   5.352  49.397  1.00  0.00     0.125 C 
HETATM    9  N2  UNL     1      25.200   6.311  50.358  1.00  0.00    -0.225 NA
HETATM   10  C9  UNL     1      24.198   6.769  51.228  1.00  0.00     0.236 C 
HETATM   11  N3  UNL     1      22.800   6.615  51.272  1.00  0.00    -0.236 NA
HETATM   12  C10 UNL     1      22.225   5.694  50.392  1.00  0.00     0.109 C 
HETATM   13  S1  UNL     1      22.029   4.111  51.069  1.00  0.00    -0.074 SA
HETATM   14  C11 UNL     1      23.283   2.932  50.930  1.00  0.00     0.009 C 
HETATM   15  C12 UNL     1      23.028   1.508  51.218  1.00  0.00     0.172 C 
HETATM   16  C13 UNL     1      21.869   6.000  49.023  1.00  0.00     0.220 C 
HETATM   17  O2  UNL     1      20.577   5.058  48.855  1.00  0.00    -0.300 OA
HETATM   18  C14 UNL     1      20.663   4.554  47.588  1.00  0.00    -0.013 C 
HETATM   19  C15 UNL     1      20.751   4.173  46.594  1.00  0.00     0.068 A 
HETATM   20  C16 UNL     1      20.881   3.715  45.364  1.00  0.00     0.022 A 
HETATM   21  C17 UNL     1      21.894   4.793  45.528  1.00  0.00     0.018 A 
HETATM   22  C18 UNL     1      22.384   5.784  46.582  1.00  0.00     0.035 C 
HETATM   23  C19 UNL     1      22.740   5.391  47.943  1.00  0.00     0.120 C 
HETATM   24  N4  UNL     1      24.151   5.621  48.164  1.00  0.00    -0.367 N 
HETATM   25  H18 UNL     1      24.801   6.012  47.438  1.00  0.00     0.161 HD
ENDROOT
BRANCH   1  26
HETATM   26  C2  UNL     1      22.343  -0.903  52.992  1.00  0.00     0.064 C 
HETATM   27  C1  UNL     1      21.586  -1.037  54.075  1.00  0.00     0.017 C 
ENDBRANCH   1  26
TORSDOF 1
ENDMDL
MODEL 7
REMARK VINA RESULT:      -7.5      9.700     12.592
REMARK  1 active torsions:
REMARK  status: ('A' for Active; 'I' for Inactive)
REMARK    1  A    between atoms: C2_2  and  C3_3 
REMARK       I    between atoms: C3_3  and  N1_5 
ROOT
HETATM    1  C3  UNL     1      34.126   4.909  41.541  1.00  0.00     0.242 C 
HETATM    2  O1  UNL     1      35.119   5.157  40.823  1.00  0.00    -0.268 OA
HETATM    3  N1  UNL     1      33.983   5.716  42.700  1.00  0.00    -0.344 N 
HETATM    4  C4  UNL     1      34.940   6.737  42.988  1.00  0.00     0.131 C 
HETATM    5  C5  UNL     1      34.457   7.862  43.833  1.00  0.00     0.059 C 
HETATM    6  C6  UNL     1      33.614   7.485  44.978  1.00  0.00    -0.038 C 
HETATM    7  C7  UNL     1      33.327   8.582  45.803  1.00  0.00     0.058 C 
HETATM    8  C8  UNL     1      33.548   8.530  47.191  1.00  0.00     0.125 C 
HETATM    9  N2  UNL     1      34.833   8.465  47.730  1.00  0.00    -0.225 NA
HETATM   10  C9  UNL     1      35.313   7.231  48.197  1.00  0.00     0.236 C 
HETATM   11  N3  UNL     1      34.716   5.977  48.429  1.00  0.00    -0.236 NA
HETATM   12  C10 UNL     1      33.408   5.792  47.971  1.00  0.00     0.109 C 
HETATM   13  S1  UNL     1      33.316   5.106  46.382  1.00  0.00    -0.074 SA
HETATM   14  C11 UNL     1      33.288   6.120  44.985  1.00  0.00     0.009 C 
HETATM   15  C12 UNL     1      32.905   5.590  43.664  1.00  0.00     0.172 C 
HETATM   16  C13 UNL     1      32.230   6.179  48.716  1.00  0.00     0.220 C 
HETATM   17  O2  UNL     1      31.213   5.027  48.247  1.00  0.00    -0.300 OA
HETATM   18  C14 UNL     1      30.007   5.652  48.096  1.00  0.00    -0.013 C 
HETATM   19  C15 UNL     1      29.075   6.160  47.985  1.00  0.00     0.068 A 
HETATM   20  C16 UNL     1      27.935   6.811  47.854  1.00  0.00     0.022 A 
HETATM   21  C17 UNL     1      28.884   7.741  48.527  1.00  0.00     0.018 A 
HETATM   22  C18 UNL     1      30.327   7.777  49.026  1.00  0.00     0.035 C 
HETATM   23  C19 UNL     1      31.466   7.383  48.203  1.00  0.00     0.120 C 
HETATM   24  N4  UNL     1      32.318   8.529  47.967  1.00  0.00    -0.367 N 
HETATM   25  H18 UNL     1      32.122   9.490  48.342  1.00  0.00     0.161 HD
ENDROOT
BRANCH   1  26
HETATM   26  C2  UNL     1      33.223   3.851  41.152  1.00  0.00     0.064 C 
HETATM   27  C1  UNL     1      33.736   2.884  40.400  1.00  0.00     0.017 C 
ENDBRANCH   1  26
TORSDOF 1
ENDMDL
MODEL 8
REMARK VINA RESULT:      -7.3      2.818      6.269
REMARK  1 active torsions:
REMARK  status: ('A' for Active; 'I' for Inactive)
REMARK    1  A    between atoms: C2_2  and  C3_3 
REMARK       I    between atoms: C3_3  and  N1_5 
ROOT
HETATM    1  C3  UNL     1      21.944   5.833  46.444  1.00  0.00     0.242 C 
HETATM    2  O1  UNL     1      21.019   6.028  45.626  1.00  0.00    -0.268 OA
HETATM    3  N1  UNL     1      21.778   4.722  47.313  1.00  0.00    -0.344 N 
HETATM    4  C4  UNL     1      20.609   3.907  47.221  1.00  0.00     0.131 C 
HETATM    5  C5  UNL     1      20.749   2.510  47.715  1.00  0.00     0.059 C 
HETATM    6  C6  UNL     1      21.502   2.348  48.969  1.00  0.00    -0.038 C 
HETATM    7  C7  UNL     1      21.460   1.028  49.441  1.00  0.00     0.058 C 
HETATM    8  C8  UNL     1      21.083   0.737  50.764  1.00  0.00     0.125 C 
HETATM    9  N2  UNL     1      19.779   0.939  51.220  1.00  0.00    -0.225 NA
HETATM   10  C9  UNL     1      19.500   2.066  52.007  1.00  0.00     0.236 C 
HETATM   11  N3  UNL     1      20.301   3.035  52.641  1.00  0.00    -0.236 NA
HETATM   12  C10 UNL     1      21.667   3.039  52.339  1.00  0.00     0.109 C 
HETATM   13  S1  UNL     1      22.090   4.105  51.040  1.00  0.00    -0.074 SA
HETATM   14  C11 UNL     1      22.089   3.545  49.406  1.00  0.00     0.009 C 
HETATM   15  C12 UNL     1      22.732   4.324  48.332  1.00  0.00     0.172 C 
HETATM   16  C13 UNL     1      22.642   2.201  53.003  1.00  0.00     0.220 C 
HETATM   17  O2  UNL     1      23.918   3.177  52.965  1.00  0.00    -0.300 OA
HETATM   18  C14 UNL     1      24.985   2.363  52.705  1.00  0.00    -0.013 C 
HETATM   19  C15 UNL     1      25.804   1.708  52.502  1.00  0.00     0.068 A 
HETATM   20  C16 UNL     1      26.798   0.879  52.250  1.00  0.00     0.022 A 
HETATM   21  C17 UNL     1      25.607   0.039  52.553  1.00  0.00     0.018 A 
HETATM   22  C18 UNL     1      24.135   0.193  52.931  1.00  0.00     0.035 C 
HETATM   23  C19 UNL     1      23.208   1.050  52.197  1.00  0.00     0.120 C 
HETATM   24  N4  UNL     1      22.182   0.241  51.576  1.00  0.00    -0.367 N 
HETATM   25  H18 UNL     1      22.133  -0.806  51.656  1.00  0.00     0.161 HD
ENDROOT
BRANCH   1  26
HETATM   26  C2  UNL     1      23.081   6.723  46.447  1.00  0.00     0.064 C 
HETATM   27  C1  UNL     1      22.942   7.857  47.126  1.00  0.00     0.017 C 
ENDBRANCH   1  26
TORSDOF 1
ENDMDL
MODEL 9
REMARK VINA RESULT:      -7.2      3.023      5.049
REMARK  1 active torsions:
REMARK  status: ('A' for Active; 'I' for Inactive)
REMARK    1  A    between atoms: C2_2  and  C3_3 
REMARK       I    between atoms: C3_3  and  N1_5 
ROOT
HETATM    1  C3  UNL     1      20.070  -0.975  53.682  1.00  0.00     0.242 C 
HETATM    2  O1  UNL     1      20.628  -1.551  54.641  1.00  0.00    -0.268 OA
HETATM    3  N1  UNL     1      20.880  -0.067  52.951  1.00  0.00    -0.344 N 
HETATM    4  C4  UNL     1      22.242   0.144  53.325  1.00  0.00     0.131 C 
HETATM    5  C5  UNL     1      23.147   0.623  52.245  1.00  0.00     0.059 C 
HETATM    6  C6  UNL     1      22.596   1.663  51.363  1.00  0.00    -0.038 C 
HETATM    7  C7  UNL     1      23.558   2.162  50.473  1.00  0.00     0.058 C 
HETATM    8  C8  UNL     1      23.788   3.543  50.345  1.00  0.00     0.125 C 
HETATM    9  N2  UNL     1      24.356   4.294  51.375  1.00  0.00    -0.225 NA
HETATM   10  C9  UNL     1      23.524   5.098  52.169  1.00  0.00     0.236 C 
HETATM   11  N3  UNL     1      22.178   5.499  52.076  1.00  0.00    -0.236 NA
HETATM   12  C10 UNL     1      21.387   4.878  51.104  1.00  0.00     0.109 C 
HETATM   13  S1  UNL     1      20.528   3.490  51.687  1.00  0.00    -0.074 SA
HETATM   14  C11 UNL     1      21.238   1.918  51.610  1.00  0.00     0.009 C 
HETATM   15  C12 UNL     1      20.427   0.703  51.806  1.00  0.00     0.172 C 
HETATM   16  C13 UNL     1      21.320   5.307  49.724  1.00  0.00     0.220 C 
HETATM   17  O2  UNL     1      19.790   4.941  49.393  1.00  0.00    -0.300 OA
HETATM   18  C14 UNL     1      19.807   4.452  48.117  1.00  0.00    -0.013 C 
HETATM   19  C15 UNL     1      19.843   4.073  47.119  1.00  0.00     0.068 A 
HETATM   20  C16 UNL     1      19.913   3.609  45.887  1.00  0.00     0.022 A 
HETATM   21  C17 UNL     1      21.240   4.209  46.194  1.00  0.00     0.018 A 
HETATM   22  C18 UNL     1      21.962   4.925  47.334  1.00  0.00     0.035 C 
HETATM   23  C19 UNL     1      21.997   4.416  48.702  1.00  0.00     0.120 C 
HETATM   24  N4  UNL     1      23.356   4.079  49.064  1.00  0.00    -0.367 N 
HETATM   25  H18 UNL     1      24.178   4.192  48.420  1.00  0.00     0.161 HD
ENDROOT
BRANCH   1  26
HETATM   26  C2  UNL     1      18.685  -1.266  53.395  1.00  0.00     0.064 C 
HETATM   27  C1  UNL     1      18.224  -2.432  53.834  1.00  0.00     0.017 C 
ENDBRANCH   1  26
TORSDOF 1
ENDMDL
