MODEL 1
REMARK VINA RESULT:      -8.2      0.000      0.000
REMARK  2 active torsions:
REMARK  status: ('A' for Active; 'I' for Inactive)
REMARK    1  A    between atoms: O1_2  and  C2_3 
REMARK    2  A    between atoms: C4_5  and  C5_6 
ROOT
HETATM    1  C2  UNL     1      21.915  -0.229  53.826  1.00  0.00     0.074 A 
HETATM    2  C3  UNL     1      23.106   0.170  54.231  1.00  0.00     0.030 A 
HETATM    3  C4  UNL     1      23.574   0.102  52.830  1.00  0.00     0.058 A 
HETATM    4  C9  UNL     1      23.735   1.475  52.225  1.00  0.00    -0.036 A 
HETATM    5  C10 UNL     1      23.924   2.509  53.098  1.00  0.00     0.015 A 
HETATM    6  C11 UNL     1      23.666   3.722  52.462  1.00  0.00    -0.059 A 
HETATM    7  C12 UNL     1      23.819   4.977  53.234  1.00  0.00     0.048 C 
HETATM    8  C13 UNL     1      23.273   3.807  51.142  1.00  0.00     0.043 A 
HETATM    9  C14 UNL     1      23.166   2.593  50.515  1.00  0.00     0.069 A 
HETATM   10  C15 UNL     1      23.381   1.306  50.933  1.00  0.00     0.045 A 
HETATM   11  O3  UNL     1      22.714   2.591  49.163  1.00  0.00    -0.351 OA
HETATM   12  C16 UNL     1      21.789   1.540  48.865  1.00  0.00     0.178 C 
HETATM   13  C17 UNL     1      20.574   1.441  49.691  1.00  0.00     0.053 C 
HETATM   14  C18 UNL     1      20.763   1.245  51.200  1.00  0.00     0.171 C 
HETATM   15  O4  UNL     1      21.568   0.268  51.453  1.00  0.00    -0.377 OA
HETATM   16  C19 UNL     1      22.174  -0.384  52.381  1.00  0.00     0.198 A 
ENDROOT
BRANCH   3  17
HETATM   17  C5  UNL     1      24.699  -0.748  52.497  1.00  0.00     0.019 C 
HETATM   18  C6  UNL     1      25.788  -0.646  53.197  1.00  0.00     0.074 C 
HETATM   19  S1  UNL     1      26.084   0.473  54.593  1.00  0.00    -0.047 SA
HETATM   20  C8  UNL     1      27.049  -1.367  53.080  1.00  0.00     0.264 C 
HETATM   21  C7  UNL     1      27.888   0.312  54.538  1.00  0.00     0.167 C 
HETATM   22  N1  UNL     1      28.788   1.095  55.072  1.00  0.00    -0.278 NA
HETATM   23  N2  UNL     1      28.146  -0.861  53.783  1.00  0.00    -0.301 N 
HETATM   24  H6  UNL     1      28.559   1.933  55.608  1.00  0.00     0.189 HD
HETATM   25  H7  UNL     1      29.095  -1.295  53.772  1.00  0.00     0.171 HD
HETATM   26  O2  UNL     1      27.084  -2.413  52.343  1.00  0.00    -0.267 OA
ENDBRANCH   3  17
BRANCH   1  27
HETATM   27  O1  UNL     1      20.690  -0.485  54.437  1.00  0.00    -0.358 OA
HETATM   28  C1  UNL     1      19.631  -1.175  53.861  1.00  0.00     0.209 C 
ENDBRANCH   1  27
TORSDOF 2
ENDMDL
MODEL 2
REMARK VINA RESULT:      -7.6      3.540      6.072
REMARK  2 active torsions:
REMARK  status: ('A' for Active; 'I' for Inactive)
REMARK    1  A    between atoms: O1_2  and  C2_3 
REMARK    2  A    between atoms: C4_5  and  C5_6 
ROOT
HETATM    1  C2  UNL     1      23.014   2.791  48.689  1.00  0.00     0.074 A 
HETATM    2  C3  UNL     1      24.154   3.300  49.119  1.00  0.00     0.030 A 
HETATM    3  C4  UNL     1      23.514   3.560  50.426  1.00  0.00     0.058 A 
HETATM    4  C9  UNL     1      23.981   2.590  51.483  1.00  0.00    -0.036 A 
HETATM    5  C10 UNL     1      25.194   1.997  51.274  1.00  0.00     0.015 A 
HETATM    6  C11 UNL     1      25.320   0.871  52.086  1.00  0.00    -0.059 A 
HETATM    7  C12 UNL     1      26.572   0.082  52.018  1.00  0.00     0.048 C 
HETATM    8  C13 UNL     1      24.329   0.458  52.952  1.00  0.00     0.043 A 
HETATM    9  C14 UNL     1      23.216   1.258  52.944  1.00  0.00     0.069 A 
HETATM   10  C15 UNL     1      22.890   2.395  52.254  1.00  0.00     0.045 A 
HETATM   11  O3  UNL     1      22.123   0.869  53.774  1.00  0.00    -0.351 OA
HETATM   12  C16 UNL     1      20.843   1.033  53.156  1.00  0.00     0.178 C 
HETATM   13  C17 UNL     1      20.615   0.369  51.861  1.00  0.00     0.053 C 
HETATM   14  C18 UNL     1      21.548   0.745  50.704  1.00  0.00     0.171 C 
HETATM   15  O4  UNL     1      21.622   2.024  50.554  1.00  0.00    -0.377 OA
HETATM   16  C19 UNL     1      22.181   2.977  49.894  1.00  0.00     0.198 A 
ENDROOT
BRANCH   3  17
HETATM   17  C5  UNL     1      23.475   4.914  50.942  1.00  0.00     0.019 C 
HETATM   18  C6  UNL     1      24.311   5.787  50.467  1.00  0.00     0.074 C 
HETATM   19  S1  UNL     1      25.567   5.509  49.189  1.00  0.00    -0.047 SA
HETATM   20  C8  UNL     1      24.487   7.194  50.802  1.00  0.00     0.264 C 
HETATM   21  C7  UNL     1      26.518   7.000  49.584  1.00  0.00     0.167 C 
HETATM   22  N1  UNL     1      27.752   7.284  49.257  1.00  0.00    -0.278 NA
HETATM   23  N2  UNL     1      25.644   7.825  50.338  1.00  0.00    -0.301 N 
HETATM   24  H6  UNL     1      28.348   6.659  48.713  1.00  0.00     0.189 HD
HETATM   25  H7  UNL     1      25.874   8.827  50.516  1.00  0.00     0.171 HD
HETATM   26  O2  UNL     1      23.581   7.770  51.498  1.00  0.00    -0.267 OA
ENDBRANCH   3  17
BRANCH   1  27
HETATM   27  O1  UNL     1      22.562   2.224  47.501  1.00  0.00    -0.358 OA
HETATM   28  C1  UNL     1      21.928   2.908  46.472  1.00  0.00     0.209 C 
ENDBRANCH   1  27
TORSDOF 2
ENDMDL
MODEL 3
REMARK VINA RESULT:      -7.4     10.308     12.410
REMARK  2 active torsions:
REMARK  status: ('A' for Active; 'I' for Inactive)
REMARK    1  A    between atoms: O1_2  and  C2_3 
REMARK    2  A    between atoms: C4_5  and  C5_6 
ROOT
HETATM    1  C2  UNL     1      32.160   7.974  45.098  1.00  0.00     0.074 A 
HETATM    2  C3  UNL     1      32.115   6.820  45.738  1.00  0.00     0.030 A 
HETATM    3  C4  UNL     1      32.396   7.540  46.999  1.00  0.00     0.058 A 
HETATM    4  C9  UNL     1      31.169   7.644  47.872  1.00  0.00    -0.036 A 
HETATM    5  C10 UNL     1      30.193   6.709  47.667  1.00  0.00     0.015 A 
HETATM    6  C11 UNL     1      28.995   7.139  48.234  1.00  0.00    -0.059 A 
HETATM    7  C12 UNL     1      27.804   6.265  48.130  1.00  0.00     0.048 C 
HETATM    8  C13 UNL     1      28.868   8.347  48.889  1.00  0.00     0.043 A 
HETATM    9  C14 UNL     1      30.026   9.079  48.936  1.00  0.00     0.069 A 
HETATM   10  C15 UNL     1      31.293   8.848  48.469  1.00  0.00     0.045 A 
HETATM   11  O3  UNL     1      29.966  10.364  49.550  1.00  0.00    -0.351 OA
HETATM   12  C16 UNL     1      30.706  11.372  48.853  1.00  0.00     0.178 C 
HETATM   13  C17 UNL     1      30.391  11.595  47.432  1.00  0.00     0.053 C 
HETATM   14  C18 UNL     1      30.552  10.404  46.480  1.00  0.00     0.171 C 
HETATM   15  O4  UNL     1      31.710   9.849  46.610  1.00  0.00    -0.377 OA
HETATM   16  C19 UNL     1      32.463   8.879  46.224  1.00  0.00     0.198 A 
ENDROOT
BRANCH   3  17
HETATM   17  C5  UNL     1      33.561   7.178  47.780  1.00  0.00     0.019 C 
HETATM   18  C6  UNL     1      33.890   5.925  47.866  1.00  0.00     0.074 C 
HETATM   19  S1  UNL     1      33.038   4.521  47.098  1.00  0.00    -0.047 SA
HETATM   20  C8  UNL     1      34.996   5.292  48.574  1.00  0.00     0.264 C 
HETATM   21  C7  UNL     1      33.814   3.273  48.159  1.00  0.00     0.167 C 
HETATM   22  N1  UNL     1      33.429   2.043  48.377  1.00  0.00    -0.278 NA
HETATM   23  N2  UNL     1      34.951   3.904  48.726  1.00  0.00    -0.301 N 
HETATM   24  H6  UNL     1      32.601   1.627  47.949  1.00  0.00     0.189 HD
HETATM   25  H7  UNL     1      35.686   3.347  49.213  1.00  0.00     0.171 HD
HETATM   26  O2  UNL     1      35.938   6.037  49.016  1.00  0.00    -0.267 OA
ENDBRANCH   3  17
BRANCH   1  27
HETATM   27  O1  UNL     1      32.003   8.387  43.777  1.00  0.00    -0.358 OA
HETATM   28  C1  UNL     1      32.621   9.488  43.199  1.00  0.00     0.209 C 
ENDBRANCH   1  27
TORSDOF 2
ENDMDL
MODEL 4
REMARK VINA RESULT:      -7.2      9.133     11.191
REMARK  2 active torsions:
REMARK  status: ('A' for Active; 'I' for Inactive)
REMARK    1  A    between atoms: O1_2  and  C2_3 
REMARK    2  A    between atoms: C4_5  and  C5_6 
ROOT
HETATM    1  C2  UNL     1      30.873   9.533  48.355  1.00  0.00     0.074 A 
HETATM    2  C3  UNL     1      31.107   8.813  47.273  1.00  0.00     0.030 A 
HETATM    3  C4  UNL     1      30.238   7.751  47.825  1.00  0.00     0.058 A 
HETATM    4  C9  UNL     1      28.906   7.693  47.118  1.00  0.00    -0.036 A 
HETATM    5  C10 UNL     1      28.864   8.204  45.851  1.00  0.00     0.015 A 
HETATM    6  C11 UNL     1      27.542   8.444  45.479  1.00  0.00    -0.059 A 
HETATM    7  C12 UNL     1      27.272   8.996  44.131  1.00  0.00     0.048 C 
HETATM    8  C13 UNL     1      26.472   8.190  46.311  1.00  0.00     0.043 A 
HETATM    9  C14 UNL     1      26.827   7.676  47.531  1.00  0.00     0.069 A 
HETATM   10  C15 UNL     1      28.034   7.353  48.091  1.00  0.00     0.045 A 
HETATM   11  O3  UNL     1      25.781   7.434  48.470  1.00  0.00    -0.351 OA
HETATM   12  C16 UNL     1      26.112   7.809  49.811  1.00  0.00     0.178 C 
HETATM   13  C17 UNL     1      26.548   9.195  50.049  1.00  0.00     0.053 C 
HETATM   14  C18 UNL     1      27.792   9.680  49.295  1.00  0.00     0.171 C 
HETATM   15  O4  UNL     1      28.779   8.861  49.434  1.00  0.00    -0.377 OA
HETATM   16  C19 UNL     1      29.993   8.605  49.093  1.00  0.00     0.198 A 
ENDROOT
BRANCH   3  17
HETATM   17  C5  UNL     1      30.780   6.423  48.026  1.00  0.00     0.019 C 
HETATM   18  C6  UNL     1      31.620   5.952  47.156  1.00  0.00     0.074 C 
HETATM   19  S1  UNL     1      32.222   6.787  45.663  1.00  0.00    -0.047 SA
HETATM   20  C8  UNL     1      32.306   4.667  47.115  1.00  0.00     0.264 C 
HETATM   21  C7  UNL     1      32.833   5.272  44.877  1.00  0.00     0.167 C 
HETATM   22  N1  UNL     1      33.123   5.072  43.619  1.00  0.00    -0.278 NA
HETATM   23  N2  UNL     1      32.939   4.315  45.919  1.00  0.00    -0.301 N 
HETATM   24  H6  UNL     1      33.031   5.790  42.899  1.00  0.00     0.189 HD
HETATM   25  H7  UNL     1      33.459   3.422  45.776  1.00  0.00     0.171 HD
HETATM   26  O2  UNL     1      32.290   3.937  48.165  1.00  0.00    -0.267 OA
ENDBRANCH   3  17
BRANCH   1  27
HETATM   27  O1  UNL     1      31.260  10.787  48.818  1.00  0.00    -0.358 OA
HETATM   28  C1  UNL     1      30.594  11.980  48.567  1.00  0.00     0.209 C 
ENDBRANCH   1  27
TORSDOF 2
ENDMDL
MODEL 5
REMARK VINA RESULT:      -7.2      3.809      6.497
REMARK  2 active torsions:
REMARK  status: ('A' for Active; 'I' for Inactive)
REMARK    1  A    between atoms: O1_2  and  C2_3 
REMARK    2  A    between atoms: C4_5  and  C5_6 
ROOT
HETATM    1  C2  UNL     1      23.529   3.969  52.538  1.00  0.00     0.074 A 
HETATM    2  C3  UNL     1      22.452   3.316  52.142  1.00  0.00     0.030 A 
HETATM    3  C4  UNL     1      23.329   2.312  51.503  1.00  0.00     0.058 A 
HETATM    4  C9  UNL     1      23.367   1.020  52.283  1.00  0.00    -0.036 A 
HETATM    5  C10 UNL     1      22.300   0.768  53.098  1.00  0.00     0.015 A 
HETATM    6  C11 UNL     1      22.631  -0.218  54.025  1.00  0.00    -0.059 A 
HETATM    7  C12 UNL     1      21.607  -0.648  55.005  1.00  0.00     0.048 C 
HETATM    8  C13 UNL     1      23.875  -0.814  54.072  1.00  0.00     0.043 A 
HETATM    9  C14 UNL     1      24.748  -0.352  53.121  1.00  0.00     0.069 A 
HETATM   10  C15 UNL     1      24.633   0.579  52.124  1.00  0.00     0.045 A 
HETATM   11  O3  UNL     1      26.073  -0.880  53.136  1.00  0.00    -0.351 OA
HETATM   12  C16 UNL     1      27.088   0.101  52.903  1.00  0.00     0.178 C 
HETATM   13  C17 UNL     1      27.120   1.279  53.787  1.00  0.00     0.053 C 
HETATM   14  C18 UNL     1      25.866   2.160  53.829  1.00  0.00     0.171 C 
HETATM   15  O4  UNL     1      25.479   2.489  52.643  1.00  0.00    -0.377 OA
HETATM   16  C19 UNL     1      24.578   3.105  51.961  1.00  0.00     0.198 A 
ENDROOT
BRANCH   3  17
HETATM   17  C5  UNL     1      23.201   2.058  50.082  1.00  0.00     0.019 C 
HETATM   18  C6  UNL     1      22.040   2.213  49.522  1.00  0.00     0.074 C 
HETATM   19  S1  UNL     1      20.502   2.729  50.331  1.00  0.00    -0.047 SA
HETATM   20  C8  UNL     1      21.637   2.029  48.134  1.00  0.00     0.264 C 
HETATM   21  C7  UNL     1      19.425   2.150  48.994  1.00  0.00     0.167 C 
HETATM   22  N1  UNL     1      18.140   1.914  49.033  1.00  0.00    -0.278 NA
HETATM   23  N2  UNL     1      20.267   1.995  47.862  1.00  0.00    -0.301 N 
HETATM   24  H6  UNL     1      17.570   2.037  49.871  1.00  0.00     0.189 HD
HETATM   25  H7  UNL     1      19.864   1.869  46.908  1.00  0.00     0.171 HD
HETATM   26  O2  UNL     1      22.551   1.907  47.247  1.00  0.00    -0.267 OA
ENDBRANCH   3  17
BRANCH   1  27
HETATM   27  O1  UNL     1      23.778   5.128  53.269  1.00  0.00    -0.358 OA
HETATM   28  C1  UNL     1      24.134   6.357  52.731  1.00  0.00     0.209 C 
ENDBRANCH   1  27
TORSDOF 2
ENDMDL
MODEL 6
REMARK VINA RESULT:      -7.1     10.635     12.752
REMARK  2 active torsions:
REMARK  status: ('A' for Active; 'I' for Inactive)
REMARK    1  A    between atoms: O1_2  and  C2_3 
REMARK    2  A    between atoms: C4_5  and  C5_6 
ROOT
HETATM    1  C2  UNL     1      31.585   8.741  44.741  1.00  0.00     0.074 A 
HETATM    2  C3  UNL     1      32.106   7.753  45.444  1.00  0.00     0.030 A 
HETATM    3  C4  UNL     1      32.092   8.629  46.635  1.00  0.00     0.058 A 
HETATM    4  C9  UNL     1      31.000   8.242  47.603  1.00  0.00    -0.036 A 
HETATM    5  C10 UNL     1      30.552   6.953  47.534  1.00  0.00     0.015 A 
HETATM    6  C11 UNL     1      29.321   6.842  48.178  1.00  0.00    -0.059 A 
HETATM    7  C12 UNL     1      28.658   5.518  48.224  1.00  0.00     0.048 C 
HETATM    8  C13 UNL     1      28.689   7.914  48.775  1.00  0.00     0.043 A 
HETATM    9  C14 UNL     1      29.385   9.091  48.683  1.00  0.00     0.069 A 
HETATM   10  C15 UNL     1      30.591   9.419  48.122  1.00  0.00     0.045 A 
HETATM   11  O3  UNL     1      28.776  10.258  49.230  1.00  0.00    -0.351 OA
HETATM   12  C16 UNL     1      28.935  11.427  48.419  1.00  0.00     0.178 C 
HETATM   13  C17 UNL     1      28.479  11.358  47.019  1.00  0.00     0.053 C 
HETATM   14  C18 UNL     1      29.118  10.291  46.123  1.00  0.00     0.171 C 
HETATM   15  O4  UNL     1      30.407  10.334  46.182  1.00  0.00    -0.377 OA
HETATM   16  C19 UNL     1      31.499   9.780  45.786  1.00  0.00     0.198 A 
ENDROOT
BRANCH   3  17
HETATM   17  C5  UNL     1      33.333   8.902  47.331  1.00  0.00     0.019 C 
HETATM   18  C6  UNL     1      34.101   7.906  47.653  1.00  0.00     0.074 C 
HETATM   19  S1  UNL     1      33.800   6.149  47.323  1.00  0.00    -0.047 SA
HETATM   20  C8  UNL     1      35.383   7.897  48.345  1.00  0.00     0.264 C 
HETATM   21  C7  UNL     1      35.012   5.557  48.532  1.00  0.00     0.167 C 
HETATM   22  N1  UNL     1      35.114   4.367  49.062  1.00  0.00    -0.278 NA
HETATM   23  N2  UNL     1      35.856   6.665  48.805  1.00  0.00    -0.301 N 
HETATM   24  H6  UNL     1      34.483   3.595  48.839  1.00  0.00     0.189 HD
HETATM   25  H7  UNL     1      36.759   6.539  49.312  1.00  0.00     0.171 HD
HETATM   26  O2  UNL     1      36.000   9.008  48.495  1.00  0.00    -0.267 OA
ENDBRANCH   3  17
BRANCH   1  27
HETATM   27  O1  UNL     1      31.189   8.921  43.418  1.00  0.00    -0.358 OA
HETATM   28  C1  UNL     1      30.983  10.147  42.799  1.00  0.00     0.209 C 
ENDBRANCH   1  27
TORSDOF 2
ENDMDL
MODEL 7
REMARK VINA RESULT:      -7.0      6.684      9.479
REMARK  2 active torsions:
REMARK  status: ('A' for Active; 'I' for Inactive)
REMARK    1  A    between atoms: O1_2  and  C2_3 
REMARK    2  A    between atoms: C4_5  and  C5_6 
ROOT
HETATM    1  C2  UNL     1      24.757   8.068  46.192  1.00  0.00     0.074 A 
HETATM    2  C3  UNL     1      26.009   7.976  46.602  1.00  0.00     0.030 A 
HETATM    3  C4  UNL     1      25.578   8.451  47.935  1.00  0.00     0.058 A 
HETATM    4  C9  UNL     1      25.558   7.334  48.950  1.00  0.00    -0.036 A 
HETATM    5  C10 UNL     1      26.358   6.257  48.688  1.00  0.00     0.015 A 
HETATM    6  C11 UNL     1      25.960   5.169  49.463  1.00  0.00    -0.059 A 
HETATM    7  C12 UNL     1      26.704   3.895  49.336  1.00  0.00     0.048 C 
HETATM    8  C13 UNL     1      24.901   5.227  50.346  1.00  0.00     0.043 A 
HETATM    9  C14 UNL     1      24.283   6.449  50.394  1.00  0.00     0.069 A 
HETATM   10  C15 UNL     1      24.511   7.634  49.746  1.00  0.00     0.045 A 
HETATM   11  O3  UNL     1      23.145   6.576  51.244  1.00  0.00    -0.351 OA
HETATM   12  C16 UNL     1      22.077   7.336  50.669  1.00  0.00     0.178 C 
HETATM   13  C17 UNL     1      21.552   6.903  49.362  1.00  0.00     0.053 C 
HETATM   14  C18 UNL     1      22.538   6.851  48.190  1.00  0.00     0.171 C 
HETATM   15  O4  UNL     1      23.193   7.957  48.075  1.00  0.00    -0.377 OA
HETATM   16  C19 UNL     1      24.120   8.570  47.426  1.00  0.00     0.198 A 
ENDROOT
BRANCH   3  17
HETATM   17  C5  UNL     1      26.176   9.648  48.490  1.00  0.00     0.019 C 
HETATM   18  C6  UNL     1      27.463   9.683  48.660  1.00  0.00     0.074 C 
HETATM   19  S1  UNL     1      28.648   8.367  48.271  1.00  0.00    -0.047 SA
HETATM   20  C8  UNL     1      28.310  10.743  49.190  1.00  0.00     0.264 C 
HETATM   21  C7  UNL     1      29.979   9.054  49.290  1.00  0.00     0.167 C 
HETATM   22  N1  UNL     1      31.050   8.453  49.736  1.00  0.00    -0.278 NA
HETATM   23  N2  UNL     1      29.627  10.409  49.520  1.00  0.00    -0.301 N 
HETATM   24  H6  UNL     1      31.266   7.473  49.548  1.00  0.00     0.189 HD
HETATM   25  H7  UNL     1      30.321  11.085  49.906  1.00  0.00     0.171 HD
HETATM   26  O2  UNL     1      27.807  11.911  49.327  1.00  0.00    -0.267 OA
ENDBRANCH   3  17
BRANCH   1  27
HETATM   27  O1  UNL     1      24.079   7.820  45.002  1.00  0.00    -0.358 OA
HETATM   28  C1  UNL     1      24.560   8.098  43.729  1.00  0.00     0.209 C 
ENDBRANCH   1  27
TORSDOF 2
ENDMDL
MODEL 8
REMARK VINA RESULT:      -7.0     10.252     12.507
REMARK  2 active torsions:
REMARK  status: ('A' for Active; 'I' for Inactive)
REMARK    1  A    between atoms: O1_2  and  C2_3 
REMARK    2  A    between atoms: C4_5  and  C5_6 
ROOT
HETATM    1  C2  UNL     1      31.842   8.932  46.940  1.00  0.00     0.074 A 
HETATM    2  C3  UNL     1      31.667   8.386  48.129  1.00  0.00     0.030 A 
HETATM    3  C4  UNL     1      31.316   7.114  47.463  1.00  0.00     0.058 A 
HETATM    4  C9  UNL     1      32.425   6.096  47.574  1.00  0.00    -0.036 A 
HETATM    5  C10 UNL     1      33.300   6.258  48.611  1.00  0.00     0.015 A 
HETATM    6  C11 UNL     1      34.459   5.520  48.376  1.00  0.00    -0.059 A 
HETATM    7  C12 UNL     1      35.540   5.552  49.387  1.00  0.00     0.048 C 
HETATM    8  C13 UNL     1      34.644   4.760  47.240  1.00  0.00     0.043 A 
HETATM    9  C14 UNL     1      33.585   4.792  46.370  1.00  0.00     0.069 A 
HETATM   10  C15 UNL     1      32.369   5.422  46.406  1.00  0.00     0.045 A 
HETATM   11  O3  UNL     1      33.719   4.073  45.146  1.00  0.00    -0.351 OA
HETATM   12  C16 UNL     1      33.200   4.769  44.009  1.00  0.00     0.178 C 
HETATM   13  C17 UNL     1      33.718   6.121  43.735  1.00  0.00     0.053 C 
HETATM   14  C18 UNL     1      33.539   7.178  44.831  1.00  0.00     0.171 C 
HETATM   15  O4  UNL     1      32.316   7.231  45.241  1.00  0.00    -0.377 OA
HETATM   16  C19 UNL     1      31.508   7.780  46.078  1.00  0.00     0.198 A 
ENDROOT
BRANCH   3  17
HETATM   17  C5  UNL     1      30.025   6.508  47.723  1.00  0.00     0.019 C 
HETATM   18  C6  UNL     1      29.116   7.210  48.327  1.00  0.00     0.074 C 
HETATM   19  S1  UNL     1      29.269   8.922  48.904  1.00  0.00    -0.047 SA
HETATM   20  C8  UNL     1      27.755   6.854  48.706  1.00  0.00     0.264 C 
HETATM   21  C7  UNL     1      27.840   8.836  50.016  1.00  0.00     0.167 C 
HETATM   22  N1  UNL     1      27.536   9.630  51.009  1.00  0.00    -0.278 NA
HETATM   23  N2  UNL     1      27.091   7.708  49.592  1.00  0.00    -0.301 N 
HETATM   24  H6  UNL     1      28.105  10.432  51.282  1.00  0.00     0.189 HD
HETATM   25  H7  UNL     1      26.117   7.552  49.931  1.00  0.00     0.171 HD
HETATM   26  O2  UNL     1      27.247   5.788  48.215  1.00  0.00    -0.267 OA
ENDBRANCH   3  17
BRANCH   1  27
HETATM   27  O1  UNL     1      32.214  10.187  46.466  1.00  0.00    -0.358 OA
HETATM   28  C1  UNL     1      32.016  11.390  47.131  1.00  0.00     0.209 C 
ENDBRANCH   1  27
TORSDOF 2
ENDMDL
MODEL 9
REMARK VINA RESULT:      -6.3      5.695      8.008
REMARK  2 active torsions:
REMARK  status: ('A' for Active; 'I' for Inactive)
REMARK    1  A    between atoms: O1_2  and  C2_3 
REMARK    2  A    between atoms: C4_5  and  C5_6 
ROOT
HETATM    1  C2  UNL     1      17.146   2.742  51.559  1.00  0.00     0.074 A 
HETATM    2  C3  UNL     1      16.864   1.471  51.779  1.00  0.00     0.030 A 
HETATM    3  C4  UNL     1      17.700   1.112  50.613  1.00  0.00     0.058 A 
HETATM    4  C9  UNL     1      19.016   0.504  51.032  1.00  0.00    -0.036 A 
HETATM    5  C10 UNL     1      19.056  -0.071  52.271  1.00  0.00     0.015 A 
HETATM    6  C11 UNL     1      20.379  -0.231  52.679  1.00  0.00    -0.059 A 
HETATM    7  C12 UNL     1      20.647  -0.846  53.999  1.00  0.00     0.048 C 
HETATM    8  C13 UNL     1      21.453   0.158  51.905  1.00  0.00     0.043 A 
HETATM    9  C14 UNL     1      21.100   0.710  50.701  1.00  0.00     0.069 A 
HETATM   10  C15 UNL     1      19.890   0.945  50.103  1.00  0.00     0.045 A 
HETATM   11  O3  UNL     1      22.152   1.187  49.865  1.00  0.00    -0.351 OA
HETATM   12  C16 UNL     1      21.860   2.433  49.225  1.00  0.00     0.178 C 
HETATM   13  C17 UNL     1      21.483   3.573  50.079  1.00  0.00     0.053 C 
HETATM   14  C18 UNL     1      20.247   3.405  50.970  1.00  0.00     0.171 C 
HETATM   15  O4  UNL     1      19.230   2.985  50.294  1.00  0.00    -0.377 OA
HETATM   16  C19 UNL     1      18.001   2.611  50.362  1.00  0.00     0.198 A 
ENDROOT
BRANCH   3  17
HETATM   17  C5  UNL     1      17.110   0.372  49.516  1.00  0.00     0.019 C 
HETATM   18  C6  UNL     1      16.210  -0.526  49.781  1.00  0.00     0.074 C 
HETATM   19  S1  UNL     1      15.577  -0.982  51.418  1.00  0.00    -0.047 SA
HETATM   20  C8  UNL     1      15.466  -1.400  48.884  1.00  0.00     0.264 C 
HETATM   21  C7  UNL     1      14.864  -2.556  50.872  1.00  0.00     0.167 C 
HETATM   22  N1  UNL     1      14.507  -3.580  51.601  1.00  0.00    -0.278 NA
HETATM   23  N2  UNL     1      14.764  -2.463  49.459  1.00  0.00    -0.301 N 
HETATM   24  H6  UNL     1      14.598  -3.607  52.617  1.00  0.00     0.189 HD
HETATM   25  H7  UNL     1      14.198  -3.151  48.915  1.00  0.00     0.171 HD
HETATM   26  O2  UNL     1      15.499  -1.152  47.629  1.00  0.00    -0.267 OA
ENDBRANCH   3  17
BRANCH   1  27
HETATM   27  O1  UNL     1      16.817   3.953  52.162  1.00  0.00    -0.358 OA
HETATM   28  C1  UNL     1      15.590   4.261  52.735  1.00  0.00     0.209 C 
ENDBRANCH   1  27
TORSDOF 2
ENDMDL
