MODEL 1
REMARK VINA RESULT:      -9.2      0.000      0.000
REMARK  2 active torsions:
REMARK  status: ('A' for Active; 'I' for Inactive)
REMARK    1  A    between atoms: C13_18  and  N4_20 
REMARK    2  A    between atoms: C16_24  and  N5_25 
ROOT
HETATM    1  C1  UNL     1      24.713   5.462  50.460  1.00  0.00     0.052 C 
HETATM    2  C2  UNL     1      23.785   4.712  49.559  1.00  0.00     0.016 C 
HETATM    3  C3  UNL     1      23.495   5.541  48.553  1.00  0.00     0.127 C 
HETATM    4  N1  UNL     1      22.652   5.360  47.391  1.00  0.00    -0.256 NA
HETATM    5  C4  UNL     1      21.556   4.645  47.258  1.00  0.00     0.204 C 
HETATM    6  N2  UNL     1      20.815   3.809  48.176  1.00  0.00    -0.355 N 
HETATM    7  C5  UNL     1      20.821   3.856  49.652  1.00  0.00     0.129 C 
HETATM    8  C6  UNL     1      20.857   5.265  50.175  1.00  0.00     0.068 C 
HETATM    9  C7  UNL     1      19.536   3.246  50.048  1.00  0.00     0.023 C 
HETATM   10  C8  UNL     1      18.922   2.197  50.684  1.00  0.00    -0.018 C 
HETATM   11  C9  UNL     1      18.802   0.911  51.447  1.00  0.00     0.109 C 
HETATM   12  C10 UNL     1      19.869   0.126  51.882  1.00  0.00     0.109 C 
HETATM   13  O1  UNL     1      21.327  -0.072  51.960  1.00  0.00    -0.381 OA
HETATM   14  C11 UNL     1      21.953   1.204  52.292  1.00  0.00     0.270 C 
HETATM   15  C12 UNL     1      21.951   1.896  50.942  1.00  0.00     0.250 C 
HETATM   16  O2  UNL     1      21.860   1.407  49.758  1.00  0.00    -0.271 OA
HETATM   17  N3  UNL     1      22.004   3.098  50.130  1.00  0.00    -0.262 N 
HETATM   18  C13 UNL     1      23.432   3.304  49.956  1.00  0.00     0.289 C 
HETATM   19  F1  UNL     1      23.929   2.517  48.932  1.00  0.00    -0.189 F 
HETATM   20  H6  UNL     1      20.220   3.106  47.684  1.00  0.00     0.163 HD
ENDROOT
BRANCH  18  21
HETATM   21  N4  UNL     1      24.171   2.935  51.157  1.00  0.00    -0.328 N 
HETATM   22  C14 UNL     1      25.155   1.882  51.048  1.00  0.00     0.130 A 
HETATM   23  C15 UNL     1      25.862   1.465  52.086  1.00  0.00     0.117 A 
HETATM   24  O3  UNL     1      26.807   0.476  52.054  1.00  0.00    -0.274 OA
HETATM   25  C18 UNL     1      25.667   2.072  53.402  1.00  0.00     0.068 A 
HETATM   26  C16 UNL     1      27.170  -0.293  53.204  1.00  0.00     0.489 C 
HETATM   27  F2  UNL     1      26.137  -1.173  53.463  1.00  0.00    -0.168 F 
HETATM   28  C17 UNL     1      27.370   0.602  54.385  1.00  0.00     0.323 C 
HETATM   29  O4  UNL     1      28.297   0.502  55.230  1.00  0.00    -0.264 OA
HETATM   30  N6  UNL     1      26.411   1.644  54.532  1.00  0.00    -0.318 N 
HETATM   31  H19 UNL     1      26.230   2.112  55.443  1.00  0.00     0.169 HD
HETATM   32  C19 UNL     1      24.764   3.046  53.514  1.00  0.00     0.025 A 
HETATM   33  C20 UNL     1      23.910   3.606  52.440  1.00  0.00     0.157 A 
BRANCH  26  34
HETATM   34  N5  UNL     1      28.375  -1.027  52.992  1.00  0.00     0.157 N 
HETATM   35  H17 UNL     1      29.159  -0.438  52.616  1.00  0.00     0.321 HD
HETATM   36  H18 UNL     1      28.727  -1.363  53.920  1.00  0.00     0.321 HD
ENDBRANCH  26  34
ENDBRANCH  18  21
TORSDOF 2
ENDMDL
MODEL 2
REMARK VINA RESULT:      -8.9      3.141      6.247
REMARK  2 active torsions:
REMARK  status: ('A' for Active; 'I' for Inactive)
REMARK    1  A    between atoms: C13_18  and  N4_20 
REMARK    2  A    between atoms: C16_24  and  N5_25 
ROOT
HETATM    1  C1  UNL     1      19.453   2.412  51.500  1.00  0.00     0.052 C 
HETATM    2  C2  UNL     1      19.733   1.003  51.911  1.00  0.00     0.016 C 
HETATM    3  C3  UNL     1      18.576   0.509  52.358  1.00  0.00     0.127 C 
HETATM    4  N1  UNL     1      18.243  -0.798  52.881  1.00  0.00    -0.256 NA
HETATM    5  C4  UNL     1      18.987  -1.636  53.569  1.00  0.00     0.204 C 
HETATM    6  N2  UNL     1      20.353  -1.572  54.041  1.00  0.00    -0.355 N 
HETATM    7  C5  UNL     1      21.179  -0.369  54.269  1.00  0.00     0.129 C 
HETATM    8  C6  UNL     1      20.386   0.757  54.873  1.00  0.00     0.068 C 
HETATM    9  C7  UNL     1      22.197  -0.799  55.248  1.00  0.00     0.023 C 
HETATM   10  C8  UNL     1      23.531  -1.021  55.478  1.00  0.00    -0.018 C 
HETATM   11  C9  UNL     1      25.001  -1.090  55.186  1.00  0.00     0.109 C 
HETATM   12  C10 UNL     1      25.600  -0.762  53.970  1.00  0.00     0.109 C 
HETATM   13  O1  UNL     1      25.439  -0.295  52.582  1.00  0.00    -0.381 OA
HETATM   14  C11 UNL     1      24.494   0.818  52.570  1.00  0.00     0.270 C 
HETATM   15  C12 UNL     1      23.169   0.082  52.652  1.00  0.00     0.250 C 
HETATM   16  O2  UNL     1      22.878  -1.137  52.368  1.00  0.00    -0.271 OA
HETATM   17  N3  UNL     1      21.753   0.046  52.964  1.00  0.00    -0.262 N 
HETATM   18  C13 UNL     1      21.141   0.502  51.728  1.00  0.00     0.289 C 
HETATM   19  F1  UNL     1      21.028  -0.533  50.816  1.00  0.00    -0.189 F 
HETATM   20  H6  UNL     1      20.754  -2.518  54.229  1.00  0.00     0.163 HD
ENDROOT
BRANCH  18  21
HETATM   21  N4  UNL     1      21.947   1.533  51.086  1.00  0.00    -0.328 N 
HETATM   22  C14 UNL     1      22.331   2.679  51.878  1.00  0.00     0.130 A 
HETATM   23  C15 UNL     1      23.046   3.675  51.378  1.00  0.00     0.117 A 
HETATM   24  O3  UNL     1      23.444   4.787  52.068  1.00  0.00    -0.274 OA
HETATM   25  C18 UNL     1      23.480   3.643  49.981  1.00  0.00     0.068 A 
HETATM   26  C16 UNL     1      23.742   6.034  51.433  1.00  0.00     0.489 C 
HETATM   27  F2  UNL     1      22.545   6.601  51.043  1.00  0.00    -0.168 F 
HETATM   28  C17 UNL     1      24.604   5.811  50.231  1.00  0.00     0.323 C 
HETATM   29  O4  UNL     1      25.591   6.517  49.899  1.00  0.00    -0.264 OA
HETATM   30  N6  UNL     1      24.247   4.696  49.421  1.00  0.00    -0.318 N 
HETATM   31  H19 UNL     1      24.527   4.619  48.422  1.00  0.00     0.169 HD
HETATM   32  C19 UNL     1      23.133   2.589  49.243  1.00  0.00     0.025 A 
HETATM   33  C20 UNL     1      22.341   1.412  49.674  1.00  0.00     0.157 A 
BRANCH  26  34
HETATM   34  N5  UNL     1      24.425   6.926  52.312  1.00  0.00     0.157 N 
HETATM   35  H17 UNL     1      25.373   7.211  51.961  1.00  0.00     0.321 HD
HETATM   36  H18 UNL     1      23.887   7.824  52.357  1.00  0.00     0.321 HD
ENDBRANCH  26  34
ENDBRANCH  18  21
TORSDOF 2
ENDMDL
MODEL 3
REMARK VINA RESULT:      -8.7      2.961      5.386
REMARK  2 active torsions:
REMARK  status: ('A' for Active; 'I' for Inactive)
REMARK    1  A    between atoms: C13_18  and  N4_20 
REMARK    2  A    between atoms: C16_24  and  N5_25 
ROOT
HETATM    1  C1  UNL     1      20.497   5.584  50.451  1.00  0.00     0.052 C 
HETATM    2  C2  UNL     1      20.603   4.122  50.158  1.00  0.00     0.016 C 
HETATM    3  C3  UNL     1      19.355   3.691  49.965  1.00  0.00     0.127 C 
HETATM    4  N1  UNL     1      18.846   2.373  49.651  1.00  0.00    -0.256 NA
HETATM    5  C4  UNL     1      19.313   1.194  49.999  1.00  0.00     0.204 C 
HETATM    6  N2  UNL     1      20.454   0.785  50.788  1.00  0.00    -0.355 N 
HETATM    7  C5  UNL     1      21.184   1.574  51.801  1.00  0.00     0.129 C 
HETATM    8  C6  UNL     1      20.260   2.405  52.648  1.00  0.00     0.068 C 
HETATM    9  C7  UNL     1      21.824   0.563  52.666  1.00  0.00     0.023 C 
HETATM   10  C8  UNL     1      23.008   0.027  53.105  1.00  0.00    -0.018 C 
HETATM   11  C9  UNL     1      24.492  -0.156  53.228  1.00  0.00     0.109 C 
HETATM   12  C10 UNL     1      25.457   0.591  52.555  1.00  0.00     0.109 C 
HETATM   13  O1  UNL     1      25.762   1.675  51.604  1.00  0.00    -0.381 OA
HETATM   14  C11 UNL     1      24.892   2.810  51.896  1.00  0.00     0.270 C 
HETATM   15  C12 UNL     1      23.598   2.369  51.236  1.00  0.00     0.250 C 
HETATM   16  O2  UNL     1      23.391   1.499  50.313  1.00  0.00    -0.271 OA
HETATM   17  N3  UNL     1      22.156   2.443  51.092  1.00  0.00    -0.262 N 
HETATM   18  C13 UNL     1      21.985   3.525  50.138  1.00  0.00     0.289 C 
HETATM   19  F1  UNL     1      22.153   3.078  48.839  1.00  0.00    -0.189 F 
HETATM   20  H6  UNL     1      20.755  -0.192  50.578  1.00  0.00     0.163 HD
ENDROOT
BRANCH  18  21
HETATM   21  N4  UNL     1      22.974   4.576  50.344  1.00  0.00    -0.328 N 
HETATM   22  C14 UNL     1      23.828   4.927  49.232  1.00  0.00     0.130 A 
HETATM   23  C15 UNL     1      24.768   5.855  49.328  1.00  0.00     0.117 A 
HETATM   24  O3  UNL     1      25.609   6.236  48.319  1.00  0.00    -0.274 OA
HETATM   25  C18 UNL     1      24.972   6.569  50.588  1.00  0.00     0.068 A 
HETATM   26  C16 UNL     1      26.893   6.821  48.554  1.00  0.00     0.489 C 
HETATM   27  F2  UNL     1      27.736   5.819  48.991  1.00  0.00    -0.168 F 
HETATM   28  C17 UNL     1      26.796   7.883  49.602  1.00  0.00     0.323 C 
HETATM   29  O4  UNL     1      27.372   9.001  49.565  1.00  0.00    -0.264 OA
HETATM   30  N6  UNL     1      25.972   7.566  50.719  1.00  0.00    -0.318 N 
HETATM   31  H19 UNL     1      26.072   8.041  51.639  1.00  0.00     0.169 HD
HETATM   32  C19 UNL     1      24.189   6.254  51.619  1.00  0.00     0.025 A 
HETATM   33  C20 UNL     1      23.105   5.243  51.648  1.00  0.00     0.157 A 
BRANCH  26  34
HETATM   34  N5  UNL     1      27.431   7.410  47.370  1.00  0.00     0.157 N 
HETATM   35  H17 UNL     1      27.286   8.449  47.321  1.00  0.00     0.321 HD
HETATM   36  H18 UNL     1      28.472   7.295  47.387  1.00  0.00     0.321 HD
ENDBRANCH  26  34
ENDBRANCH  18  21
TORSDOF 2
ENDMDL
MODEL 4
REMARK VINA RESULT:      -8.6      6.938     10.176
REMARK  2 active torsions:
REMARK  status: ('A' for Active; 'I' for Inactive)
REMARK    1  A    between atoms: C13_18  and  N4_20 
REMARK    2  A    between atoms: C16_24  and  N5_25 
ROOT
HETATM    1  C1  UNL     1      28.959   5.802  48.036  1.00  0.00     0.052 C 
HETATM    2  C2  UNL     1      29.679   6.939  47.385  1.00  0.00     0.016 C 
HETATM    3  C3  UNL     1      30.929   6.517  47.179  1.00  0.00     0.127 C 
HETATM    4  N1  UNL     1      32.067   7.185  46.584  1.00  0.00    -0.256 NA
HETATM    5  C4  UNL     1      32.386   8.460  46.596  1.00  0.00     0.204 C 
HETATM    6  N2  UNL     1      31.754   9.623  47.179  1.00  0.00    -0.355 N 
HETATM    7  C5  UNL     1      30.796   9.667  48.302  1.00  0.00     0.129 C 
HETATM    8  C6  UNL     1      31.152   8.692  49.390  1.00  0.00     0.068 C 
HETATM    9  C7  UNL     1      30.923  11.035  48.844  1.00  0.00     0.023 C 
HETATM   10  C8  UNL     1      30.298  12.237  49.054  1.00  0.00    -0.018 C 
HETATM   11  C9  UNL     1      29.199  13.259  49.024  1.00  0.00     0.109 C 
HETATM   12  C10 UNL     1      27.926  13.061  48.491  1.00  0.00     0.109 C 
HETATM   13  O1  UNL     1      26.978  12.155  47.818  1.00  0.00    -0.381 OA
HETATM   14  C11 UNL     1      27.069  10.839  48.442  1.00  0.00     0.270 C 
HETATM   15  C12 UNL     1      28.320  10.285  47.785  1.00  0.00     0.250 C 
HETATM   16  O2  UNL     1      28.905  10.626  46.693  1.00  0.00    -0.271 OA
HETATM   17  N3  UNL     1      29.445   9.369  47.764  1.00  0.00    -0.262 N 
HETATM   18  C13 UNL     1      28.887   8.192  47.121  1.00  0.00     0.289 C 
HETATM   19  F1  UNL     1      28.891   8.325  45.744  1.00  0.00    -0.189 F 
HETATM   20  H6  UNL     1      32.046  10.510  46.713  1.00  0.00     0.163 HD
ENDROOT
BRANCH  18  21
HETATM   21  N4  UNL     1      27.498   7.983  47.512  1.00  0.00    -0.328 N 
HETATM   22  C14 UNL     1      27.227   7.667  48.896  1.00  0.00     0.130 A 
HETATM   23  C15 UNL     1      26.000   7.442  49.342  1.00  0.00     0.117 A 
HETATM   24  O3  UNL     1      25.672   7.138  50.635  1.00  0.00    -0.274 OA
HETATM   25  C18 UNL     1      24.860   7.511  48.428  1.00  0.00     0.068 A 
HETATM   26  C16 UNL     1      24.488   6.418  50.989  1.00  0.00     0.489 C 
HETATM   27  F2  UNL     1      24.681   5.096  50.640  1.00  0.00    -0.168 F 
HETATM   28  C17 UNL     1      23.308   6.962  50.250  1.00  0.00     0.323 C 
HETATM   29  O4  UNL     1      22.166   7.158  50.739  1.00  0.00    -0.264 OA
HETATM   30  N6  UNL     1      23.536   7.274  48.879  1.00  0.00    -0.318 N 
HETATM   31  H19 UNL     1      22.764   7.336  48.185  1.00  0.00     0.169 HD
HETATM   32  C19 UNL     1      25.099   7.804  47.151  1.00  0.00     0.025 A 
HETATM   33  C20 UNL     1      26.413   8.078  46.523  1.00  0.00     0.157 A 
BRANCH  26  34
HETATM   34  N5  UNL     1      24.216   6.503  52.388  1.00  0.00     0.157 N 
HETATM   35  H17 UNL     1      24.276   7.481  52.764  1.00  0.00     0.321 HD
HETATM   36  H18 UNL     1      23.218   6.226  52.549  1.00  0.00     0.321 HD
ENDBRANCH  26  34
ENDBRANCH  18  21
TORSDOF 2
ENDMDL
MODEL 5
REMARK VINA RESULT:      -8.4      3.419      5.824
REMARK  2 active torsions:
REMARK  status: ('A' for Active; 'I' for Inactive)
REMARK    1  A    between atoms: C13_18  and  N4_20 
REMARK    2  A    between atoms: C16_24  and  N5_25 
ROOT
HETATM    1  C1  UNL     1      24.681   1.497  51.940  1.00  0.00     0.052 C 
HETATM    2  C2  UNL     1      23.260   1.797  52.293  1.00  0.00     0.016 C 
HETATM    3  C3  UNL     1      22.876   0.835  53.135  1.00  0.00     0.127 C 
HETATM    4  N1  UNL     1      21.612   0.609  53.803  1.00  0.00    -0.256 NA
HETATM    5  C4  UNL     1      20.393   0.886  53.395  1.00  0.00     0.204 C 
HETATM    6  N2  UNL     1      19.877   1.490  52.186  1.00  0.00    -0.355 N 
HETATM    7  C5  UNL     1      20.531   1.577  50.866  1.00  0.00     0.129 C 
HETATM    8  C6  UNL     1      21.278   0.319  50.518  1.00  0.00     0.068 C 
HETATM    9  C7  UNL     1      19.418   1.736  49.910  1.00  0.00     0.023 C 
HETATM   10  C8  UNL     1      18.814   2.559  48.993  1.00  0.00    -0.018 C 
HETATM   11  C9  UNL     1      18.591   3.785  48.158  1.00  0.00     0.109 C 
HETATM   12  C10 UNL     1      19.392   4.926  48.168  1.00  0.00     0.109 C 
HETATM   13  O1  UNL     1      20.571   5.623  48.712  1.00  0.00    -0.381 OA
HETATM   14  C11 UNL     1      21.681   4.678  48.779  1.00  0.00     0.270 C 
HETATM   15  C12 UNL     1      21.342   3.912  50.045  1.00  0.00     0.250 C 
HETATM   16  O2  UNL     1      20.586   4.234  51.033  1.00  0.00    -0.271 OA
HETATM   17  N3  UNL     1      21.458   2.737  50.889  1.00  0.00    -0.262 N 
HETATM   18  C13 UNL     1      22.644   3.025  51.677  1.00  0.00     0.289 C 
HETATM   19  F1  UNL     1      22.344   3.842  52.752  1.00  0.00    -0.189 F 
HETATM   20  H6  UNL     1      18.925   1.897  52.320  1.00  0.00     0.163 HD
ENDROOT
BRANCH  18  21
HETATM   21  N4  UNL     1      23.646   3.730  50.888  1.00  0.00    -0.328 N 
HETATM   22  C14 UNL     1      23.983   5.080  51.277  1.00  0.00     0.130 A 
HETATM   23  C15 UNL     1      24.867   5.808  50.611  1.00  0.00     0.117 A 
HETATM   24  O3  UNL     1      25.233   7.089  50.923  1.00  0.00    -0.274 OA
HETATM   25  C18 UNL     1      25.545   5.253  49.440  1.00  0.00     0.068 A 
HETATM   26  C16 UNL     1      25.757   8.006  49.959  1.00  0.00     0.489 C 
HETATM   27  F2  UNL     1      24.710   8.412  49.155  1.00  0.00    -0.168 F 
HETATM   28  C17 UNL     1      26.800   7.339  49.121  1.00  0.00     0.323 C 
HETATM   29  O4  UNL     1      27.893   7.853  48.767  1.00  0.00    -0.264 OA
HETATM   30  N6  UNL     1      26.496   6.011  48.709  1.00  0.00    -0.318 N 
HETATM   31  H19 UNL     1      26.946   5.565  47.884  1.00  0.00     0.169 HD
HETATM   32  C19 UNL     1      25.244   4.008  49.074  1.00  0.00     0.025 A 
HETATM   33  C20 UNL     1      24.280   3.089  49.726  1.00  0.00     0.157 A 
BRANCH  26  34
HETATM   34  N5  UNL     1      26.347   9.148  50.580  1.00  0.00     0.157 N 
HETATM   35  H17 UNL     1      26.948   9.711  49.929  1.00  0.00     0.321 HD
HETATM   36  H18 UNL     1      25.580   9.807  50.858  1.00  0.00     0.321 HD
ENDBRANCH  26  34
ENDBRANCH  18  21
TORSDOF 2
ENDMDL
MODEL 6
REMARK VINA RESULT:      -8.3      9.023     11.405
REMARK  2 active torsions:
REMARK  status: ('A' for Active; 'I' for Inactive)
REMARK    1  A    between atoms: C13_18  and  N4_20 
REMARK    2  A    between atoms: C16_24  and  N5_25 
ROOT
HETATM    1  C1  UNL     1      28.304   6.808  48.272  1.00  0.00     0.052 C 
HETATM    2  C2  UNL     1      28.492   8.264  48.557  1.00  0.00     0.016 C 
HETATM    3  C3  UNL     1      27.309   8.715  48.979  1.00  0.00     0.127 C 
HETATM    4  N1  UNL     1      26.894  10.037  49.396  1.00  0.00    -0.256 NA
HETATM    5  C4  UNL     1      27.314  11.213  48.983  1.00  0.00     0.204 C 
HETATM    6  N2  UNL     1      28.300  11.612  48.003  1.00  0.00    -0.355 N 
HETATM    7  C5  UNL     1      28.817  10.825  46.865  1.00  0.00     0.129 C 
HETATM    8  C6  UNL     1      27.737  10.024  46.192  1.00  0.00     0.068 C 
HETATM    9  C7  UNL     1      29.309  11.837  45.909  1.00  0.00     0.023 C 
HETATM   10  C8  UNL     1      30.404  12.358  45.267  1.00  0.00    -0.018 C 
HETATM   11  C9  UNL     1      31.844  12.515  44.877  1.00  0.00     0.109 C 
HETATM   12  C10 UNL     1      32.900  11.740  45.355  1.00  0.00     0.109 C 
HETATM   13  O1  UNL     1      33.351  10.637  46.222  1.00  0.00    -0.381 OA
HETATM   14  C11 UNL     1      32.419   9.522  46.081  1.00  0.00     0.270 C 
HETATM   15  C12 UNL     1      31.276   9.977  46.971  1.00  0.00     0.250 C 
HETATM   16  O2  UNL     1      31.259  10.837  47.925  1.00  0.00    -0.271 OA
HETATM   17  N3  UNL     1      29.883   9.928  47.375  1.00  0.00    -0.262 N 
HETATM   18  C13 UNL     1      29.867   8.835  48.332  1.00  0.00     0.289 C 
HETATM   19  F1  UNL     1      30.278   9.260  49.583  1.00  0.00    -0.189 F 
HETATM   20  H6  UNL     1      28.654  12.580  48.166  1.00  0.00     0.163 HD
ENDROOT
BRANCH  18  21
HETATM   21  N4  UNL     1      30.779   7.769  47.936  1.00  0.00    -0.328 N 
HETATM   22  C14 UNL     1      31.848   7.424  48.846  1.00  0.00     0.130 A 
HETATM   23  C15 UNL     1      32.737   6.484  48.567  1.00  0.00     0.117 A 
HETATM   24  O3  UNL     1      33.772   6.107  49.379  1.00  0.00    -0.274 OA
HETATM   25  C18 UNL     1      32.661   5.749  47.304  1.00  0.00     0.068 A 
HETATM   26  C16 UNL     1      34.970   5.503  48.885  1.00  0.00     0.489 C 
HETATM   27  F2  UNL     1      35.709   6.488  48.261  1.00  0.00    -0.168 F 
HETATM   28  C17 UNL     1      34.642   4.427  47.900  1.00  0.00     0.323 C 
HETATM   29  O4  UNL     1      35.203   3.302  47.831  1.00  0.00    -0.264 OA
HETATM   30  N6  UNL     1      33.601   4.737  46.980  1.00  0.00    -0.318 N 
HETATM   31  H19 UNL     1      33.498   4.248  46.067  1.00  0.00     0.169 HD
HETATM   32  C19 UNL     1      31.678   6.058  46.459  1.00  0.00     0.025 A 
HETATM   33  C20 UNL     1      30.622   7.081  46.646  1.00  0.00     0.157 A 
BRANCH  26  34
HETATM   34  N5  UNL     1      35.744   4.925  49.936  1.00  0.00     0.157 N 
HETATM   35  H17 UNL     1      36.192   4.013  49.669  1.00  0.00     0.321 HD
HETATM   36  H18 UNL     1      36.553   5.559  50.140  1.00  0.00     0.321 HD
ENDBRANCH  26  34
ENDBRANCH  18  21
TORSDOF 2
ENDMDL
MODEL 7
REMARK VINA RESULT:      -8.3      6.284      9.476
REMARK  2 active torsions:
REMARK  status: ('A' for Active; 'I' for Inactive)
REMARK    1  A    between atoms: C13_18  and  N4_20 
REMARK    2  A    between atoms: C16_24  and  N5_25 
ROOT
HETATM    1  C1  UNL     1      26.220  11.172  48.121  1.00  0.00     0.052 C 
HETATM    2  C2  UNL     1      27.621  10.988  48.609  1.00  0.00     0.016 C 
HETATM    3  C3  UNL     1      28.182  12.200  48.589  1.00  0.00     0.127 C 
HETATM    4  N1  UNL     1      29.514  12.632  48.953  1.00  0.00    -0.256 NA
HETATM    5  C4  UNL     1      30.655  11.985  48.860  1.00  0.00     0.204 C 
HETATM    6  N2  UNL     1      30.996  10.663  48.382  1.00  0.00    -0.355 N 
HETATM    7  C5  UNL     1      30.229   9.809  47.453  1.00  0.00     0.129 C 
HETATM    8  C6  UNL     1      29.607  10.600  46.336  1.00  0.00     0.068 C 
HETATM    9  C7  UNL     1      31.234   8.896  46.873  1.00  0.00     0.023 C 
HETATM   10  C8  UNL     1      31.661   7.598  46.761  1.00  0.00    -0.018 C 
HETATM   11  C9  UNL     1      31.671   6.112  46.973  1.00  0.00     0.109 C 
HETATM   12  C10 UNL     1      30.746   5.399  47.735  1.00  0.00     0.109 C 
HETATM   13  O1  UNL     1      29.543   5.421  48.586  1.00  0.00    -0.381 OA
HETATM   14  C11 UNL     1      28.559   6.313  47.980  1.00  0.00     0.270 C 
HETATM   15  C12 UNL     1      29.088   7.670  48.405  1.00  0.00     0.250 C 
HETATM   16  O2  UNL     1      29.880   7.989  49.366  1.00  0.00    -0.271 OA
HETATM   17  N3  UNL     1      29.179   9.109  48.236  1.00  0.00    -0.262 N 
HETATM   18  C13 UNL     1      28.037   9.593  48.991  1.00  0.00     0.289 C 
HETATM   19  F1  UNL     1      28.328   9.672  50.341  1.00  0.00    -0.189 F 
HETATM   20  H6  UNL     1      31.902  10.321  48.771  1.00  0.00     0.163 HD
ENDROOT
BRANCH  18  21
HETATM   21  N4  UNL     1      26.898   8.692  48.865  1.00  0.00    -0.328 N 
HETATM   22  C14 UNL     1      26.328   8.152  50.079  1.00  0.00     0.130 A 
HETATM   23  C15 UNL     1      25.304   7.312  50.066  1.00  0.00     0.117 A 
HETATM   24  O3  UNL     1      24.717   6.764  51.173  1.00  0.00    -0.274 OA
HETATM   25  C18 UNL     1      24.707   6.898  48.797  1.00  0.00     0.068 A 
HETATM   26  C16 UNL     1      24.003   5.525  51.144  1.00  0.00     0.489 C 
HETATM   27  F2  UNL     1      24.932   4.509  51.032  1.00  0.00    -0.168 F 
HETATM   28  C17 UNL     1      23.077   5.486  49.971  1.00  0.00     0.323 C 
HETATM   29  O4  UNL     1      21.898   5.047  49.984  1.00  0.00    -0.264 OA
HETATM   30  N6  UNL     1      23.611   5.999  48.754  1.00  0.00    -0.318 N 
HETATM   31  H19 UNL     1      23.227   5.740  47.823  1.00  0.00     0.169 HD
HETATM   32  C19 UNL     1      25.224   7.391  47.672  1.00  0.00     0.025 A 
HETATM   33  C20 UNL     1      26.360   8.335  47.544  1.00  0.00     0.157 A 
BRANCH  26  34
HETATM   34  N5  UNL     1      23.230   5.331  52.328  1.00  0.00     0.157 N 
HETATM   35  H17 UNL     1      23.712   5.669  53.198  1.00  0.00     0.321 HD
HETATM   36  H18 UNL     1      22.369   5.925  52.263  1.00  0.00     0.321 HD
ENDBRANCH  26  34
ENDBRANCH  18  21
TORSDOF 2
ENDMDL
MODEL 8
REMARK VINA RESULT:      -8.1      3.175      5.243
REMARK  2 active torsions:
REMARK  status: ('A' for Active; 'I' for Inactive)
REMARK    1  A    between atoms: C13_18  and  N4_20 
REMARK    2  A    between atoms: C16_24  and  N5_25 
ROOT
HETATM    1  C1  UNL     1      24.993   2.527  50.867  1.00  0.00     0.052 C 
HETATM    2  C2  UNL     1      24.852   3.660  49.902  1.00  0.00     0.016 C 
HETATM    3  C3  UNL     1      26.068   4.196  49.779  1.00  0.00     0.127 C 
HETATM    4  N1  UNL     1      26.535   5.313  48.986  1.00  0.00    -0.256 NA
HETATM    5  C4  UNL     1      25.900   6.409  48.633  1.00  0.00     0.204 C 
HETATM    6  N2  UNL     1      24.562   6.893  48.892  1.00  0.00    -0.355 N 
HETATM    7  C5  UNL     1      23.654   6.504  49.990  1.00  0.00     0.129 C 
HETATM    8  C6  UNL     1      24.383   6.326  51.293  1.00  0.00     0.068 C 
HETATM    9  C7  UNL     1      22.729   7.646  50.127  1.00  0.00     0.023 C 
HETATM   10  C8  UNL     1      21.432   8.080  50.016  1.00  0.00    -0.018 C 
HETATM   11  C9  UNL     1      19.959   8.006  49.741  1.00  0.00     0.109 C 
HETATM   12  C10 UNL     1      19.270   6.867  49.326  1.00  0.00     0.109 C 
HETATM   13  O1  UNL     1      19.316   5.440  48.963  1.00  0.00    -0.381 OA
HETATM   14  C11 UNL     1      20.165   4.741  49.923  1.00  0.00     0.270 C 
HETATM   15  C12 UNL     1      21.548   5.089  49.404  1.00  0.00     0.250 C 
HETATM   16  O2  UNL     1      21.923   5.487  48.241  1.00  0.00    -0.271 OA
HETATM   17  N3  UNL     1      22.978   5.241  49.601  1.00  0.00    -0.262 N 
HETATM   18  C13 UNL     1      23.482   3.906  49.328  1.00  0.00     0.289 C 
HETATM   19  F1  UNL     1      23.630   3.696  47.969  1.00  0.00    -0.189 F 
HETATM   20  H6  UNL     1      24.251   7.599  48.189  1.00  0.00     0.163 HD
ENDROOT
BRANCH  18  21
HETATM   21  N4  UNL     1      22.561   2.884  49.807  1.00  0.00    -0.328 N 
HETATM   22  C14 UNL     1      22.398   2.738  51.236  1.00  0.00     0.130 A 
HETATM   23  C15 UNL     1      21.598   1.825  51.767  1.00  0.00     0.117 A 
HETATM   24  O3  UNL     1      21.398   1.632  53.106  1.00  0.00    -0.274 OA
HETATM   25  C18 UNL     1      20.838   0.921  50.904  1.00  0.00     0.068 A 
HETATM   26  C16 UNL     1      20.974   0.383  53.658  1.00  0.00     0.489 C 
HETATM   27  F2  UNL     1      22.049  -0.483  53.610  1.00  0.00    -0.168 F 
HETATM   28  C17 UNL     1      19.843  -0.181  52.859  1.00  0.00     0.323 C 
HETATM   29  O4  UNL     1      18.816  -0.732  53.334  1.00  0.00    -0.264 OA
HETATM   30  N6  UNL     1      19.975  -0.066  51.446  1.00  0.00    -0.318 N 
HETATM   31  H19 UNL     1      19.460  -0.682  50.785  1.00  0.00     0.169 HD
HETATM   32  C19 UNL     1      20.979   1.048  49.586  1.00  0.00     0.025 A 
HETATM   33  C20 UNL     1      21.834   2.021  48.864  1.00  0.00     0.157 A 
BRANCH  26  34
HETATM   34  N5  UNL     1      20.539   0.522  55.011  1.00  0.00     0.157 N 
HETATM   35  H17 UNL     1      20.001   1.407  55.185  1.00  0.00     0.321 HD
HETATM   36  H18 UNL     1      19.852  -0.242  55.218  1.00  0.00     0.321 HD
ENDBRANCH  26  34
ENDBRANCH  18  21
TORSDOF 2
ENDMDL
MODEL 9
REMARK VINA RESULT:      -8.1      5.523      9.045
REMARK  2 active torsions:
REMARK  status: ('A' for Active; 'I' for Inactive)
REMARK    1  A    between atoms: C13_18  and  N4_20 
REMARK    2  A    between atoms: C16_24  and  N5_25 
ROOT
HETATM    1  C1  UNL     1      25.561  10.551  46.709  1.00  0.00     0.052 C 
HETATM    2  C2  UNL     1      26.329   9.928  47.829  1.00  0.00     0.016 C 
HETATM    3  C3  UNL     1      27.521  10.529  47.841  1.00  0.00     0.127 C 
HETATM    4  N1  UNL     1      28.669  10.338  48.701  1.00  0.00    -0.256 NA
HETATM    5  C4  UNL     1      29.097   9.243  49.291  1.00  0.00     0.204 C 
HETATM    6  N2  UNL     1      28.608   7.882  49.305  1.00  0.00    -0.355 N 
HETATM    7  C5  UNL     1      27.736   7.222  48.312  1.00  0.00     0.129 C 
HETATM    8  C6  UNL     1      28.080   7.618  46.902  1.00  0.00     0.068 C 
HETATM    9  C7  UNL     1      28.016   5.782  48.472  1.00  0.00     0.023 C 
HETATM   10  C8  UNL     1      27.513   4.558  48.835  1.00  0.00    -0.018 C 
HETATM   11  C9  UNL     1      26.506   3.554  49.314  1.00  0.00     0.109 C 
HETATM   12  C10 UNL     1      25.188   3.837  49.667  1.00  0.00     0.109 C 
HETATM   13  O1  UNL     1      24.121   4.843  49.821  1.00  0.00    -0.381 OA
HETATM   14  C11 UNL     1      24.141   5.725  48.658  1.00  0.00     0.270 C 
HETATM   15  C12 UNL     1      25.293   6.650  49.007  1.00  0.00     0.250 C 
HETATM   16  O2  UNL     1      25.828   6.916  50.144  1.00  0.00    -0.271 OA
HETATM   17  N3  UNL     1      26.331   7.588  48.621  1.00  0.00    -0.262 N 
HETATM   18  C13 UNL     1      25.631   8.860  48.630  1.00  0.00     0.289 C 
HETATM   19  F1  UNL     1      25.553   9.379  49.910  1.00  0.00    -0.189 F 
HETATM   20  H6  UNL     1      28.942   7.347  50.136  1.00  0.00     0.163 HD
ENDROOT
BRANCH  18  21
HETATM   21  N4  UNL     1      24.259   8.715  48.158  1.00  0.00    -0.328 N 
HETATM   22  C14 UNL     1      23.193   9.079  49.063  1.00  0.00     0.130 A 
HETATM   23  C15 UNL     1      21.916   8.964  48.732  1.00  0.00     0.117 A 
HETATM   24  O3  UNL     1      20.858   9.289  49.536  1.00  0.00    -0.274 OA
HETATM   25  C18 UNL     1      21.539   8.457  47.413  1.00  0.00     0.068 A 
HETATM   26  C16 UNL     1      19.560   8.705  49.392  1.00  0.00     0.489 C 
HETATM   27  F2  UNL     1      19.630   7.409  49.864  1.00  0.00    -0.168 F 
HETATM   28  C17 UNL     1      19.156   8.690  47.952  1.00  0.00     0.323 C 
HETATM   29  O4  UNL     1      18.011   8.971  47.512  1.00  0.00    -0.264 OA
HETATM   30  N6  UNL     1      20.179   8.324  47.033  1.00  0.00    -0.318 N 
HETATM   31  H19 UNL     1      19.971   7.957  46.082  1.00  0.00     0.169 HD
HETATM   32  C19 UNL     1      22.515   8.120  46.570  1.00  0.00     0.025 A 
HETATM   33  C20 UNL     1      23.976   8.200  46.810  1.00  0.00     0.157 A 
BRANCH  26  34
HETATM   34  N5  UNL     1      18.571   9.424  50.126  1.00  0.00     0.157 N 
HETATM   35  H17 UNL     1      18.604   9.239  51.159  1.00  0.00     0.321 HD
HETATM   36  H18 UNL     1      18.775  10.449  50.042  1.00  0.00     0.321 HD
ENDBRANCH  26  34
ENDBRANCH  18  21
TORSDOF 2
ENDMDL
