MODEL 1
REMARK VINA RESULT:      -8.8      0.000      0.000
REMARK  5 active torsions:
REMARK  status: ('A' for Active; 'I' for Inactive)
REMARK    1  A    between atoms: O1_2  and  C2_3 
REMARK    2  A    between atoms: C12_15  and  C13_16 
REMARK    3  A    between atoms: C13_16  and  C14_17 
REMARK    4  A    between atoms: C14_17  and  C15_18 
REMARK    5  A    between atoms: C15_18  and  O4_20 
ROOT
HETATM    1  C2  UNL     1      17.017  -0.189  52.123  1.00  0.00     0.070 A 
HETATM    2  C3  UNL     1      17.833   0.552  51.297  1.00  0.00     0.038 A 
HETATM    3  C4  UNL     1      19.192   0.517  51.508  1.00  0.00     0.017 A 
HETATM    4  C5  UNL     1      19.793  -0.210  52.489  1.00  0.00     0.009 A 
HETATM    5  C6  UNL     1      18.953  -0.937  53.298  1.00  0.00     0.049 A 
HETATM    6  C7  UNL     1      17.577  -0.939  53.131  1.00  0.00     0.067 A 
HETATM    7  N1  UNL     1      19.824  -1.583  54.249  1.00  0.00    -0.322 N 
HETATM    8  C8  UNL     1      21.168  -1.211  53.967  1.00  0.00     0.259 A 
HETATM    9  O2  UNL     1      21.958  -1.748  54.771  1.00  0.00    -0.267 OA
HETATM   10  C9  UNL     1      21.188  -0.319  52.825  1.00  0.00     0.071 A 
HETATM   11  C10 UNL     1      22.298   0.132  52.316  1.00  0.00     0.045 C 
HETATM   12  C11 UNL     1      23.540  -0.230  53.015  1.00  0.00     0.033 C 
HETATM   13  C12 UNL     1      24.701   0.407  53.282  1.00  0.00    -0.073 C 
HETATM   14  C16 UNL     1      25.078   1.826  52.888  1.00  0.00     0.010 C 
HETATM   15  C17 UNL     1      26.106   2.363  53.856  1.00  0.00     0.015 C 
HETATM   16  C18 UNL     1      23.894   2.712  52.891  1.00  0.00     0.010 C 
HETATM   17  C19 UNL     1      23.254   3.113  51.644  1.00  0.00     0.020 C 
HETATM   18  C20 UNL     1      22.856   2.123  50.632  1.00  0.00     0.120 C 
HETATM   19  N2  UNL     1      22.261   0.896  51.118  1.00  0.00    -0.389 N 
HETATM   20  H7  UNL     1      19.368  -2.208  54.984  1.00  0.00     0.169 HD
HETATM   21  H24 UNL     1      21.644   0.412  50.400  1.00  0.00     0.159 HD
ENDROOT
BRANCH  13  22
HETATM   22  C13 UNL     1      25.738  -0.294  54.022  1.00  0.00     0.045 C 
BRANCH  22  23
HETATM   23  C14 UNL     1      26.738  -1.057  53.228  1.00  0.00     0.114 C 
BRANCH  23  24
HETATM   24  C15 UNL     1      28.112  -0.830  53.820  1.00  0.00     0.139 C 
HETATM   25  O3  UNL     1      29.148  -1.216  53.209  1.00  0.00    -0.650 OA
BRANCH  24  26
HETATM   26  O4  UNL     1      28.253  -0.194  55.039  1.00  0.00    -0.776 OA
HETATM   27  H13 UNL     1      27.381   0.086  55.511  1.00  0.00     0.167 HD
ENDBRANCH  24  26
ENDBRANCH  23  24
ENDBRANCH  22  23
ENDBRANCH  13  22
BRANCH   1  28
HETATM   28  O1  UNL     1      15.648  -0.218  51.991  1.00  0.00    -0.356 OA
HETATM   29  C1  UNL     1      14.759   0.262  52.993  1.00  0.00     0.210 C 
ENDBRANCH   1  28
TORSDOF 5
ENDMDL
MODEL 2
REMARK VINA RESULT:      -8.7      3.412      7.365
REMARK  5 active torsions:
REMARK  status: ('A' for Active; 'I' for Inactive)
REMARK    1  A    between atoms: O1_2  and  C2_3 
REMARK    2  A    between atoms: C12_15  and  C13_16 
REMARK    3  A    between atoms: C13_16  and  C14_17 
REMARK    4  A    between atoms: C14_17  and  C15_18 
REMARK    5  A    between atoms: C15_18  and  O4_20 
ROOT
HETATM    1  C2  UNL     1      26.130   5.171  49.086  1.00  0.00     0.070 A 
HETATM    2  C3  UNL     1      26.950   4.118  49.427  1.00  0.00     0.038 A 
HETATM    3  C4  UNL     1      26.437   3.111  50.212  1.00  0.00     0.017 A 
HETATM    4  C5  UNL     1      25.160   3.083  50.679  1.00  0.00     0.009 A 
HETATM    5  C6  UNL     1      24.367   4.148  50.325  1.00  0.00     0.049 A 
HETATM    6  C7  UNL     1      24.831   5.190  49.536  1.00  0.00     0.067 A 
HETATM    7  N1  UNL     1      23.096   3.890  50.956  1.00  0.00    -0.322 N 
HETATM    8  C8  UNL     1      23.181   2.664  51.674  1.00  0.00     0.259 A 
HETATM    9  O2  UNL     1      22.100   2.402  52.241  1.00  0.00    -0.267 OA
HETATM   10  C9  UNL     1      24.510   2.108  51.514  1.00  0.00     0.071 A 
HETATM   11  C10 UNL     1      24.847   0.957  52.023  1.00  0.00     0.045 C 
HETATM   12  C11 UNL     1      23.838   0.283  52.854  1.00  0.00     0.033 C 
HETATM   13  C12 UNL     1      23.879  -0.459  53.983  1.00  0.00    -0.073 C 
HETATM   14  C16 UNL     1      25.113  -0.838  54.785  1.00  0.00     0.010 C 
HETATM   15  C17 UNL     1      24.723  -1.092  56.222  1.00  0.00     0.015 C 
HETATM   16  C18 UNL     1      26.130   0.233  54.736  1.00  0.00     0.010 C 
HETATM   17  C19 UNL     1      27.309   0.111  53.886  1.00  0.00     0.020 C 
HETATM   18  C20 UNL     1      27.195  -0.228  52.460  1.00  0.00     0.120 C 
HETATM   19  N2  UNL     1      26.120   0.402  51.722  1.00  0.00    -0.389 N 
HETATM   20  H7  UNL     1      22.322   4.608  50.808  1.00  0.00     0.169 HD
HETATM   21  H24 UNL     1      26.302   0.462  50.677  1.00  0.00     0.159 HD
ENDROOT
BRANCH  13  22
HETATM   22  C13 UNL     1      22.636  -0.977  54.532  1.00  0.00     0.045 C 
BRANCH  22  23
HETATM   23  C14 UNL     1      21.468  -0.057  54.551  1.00  0.00     0.114 C 
BRANCH  23  24
HETATM   24  C15 UNL     1      20.356  -0.658  53.719  1.00  0.00     0.139 C 
HETATM   25  O3  UNL     1      20.055  -0.167  52.595  1.00  0.00    -0.650 OA
BRANCH  24  26
HETATM   26  O4  UNL     1      19.652  -1.755  54.178  1.00  0.00    -0.776 OA
HETATM   27  H13 UNL     1      19.811  -2.641  53.676  1.00  0.00     0.167 HD
ENDBRANCH  24  26
ENDBRANCH  23  24
ENDBRANCH  22  23
ENDBRANCH  13  22
BRANCH   1  28
HETATM   28  O1  UNL     1      26.551   6.224  48.307  1.00  0.00    -0.356 OA
HETATM   29  C1  UNL     1      27.916   6.609  48.190  1.00  0.00     0.210 C 
ENDBRANCH   1  28
TORSDOF 5
ENDMDL
MODEL 3
REMARK VINA RESULT:      -8.5      1.831      7.693
REMARK  5 active torsions:
REMARK  status: ('A' for Active; 'I' for Inactive)
REMARK    1  A    between atoms: O1_2  and  C2_3 
REMARK    2  A    between atoms: C12_15  and  C13_16 
REMARK    3  A    between atoms: C13_16  and  C14_17 
REMARK    4  A    between atoms: C14_17  and  C15_18 
REMARK    5  A    between atoms: C15_18  and  O4_20 
ROOT
HETATM    1  C2  UNL     1      28.041   0.649  53.392  1.00  0.00     0.070 A 
HETATM    2  C3  UNL     1      27.437   1.615  52.617  1.00  0.00     0.038 A 
HETATM    3  C4  UNL     1      26.064   1.633  52.539  1.00  0.00     0.017 A 
HETATM    4  C5  UNL     1      25.251   0.752  53.182  1.00  0.00     0.009 A 
HETATM    5  C6  UNL     1      25.882  -0.201  53.944  1.00  0.00     0.049 A 
HETATM    6  C7  UNL     1      27.262  -0.267  54.060  1.00  0.00     0.067 A 
HETATM    7  N1  UNL     1      24.815  -1.007  54.486  1.00  0.00    -0.322 N 
HETATM    8  C8  UNL     1      23.572  -0.497  54.020  1.00  0.00     0.259 A 
HETATM    9  O2  UNL     1      22.618  -1.168  54.464  1.00  0.00    -0.267 OA
HETATM   10  C9  UNL     1      23.815   0.652  53.169  1.00  0.00     0.071 A 
HETATM   11  C10 UNL     1      22.846   1.349  52.649  1.00  0.00     0.045 C 
HETATM   12  C11 UNL     1      21.480   0.859  52.889  1.00  0.00     0.033 C 
HETATM   13  C12 UNL     1      20.348   0.804  52.153  1.00  0.00    -0.073 C 
HETATM   14  C16 UNL     1      20.161   1.285  50.723  1.00  0.00     0.010 C 
HETATM   15  C17 UNL     1      19.035   0.515  50.074  1.00  0.00     0.015 C 
HETATM   16  C18 UNL     1      21.397   1.103  49.933  1.00  0.00     0.010 C 
HETATM   17  C19 UNL     1      22.266   2.234  49.627  1.00  0.00     0.020 C 
HETATM   18  C20 UNL     1      22.741   3.144  50.680  1.00  0.00     0.120 C 
HETATM   19  N2  UNL     1      23.143   2.540  51.933  1.00  0.00    -0.389 N 
HETATM   20  H7  UNL     1      25.090  -1.821  55.119  1.00  0.00     0.169 HD
HETATM   21  H24 UNL     1      23.828   3.133  52.489  1.00  0.00     0.159 HD
ENDROOT
BRANCH  13  22
HETATM   22  C13 UNL     1      19.148   0.233  52.744  1.00  0.00     0.045 C 
BRANCH  22  23
HETATM   23  C14 UNL     1      19.280  -1.101  53.389  1.00  0.00     0.114 C 
BRANCH  23  24
HETATM   24  C15 UNL     1      17.909  -1.733  53.494  1.00  0.00     0.139 C 
HETATM   25  O3  UNL     1      17.778  -2.989  53.494  1.00  0.00    -0.650 OA
BRANCH  24  26
HETATM   26  O4  UNL     1      16.779  -0.944  53.592  1.00  0.00    -0.776 OA
HETATM   27  H13 UNL     1      16.779  -0.076  53.037  1.00  0.00     0.167 HD
ENDBRANCH  24  26
ENDBRANCH  23  24
ENDBRANCH  22  23
ENDBRANCH  13  22
BRANCH   1  28
HETATM   28  O1  UNL     1      29.405   0.549  53.533  1.00  0.00    -0.356 OA
HETATM   29  C1  UNL     1      30.089  -0.696  53.630  1.00  0.00     0.210 C 
ENDBRANCH   1  28
TORSDOF 5
ENDMDL
MODEL 4
REMARK VINA RESULT:      -8.5      3.921      7.137
REMARK  5 active torsions:
REMARK  status: ('A' for Active; 'I' for Inactive)
REMARK    1  A    between atoms: O1_2  and  C2_3 
REMARK    2  A    between atoms: C12_15  and  C13_16 
REMARK    3  A    between atoms: C13_16  and  C14_17 
REMARK    4  A    between atoms: C14_17  and  C15_18 
REMARK    5  A    between atoms: C15_18  and  O4_20 
ROOT
HETATM    1  C2  UNL     1      25.112   6.859  48.216  1.00  0.00     0.070 A 
HETATM    2  C3  UNL     1      23.919   6.646  48.871  1.00  0.00     0.038 A 
HETATM    3  C4  UNL     1      23.847   5.632  49.798  1.00  0.00     0.017 A 
HETATM    4  C5  UNL     1      24.887   4.815  50.117  1.00  0.00     0.009 A 
HETATM    5  C6  UNL     1      26.063   5.049  49.445  1.00  0.00     0.049 A 
HETATM    6  C7  UNL     1      26.193   6.057  48.502  1.00  0.00     0.067 A 
HETATM    7  N1  UNL     1      26.978   4.050  49.941  1.00  0.00    -0.322 N 
HETATM    8  C8  UNL     1      26.303   3.247  50.902  1.00  0.00     0.259 A 
HETATM    9  O2  UNL     1      27.059   2.364  51.357  1.00  0.00    -0.267 OA
HETATM   10  C9  UNL     1      24.939   3.717  51.045  1.00  0.00     0.071 A 
HETATM   11  C10 UNL     1      24.111   3.194  51.903  1.00  0.00     0.045 C 
HETATM   12  C11 UNL     1      24.595   2.031  52.663  1.00  0.00     0.033 C 
HETATM   13  C12 UNL     1      24.035   0.883  53.101  1.00  0.00    -0.073 C 
HETATM   14  C16 UNL     1      22.596   0.433  52.907  1.00  0.00     0.010 C 
HETATM   15  C17 UNL     1      22.526  -1.075  52.959  1.00  0.00     0.015 C 
HETATM   16  C18 UNL     1      22.062   0.902  51.611  1.00  0.00     0.010 C 
HETATM   17  C19 UNL     1      21.147   2.037  51.542  1.00  0.00     0.020 C 
HETATM   18  C20 UNL     1      21.462   3.318  52.192  1.00  0.00     0.120 C 
HETATM   19  N2  UNL     1      22.831   3.782  52.091  1.00  0.00    -0.389 N 
HETATM   20  H7  UNL     1      27.967   4.053  49.543  1.00  0.00     0.169 HD
HETATM   21  H24 UNL     1      22.930   4.835  52.200  1.00  0.00     0.159 HD
ENDROOT
BRANCH  13  22
HETATM   22  C13 UNL     1      24.851  -0.061  53.848  1.00  0.00     0.045 C 
BRANCH  22  23
HETATM   23  C14 UNL     1      26.219  -0.332  53.329  1.00  0.00     0.114 C 
BRANCH  23  24
HETATM   24  C15 UNL     1      27.232   0.270  54.278  1.00  0.00     0.139 C 
HETATM   25  O3  UNL     1      27.889  -0.464  55.070  1.00  0.00    -0.650 OA
BRANCH  24  26
HETATM   26  O4  UNL     1      27.455   1.634  54.293  1.00  0.00    -0.776 OA
HETATM   27  H13 UNL     1      26.942   2.172  55.006  1.00  0.00     0.167 HD
ENDBRANCH  24  26
ENDBRANCH  23  24
ENDBRANCH  22  23
ENDBRANCH  13  22
BRANCH   1  28
HETATM   28  O1  UNL     1      25.283   7.846  47.274  1.00  0.00    -0.356 OA
HETATM   29  C1  UNL     1      26.280   8.856  47.376  1.00  0.00     0.210 C 
ENDBRANCH   1  28
TORSDOF 5
ENDMDL
MODEL 5
REMARK VINA RESULT:      -8.5      4.140      6.373
REMARK  5 active torsions:
REMARK  status: ('A' for Active; 'I' for Inactive)
REMARK    1  A    between atoms: O1_2  and  C2_3 
REMARK    2  A    between atoms: C12_15  and  C13_16 
REMARK    3  A    between atoms: C13_16  and  C14_17 
REMARK    4  A    between atoms: C14_17  and  C15_18 
REMARK    5  A    between atoms: C15_18  and  O4_20 
ROOT
HETATM    1  C2  UNL     1      22.959  -0.263  53.657  1.00  0.00     0.070 A 
HETATM    2  C3  UNL     1      22.117   0.663  53.082  1.00  0.00     0.038 A 
HETATM    3  C4  UNL     1      22.659   1.636  52.275  1.00  0.00     0.017 A 
HETATM    4  C5  UNL     1      23.987   1.746  51.999  1.00  0.00     0.009 A 
HETATM    5  C6  UNL     1      24.802   0.809  52.589  1.00  0.00     0.049 A 
HETATM    6  C7  UNL     1      24.310  -0.193  53.411  1.00  0.00     0.067 A 
HETATM    7  N1  UNL     1      26.136   1.159  52.164  1.00  0.00    -0.322 N 
HETATM    8  C8  UNL     1      26.063   2.307  51.326  1.00  0.00     0.259 A 
HETATM    9  O2  UNL     1      27.199   2.648  50.936  1.00  0.00    -0.267 OA
HETATM   10  C9  UNL     1      24.679   2.717  51.194  1.00  0.00     0.071 A 
HETATM   11  C10 UNL     1      24.318   3.712  50.436  1.00  0.00     0.045 C 
HETATM   12  C11 UNL     1      25.398   4.470  49.785  1.00  0.00     0.033 C 
HETATM   13  C12 UNL     1      25.604   5.774  49.498  1.00  0.00    -0.073 C 
HETATM   14  C16 UNL     1      24.674   6.937  49.805  1.00  0.00     0.010 C 
HETATM   15  C17 UNL     1      25.477   8.211  49.918  1.00  0.00     0.015 C 
HETATM   16  C18 UNL     1      23.935   6.711  51.065  1.00  0.00     0.010 C 
HETATM   17  C19 UNL     1      22.536   6.299  51.051  1.00  0.00     0.020 C 
HETATM   18  C20 UNL     1      22.081   5.151  50.254  1.00  0.00     0.120 C 
HETATM   19  N2  UNL     1      22.937   3.983  50.242  1.00  0.00    -0.389 N 
HETATM   20  H7  UNL     1      26.937   0.549  52.514  1.00  0.00     0.169 HD
HETATM   21  H24 UNL     1      22.421   3.082  50.016  1.00  0.00     0.159 HD
ENDROOT
BRANCH  13  22
HETATM   22  C13 UNL     1      26.831   6.164  48.823  1.00  0.00     0.045 C 
BRANCH  22  23
HETATM   23  C14 UNL     1      27.785   5.078  48.472  1.00  0.00     0.114 C 
BRANCH  23  24
HETATM   24  C15 UNL     1      29.189   5.643  48.456  1.00  0.00     0.139 C 
HETATM   25  O3  UNL     1      30.140   4.992  47.939  1.00  0.00    -0.650 OA
BRANCH  24  26
HETATM   26  O4  UNL     1      29.451   6.883  49.008  1.00  0.00    -0.776 OA
HETATM   27  H13 UNL     1      30.342   6.975  49.518  1.00  0.00     0.167 HD
ENDBRANCH  24  26
ENDBRANCH  23  24
ENDBRANCH  22  23
ENDBRANCH  13  22
BRANCH   1  28
HETATM   28  O1  UNL     1      22.512  -1.272  54.478  1.00  0.00    -0.356 OA
HETATM   29  C1  UNL     1      21.150  -1.678  54.542  1.00  0.00     0.210 C 
ENDBRANCH   1  28
TORSDOF 5
ENDMDL
MODEL 6
REMARK VINA RESULT:      -8.1      3.614      8.022
REMARK  5 active torsions:
REMARK  status: ('A' for Active; 'I' for Inactive)
REMARK    1  A    between atoms: O1_2  and  C2_3 
REMARK    2  A    between atoms: C12_15  and  C13_16 
REMARK    3  A    between atoms: C13_16  and  C14_17 
REMARK    4  A    between atoms: C14_17  and  C15_18 
REMARK    5  A    between atoms: C15_18  and  O4_20 
ROOT
HETATM    1  C2  UNL     1      27.525  -0.101  53.638  1.00  0.00     0.070 A 
HETATM    2  C3  UNL     1      26.275  -0.670  53.533  1.00  0.00     0.038 A 
HETATM    3  C4  UNL     1      25.302   0.001  52.829  1.00  0.00     0.017 A 
HETATM    4  C5  UNL     1      25.492   1.203  52.221  1.00  0.00     0.009 A 
HETATM    5  C6  UNL     1      26.748   1.747  52.346  1.00  0.00     0.049 A 
HETATM    6  C7  UNL     1      27.767   1.115  53.043  1.00  0.00     0.067 A 
HETATM    7  N1  UNL     1      26.677   3.007  51.647  1.00  0.00    -0.322 N 
HETATM    8  C8  UNL     1      25.363   3.168  51.125  1.00  0.00     0.259 A 
HETATM    9  O2  UNL     1      25.255   4.250  50.512  1.00  0.00    -0.267 OA
HETATM   10  C9  UNL     1      24.563   2.011  51.478  1.00  0.00     0.071 A 
HETATM   11  C10 UNL     1      23.331   1.871  51.079  1.00  0.00     0.045 C 
HETATM   12  C11 UNL     1      22.750   2.993  50.326  1.00  0.00     0.033 C 
HETATM   13  C12 UNL     1      21.531   3.573  50.275  1.00  0.00    -0.073 C 
HETATM   14  C16 UNL     1      20.296   3.179  51.069  1.00  0.00     0.010 C 
HETATM   15  C17 UNL     1      19.387   4.376  51.218  1.00  0.00     0.015 C 
HETATM   16  C18 UNL     1      20.662   2.674  52.409  1.00  0.00     0.010 C 
HETATM   17  C19 UNL     1      20.644   1.245  52.703  1.00  0.00     0.020 C 
HETATM   18  C20 UNL     1      21.336   0.275  51.842  1.00  0.00     0.120 C 
HETATM   19  N2  UNL     1      22.641   0.658  51.344  1.00  0.00    -0.389 N 
HETATM   20  H7  UNL     1      27.561   3.602  51.620  1.00  0.00     0.169 HD
HETATM   21  H24 UNL     1      23.256  -0.171  51.087  1.00  0.00     0.159 HD
ENDROOT
BRANCH  13  22
HETATM   22  C13 UNL     1      21.321   4.699  49.380  1.00  0.00     0.045 C 
BRANCH  22  23
HETATM   23  C14 UNL     1      22.370   5.754  49.360  1.00  0.00     0.114 C 
BRANCH  23  24
HETATM   24  C15 UNL     1      22.335   6.505  50.673  1.00  0.00     0.139 C 
HETATM   25  O3  UNL     1      21.415   7.337  50.915  1.00  0.00    -0.650 OA
BRANCH  24  26
HETATM   26  O4  UNL     1      23.310   6.292  51.630  1.00  0.00    -0.776 OA
HETATM   27  H13 UNL     1      23.900   7.102  51.867  1.00  0.00     0.167 HD
ENDBRANCH  24  26
ENDBRANCH  23  24
ENDBRANCH  22  23
ENDBRANCH  13  22
BRANCH   1  28
HETATM   28  O1  UNL     1      28.562  -0.694  54.320  1.00  0.00    -0.356 OA
HETATM   29  C1  UNL     1      29.846  -0.915  53.746  1.00  0.00     0.210 C 
ENDBRANCH   1  28
TORSDOF 5
ENDMDL
MODEL 7
REMARK VINA RESULT:      -8.1      1.544      2.164
REMARK  5 active torsions:
REMARK  status: ('A' for Active; 'I' for Inactive)
REMARK    1  A    between atoms: O1_2  and  C2_3 
REMARK    2  A    between atoms: C12_15  and  C13_16 
REMARK    3  A    between atoms: C13_16  and  C14_17 
REMARK    4  A    between atoms: C14_17  and  C15_18 
REMARK    5  A    between atoms: C15_18  and  O4_20 
ROOT
HETATM    1  C2  UNL     1      16.413  -1.531  52.315  1.00  0.00     0.070 A 
HETATM    2  C3  UNL     1      16.760  -0.586  51.375  1.00  0.00     0.038 A 
HETATM    3  C4  UNL     1      18.022  -0.041  51.423  1.00  0.00     0.017 A 
HETATM    4  C5  UNL     1      18.963  -0.376  52.347  1.00  0.00     0.009 A 
HETATM    5  C6  UNL     1      18.587  -1.319  53.273  1.00  0.00     0.049 A 
HETATM    6  C7  UNL     1      17.329  -1.902  53.271  1.00  0.00     0.067 A 
HETATM    7  N1  UNL     1      19.735  -1.472  54.133  1.00  0.00    -0.322 N 
HETATM    8  C8  UNL     1      20.766  -0.601  53.681  1.00  0.00     0.259 A 
HETATM    9  O2  UNL     1      21.781  -0.699  54.401  1.00  0.00    -0.267 OA
HETATM   10  C9  UNL     1      20.300   0.127  52.517  1.00  0.00     0.071 A 
HETATM   11  C10 UNL     1      21.065   0.956  51.866  1.00  0.00     0.045 C 
HETATM   12  C11 UNL     1      22.405   1.194  52.422  1.00  0.00     0.033 C 
HETATM   13  C12 UNL     1      23.212   2.273  52.529  1.00  0.00    -0.073 C 
HETATM   14  C16 UNL     1      22.920   3.686  52.049  1.00  0.00     0.010 C 
HETATM   15  C17 UNL     1      23.716   4.673  52.870  1.00  0.00     0.015 C 
HETATM   16  C18 UNL     1      21.480   4.001  52.167  1.00  0.00     0.010 C 
HETATM   17  C19 UNL     1      20.614   4.003  50.993  1.00  0.00     0.020 C 
HETATM   18  C20 UNL     1      20.573   2.862  50.067  1.00  0.00     0.120 C 
HETATM   19  N2  UNL     1      20.597   1.540  50.658  1.00  0.00    -0.389 N 
HETATM   20  H7  UNL     1      19.656  -2.170  54.935  1.00  0.00     0.169 HD
HETATM   21  H24 UNL     1      20.174   0.790  50.034  1.00  0.00     0.159 HD
ENDROOT
BRANCH  13  22
HETATM   22  C13 UNL     1      24.513   2.123  53.161  1.00  0.00     0.045 C 
BRANCH  22  23
HETATM   23  C14 UNL     1      25.021   0.736  53.342  1.00  0.00     0.114 C 
BRANCH  23  24
HETATM   24  C15 UNL     1      26.213   0.768  54.275  1.00  0.00     0.139 C 
HETATM   25  O3  UNL     1      26.894   1.823  54.414  1.00  0.00    -0.650 OA
BRANCH  24  26
HETATM   26  O4  UNL     1      26.573  -0.358  54.990  1.00  0.00    -0.776 OA
HETATM   27  H13 UNL     1      25.925  -1.158  54.939  1.00  0.00     0.167 HD
ENDBRANCH  24  26
ENDBRANCH  23  24
ENDBRANCH  22  23
ENDBRANCH  13  22
BRANCH   1  28
HETATM   28  O1  UNL     1      15.177  -2.133  52.349  1.00  0.00    -0.356 OA
HETATM   29  C1  UNL     1      14.221  -2.009  51.302  1.00  0.00     0.210 C 
ENDBRANCH   1  28
TORSDOF 5
ENDMDL
MODEL 8
REMARK VINA RESULT:      -8.0      2.458      7.560
REMARK  5 active torsions:
REMARK  status: ('A' for Active; 'I' for Inactive)
REMARK    1  A    between atoms: O1_2  and  C2_3 
REMARK    2  A    between atoms: C12_15  and  C13_16 
REMARK    3  A    between atoms: C13_16  and  C14_17 
REMARK    4  A    between atoms: C14_17  and  C15_18 
REMARK    5  A    between atoms: C15_18  and  O4_20 
ROOT
HETATM    1  C2  UNL     1      27.395  -0.520  53.334  1.00  0.00     0.070 A 
HETATM    2  C3  UNL     1      27.566   0.689  52.695  1.00  0.00     0.038 A 
HETATM    3  C4  UNL     1      26.454   1.451  52.419  1.00  0.00     0.017 A 
HETATM    4  C5  UNL     1      25.182   1.088  52.738  1.00  0.00     0.009 A 
HETATM    5  C6  UNL     1      25.044  -0.123  53.371  1.00  0.00     0.049 A 
HETATM    6  C7  UNL     1      26.128  -0.932  53.676  1.00  0.00     0.067 A 
HETATM    7  N1  UNL     1      23.623  -0.276  53.571  1.00  0.00    -0.322 N 
HETATM    8  C8  UNL     1      22.960   0.866  53.040  1.00  0.00     0.259 A 
HETATM    9  O2  UNL     1      21.724   0.774  53.189  1.00  0.00    -0.267 OA
HETATM   10  C9  UNL     1      23.943   1.778  52.491  1.00  0.00     0.071 A 
HETATM   11  C10 UNL     1      23.615   2.933  51.988  1.00  0.00     0.045 C 
HETATM   12  C11 UNL     1      22.177   3.235  51.915  1.00  0.00     0.033 C 
HETATM   13  C12 UNL     1      21.383   3.869  51.024  1.00  0.00    -0.073 C 
HETATM   14  C16 UNL     1      21.809   4.510  49.712  1.00  0.00     0.010 C 
HETATM   15  C17 UNL     1      20.638   4.533  48.758  1.00  0.00     0.015 C 
HETATM   16  C18 UNL     1      22.928   3.768  49.095  1.00  0.00     0.010 C 
HETATM   17  C19 UNL     1      24.294   4.276  49.162  1.00  0.00     0.020 C 
HETATM   18  C20 UNL     1      24.900   4.682  50.439  1.00  0.00     0.120 C 
HETATM   19  N2  UNL     1      24.633   3.839  51.586  1.00  0.00    -0.389 N 
HETATM   20  H7  UNL     1      23.290  -1.166  54.056  1.00  0.00     0.169 HD
HETATM   21  H24 UNL     1      25.370   3.914  52.347  1.00  0.00     0.159 HD
ENDROOT
BRANCH  13  22
HETATM   22  C13 UNL     1      19.960   3.979  51.299  1.00  0.00     0.045 C 
BRANCH  22  23
HETATM   23  C14 UNL     1      19.296   2.801  51.919  1.00  0.00     0.114 C 
BRANCH  23  24
HETATM   24  C15 UNL     1      19.149   1.715  50.875  1.00  0.00     0.139 C 
HETATM   25  O3  UNL     1      18.442   1.902  49.845  1.00  0.00    -0.650 OA
BRANCH  24  26
HETATM   26  O4  UNL     1      19.789   0.500  51.033  1.00  0.00    -0.776 OA
HETATM   27  H13 UNL     1      20.769   0.538  51.348  1.00  0.00     0.167 HD
ENDBRANCH  24  26
ENDBRANCH  23  24
ENDBRANCH  22  23
ENDBRANCH  13  22
BRANCH   1  28
HETATM   28  O1  UNL     1      28.443  -1.351  53.654  1.00  0.00    -0.356 OA
HETATM   29  C1  UNL     1      29.788  -0.899  53.770  1.00  0.00     0.210 C 
ENDBRANCH   1  28
TORSDOF 5
ENDMDL
MODEL 9
REMARK VINA RESULT:      -7.8      3.753      7.366
REMARK  5 active torsions:
REMARK  status: ('A' for Active; 'I' for Inactive)
REMARK    1  A    between atoms: O1_2  and  C2_3 
REMARK    2  A    between atoms: C12_15  and  C13_16 
REMARK    3  A    between atoms: C13_16  and  C14_17 
REMARK    4  A    between atoms: C14_17  and  C15_18 
REMARK    5  A    between atoms: C15_18  and  O4_20 
ROOT
HETATM    1  C2  UNL     1      24.568   7.573  50.153  1.00  0.00     0.070 A 
HETATM    2  C3  UNL     1      25.534   6.596  50.053  1.00  0.00     0.038 A 
HETATM    3  C4  UNL     1      25.233   5.325  50.485  1.00  0.00     0.017 A 
HETATM    4  C5  UNL     1      24.031   4.962  51.010  1.00  0.00     0.009 A 
HETATM    5  C6  UNL     1      23.090   5.959  51.101  1.00  0.00     0.049 A 
HETATM    6  C7  UNL     1      23.338   7.257  50.680  1.00  0.00     0.067 A 
HETATM    7  N1  UNL     1      21.940   5.329  51.702  1.00  0.00    -0.322 N 
HETATM    8  C8  UNL     1      22.245   3.961  51.951  1.00  0.00     0.259 A 
HETATM    9  O2  UNL     1      21.275   3.376  52.476  1.00  0.00    -0.267 OA
HETATM   10  C9  UNL     1      23.598   3.685  51.512  1.00  0.00     0.071 A 
HETATM   11  C10 UNL     1      24.118   2.493  51.572  1.00  0.00     0.045 C 
HETATM   12  C11 UNL     1      23.297   1.446  52.199  1.00  0.00     0.033 C 
HETATM   13  C12 UNL     1      23.554   0.390  53.002  1.00  0.00    -0.073 C 
HETATM   14  C16 UNL     1      24.910  -0.049  53.531  1.00  0.00     0.010 C 
HETATM   15  C17 UNL     1      24.726  -0.812  54.821  1.00  0.00     0.015 C 
HETATM   16  C18 UNL     1      25.790   1.114  53.772  1.00  0.00     0.010 C 
HETATM   17  C19 UNL     1      26.864   1.448  52.843  1.00  0.00     0.020 C 
HETATM   18  C20 UNL     1      26.618   1.581  51.400  1.00  0.00     0.120 C 
HETATM   19  N2  UNL     1      25.399   2.256  51.005  1.00  0.00    -0.389 N 
HETATM   20  H7  UNL     1      21.079   5.936  51.866  1.00  0.00     0.169 HD
HETATM   21  H24 UNL     1      25.447   2.680  50.031  1.00  0.00     0.159 HD
ENDROOT
BRANCH  13  22
HETATM   22  C13 UNL     1      22.451  -0.453  53.435  1.00  0.00     0.045 C 
BRANCH  22  23
HETATM   23  C14 UNL     1      21.253   0.232  53.991  1.00  0.00     0.114 C 
BRANCH  23  24
HETATM   24  C15 UNL     1      20.009  -0.421  53.429  1.00  0.00     0.139 C 
HETATM   25  O3  UNL     1      19.478   0.012  52.368  1.00  0.00    -0.650 OA
BRANCH  24  26
HETATM   26  O4  UNL     1      19.436  -1.503  54.070  1.00  0.00    -0.776 OA
HETATM   27  H13 UNL     1      19.615  -1.582  55.081  1.00  0.00     0.167 HD
ENDBRANCH  24  26
ENDBRANCH  23  24
ENDBRANCH  22  23
ENDBRANCH  13  22
BRANCH   1  28
HETATM   28  O1  UNL     1      24.774   8.872  49.749  1.00  0.00    -0.356 OA
HETATM   29  C1  UNL     1      26.067   9.422  49.523  1.00  0.00     0.210 C 
ENDBRANCH   1  28
TORSDOF 5
ENDMDL
