MODEL 1
REMARK VINA RESULT:      -9.7      0.000      0.000
REMARK  5 active torsions:
REMARK  status: ('A' for Active; 'I' for Inactive)
REMARK    1  A    between atoms: C14_16  and  N3_18 
REMARK    2  A    between atoms: N4_24  and  C19_25 
REMARK    3  A    between atoms: C19_25  and  C20_26 
REMARK    4  A    between atoms: C20_26  and  C21_27 
REMARK    5  A    between atoms: C21_27  and  N5_28 
ROOT
HETATM    1  C1  UNL     1      24.033   3.950  53.156  1.00  0.00     0.142 A 
HETATM    2  C2  UNL     1      23.370   3.524  51.992  1.00  0.00     0.248 A 
HETATM    3  C3  UNL     1      21.931   3.568  51.996  1.00  0.00     0.185 A 
HETATM    4  C4  UNL     1      23.156   3.643  52.294  1.00  0.00     0.248 A 
HETATM    5  N1  UNL     1      22.556   4.635  51.862  1.00  0.00    -0.316 N 
HETATM    6  C5  UNL     1      21.932   5.662  51.415  1.00  0.00     0.208 A 
HETATM    7  N2  UNL     1      20.695   5.115  51.238  1.00  0.00    -0.246 NA
HETATM    8  C6  UNL     1      20.672   3.813  51.599  1.00  0.00     0.070 A 
HETATM    9  C7  UNL     1      19.506   3.172  51.536  1.00  0.00     0.011 C 
HETATM   10  C8  UNL     1      19.604   1.929  52.029  1.00  0.00    -0.005 A 
HETATM   11  C9  UNL     1      19.813   0.770  52.588  1.00  0.00     0.073 A 
HETATM   12  C10 UNL     1      20.133  -0.398  53.247  1.00  0.00    -0.007 A 
HETATM   13  C11 UNL     1      21.265  -0.924  53.662  1.00  0.00     0.029 A 
HETATM   14  C12 UNL     1      22.581  -1.016  53.911  1.00  0.00    -0.019 A 
HETATM   15  C13 UNL     1      23.506  -0.147  53.676  1.00  0.00     0.030 A 
HETATM   16  C14 UNL     1      22.784   0.997  53.056  1.00  0.00     0.123 A 
HETATM   17  C15 UNL     1      21.379   0.524  53.040  1.00  0.00     0.060 A 
HETATM   18  N3  UNL     1      23.086   2.234  52.638  1.00  0.00     0.015 N 
HETATM   19  C16 UNL     1      19.547   0.936  50.842  1.00  0.00     0.161 A 
HETATM   20  O1  UNL     1      20.541   1.160  50.024  1.00  0.00    -0.383 OA
HETATM   21  C17 UNL     1      21.510   1.447  49.213  1.00  0.00     0.270 C 
HETATM   22  C18 UNL     1      22.720   2.199  49.826  1.00  0.00     0.245 C 
HETATM   23  O2  UNL     1      23.705   2.178  49.161  1.00  0.00    -0.271 OA
HETATM   24  N4  UNL     1      23.708   2.968  50.618  1.00  0.00    -0.314 N 
HETATM   25  H11 UNL     1      23.971   1.931  52.329  1.00  0.00     0.292 HD
ENDROOT
BRANCH  24  26
HETATM   26  C19 UNL     1      25.094   3.418  50.363  1.00  0.00     0.130 C 
BRANCH  26  27
HETATM   27  C20 UNL     1      26.189   2.513  50.486  1.00  0.00     0.039 C 
BRANCH  27  28
HETATM   28  C21 UNL     1      26.900   2.485  51.852  1.00  0.00     0.118 C 
BRANCH  28  29
HETATM   29  N5  UNL     1      26.827   1.293  52.600  1.00  0.00    -0.412 N 
HETATM   30  C22 UNL     1      27.678   1.272  53.722  1.00  0.00     0.117 C 
HETATM   31  C23 UNL     1      28.853   0.302  53.565  1.00  0.00     0.019 C 
HETATM   32  C24 UNL     1      28.448  -1.087  53.240  1.00  0.00     0.003 C 
HETATM   33  C25 UNL     1      26.947  -1.052  52.893  1.00  0.00     0.019 C 
HETATM   34  C26 UNL     1      26.762   0.069  51.882  1.00  0.00     0.117 C 
ENDBRANCH  28  29
ENDBRANCH  27  28
ENDBRANCH  26  27
ENDBRANCH  24  26
TORSDOF 5
ENDMDL
MODEL 2
REMARK VINA RESULT:      -8.7      2.968      5.821
REMARK  5 active torsions:
REMARK  status: ('A' for Active; 'I' for Inactive)
REMARK    1  A    between atoms: C14_16  and  N3_18 
REMARK    2  A    between atoms: N4_24  and  C19_25 
REMARK    3  A    between atoms: C19_25  and  C20_26 
REMARK    4  A    between atoms: C20_26  and  C21_27 
REMARK    5  A    between atoms: C21_27  and  N5_28 
ROOT
HETATM    1  C1  UNL     1      23.253   2.816  48.739  1.00  0.00     0.142 A 
HETATM    2  C2  UNL     1      23.170   3.974  49.532  1.00  0.00     0.248 A 
HETATM    3  C3  UNL     1      22.932   5.223  48.856  1.00  0.00     0.185 A 
HETATM    4  C4  UNL     1      23.130   4.010  49.147  1.00  0.00     0.248 A 
HETATM    5  N1  UNL     1      21.978   4.437  49.004  1.00  0.00    -0.316 N 
HETATM    6  C5  UNL     1      20.785   4.883  48.856  1.00  0.00     0.208 A 
HETATM    7  N2  UNL     1      21.065   6.186  48.569  1.00  0.00    -0.246 NA
HETATM    8  C6  UNL     1      22.397   6.417  48.559  1.00  0.00     0.070 A 
HETATM    9  C7  UNL     1      22.812   7.640  48.229  1.00  0.00     0.011 C 
HETATM   10  C8  UNL     1      24.150   7.696  48.148  1.00  0.00    -0.005 A 
HETATM   11  C9  UNL     1      25.446   7.606  48.041  1.00  0.00     0.073 A 
HETATM   12  C10 UNL     1      26.799   7.382  47.902  1.00  0.00    -0.007 A 
HETATM   13  C11 UNL     1      27.584   6.368  48.193  1.00  0.00     0.029 A 
HETATM   14  C12 UNL     1      27.936   5.140  48.607  1.00  0.00    -0.019 A 
HETATM   15  C13 UNL     1      27.174   4.185  49.027  1.00  0.00     0.030 A 
HETATM   16  C14 UNL     1      25.801   4.753  48.952  1.00  0.00     0.123 A 
HETATM   17  C15 UNL     1      26.043   6.121  48.433  1.00  0.00     0.060 A 
HETATM   18  N3  UNL     1      24.550   4.318  49.156  1.00  0.00     0.015 N 
HETATM   19  C16 UNL     1      24.672   8.485  49.374  1.00  0.00     0.161 A 
HETATM   20  O1  UNL     1      24.328   7.877  50.477  1.00  0.00    -0.383 OA
HETATM   21  C17 UNL     1      23.924   7.270  51.548  1.00  0.00     0.270 C 
HETATM   22  C18 UNL     1      23.594   5.762  51.401  1.00  0.00     0.245 C 
HETATM   23  O2  UNL     1      23.529   5.166  52.428  1.00  0.00    -0.271 OA
HETATM   24  N4  UNL     1      23.277   4.373  50.995  1.00  0.00    -0.314 N 
HETATM   25  H11 UNL     1      24.852   3.746  49.898  1.00  0.00     0.292 HD
ENDROOT
BRANCH  24  26
HETATM   26  C19 UNL     1      22.965   3.135  51.743  1.00  0.00     0.130 C 
BRANCH  26  27
HETATM   27  C20 UNL     1      23.935   2.099  51.878  1.00  0.00     0.039 C 
BRANCH  27  28
HETATM   28  C21 UNL     1      24.559   1.928  53.276  1.00  0.00     0.118 C 
BRANCH  28  29
HETATM   29  N5  UNL     1      25.914   1.547  53.342  1.00  0.00    -0.412 N 
HETATM   30  C22 UNL     1      26.450   1.130  52.109  1.00  0.00     0.117 C 
HETATM   31  C23 UNL     1      26.733  -0.375  52.058  1.00  0.00     0.019 C 
HETATM   32  C24 UNL     1      27.607  -0.861  53.153  1.00  0.00     0.003 C 
HETATM   33  C25 UNL     1      27.738   0.288  54.171  1.00  0.00     0.019 C 
HETATM   34  C26 UNL     1      26.326   0.774  54.460  1.00  0.00     0.117 C 
ENDBRANCH  28  29
ENDBRANCH  27  28
ENDBRANCH  26  27
ENDBRANCH  24  26
TORSDOF 5
ENDMDL
MODEL 3
REMARK VINA RESULT:      -8.7      2.437      3.995
REMARK  5 active torsions:
REMARK  status: ('A' for Active; 'I' for Inactive)
REMARK    1  A    between atoms: C14_16  and  N3_18 
REMARK    2  A    between atoms: N4_24  and  C19_25 
REMARK    3  A    between atoms: C19_25  and  C20_26 
REMARK    4  A    between atoms: C20_26  and  C21_27 
REMARK    5  A    between atoms: C21_27  and  N5_28 
ROOT
HETATM    1  C1  UNL     1      23.787   4.505  52.719  1.00  0.00     0.142 A 
HETATM    2  C2  UNL     1      23.127   3.861  51.659  1.00  0.00     0.248 A 
HETATM    3  C3  UNL     1      21.729   3.561  51.834  1.00  0.00     0.185 A 
HETATM    4  C4  UNL     1      22.924   3.944  51.980  1.00  0.00     0.248 A 
HETATM    5  N1  UNL     1      22.058   4.735  51.589  1.00  0.00    -0.316 N 
HETATM    6  C5  UNL     1      21.157   5.553  51.183  1.00  0.00     0.208 A 
HETATM    7  N2  UNL     1      20.080   4.717  51.176  1.00  0.00    -0.246 NA
HETATM    8  C6  UNL     1      20.414   3.473  51.583  1.00  0.00     0.070 A 
HETATM    9  C7  UNL     1      19.439   2.570  51.683  1.00  0.00     0.011 C 
HETATM   10  C8  UNL     1      19.891   1.420  52.205  1.00  0.00    -0.005 A 
HETATM   11  C9  UNL     1      20.436   0.382  52.776  1.00  0.00     0.073 A 
HETATM   12  C10 UNL     1      21.100  -0.632  53.433  1.00  0.00    -0.007 A 
HETATM   13  C11 UNL     1      22.364  -0.845  53.726  1.00  0.00     0.029 A 
HETATM   14  C12 UNL     1      23.682  -0.606  53.818  1.00  0.00    -0.019 A 
HETATM   15  C13 UNL     1      24.336   0.443  53.443  1.00  0.00     0.030 A 
HETATM   16  C14 UNL     1      23.294   1.339  52.875  1.00  0.00     0.123 A 
HETATM   17  C15 UNL     1      22.053   0.545  53.045  1.00  0.00     0.060 A 
HETATM   18  N3  UNL     1      23.238   2.583  52.380  1.00  0.00     0.015 N 
HETATM   19  C16 UNL     1      19.950   0.369  51.069  1.00  0.00     0.161 A 
HETATM   20  O1  UNL     1      20.765   0.770  50.130  1.00  0.00    -0.383 OA
HETATM   21  C17 UNL     1      21.541   1.228  49.199  1.00  0.00     0.270 C 
HETATM   22  C18 UNL     1      22.590   2.284  49.635  1.00  0.00     0.245 C 
HETATM   23  O2  UNL     1      23.473   2.456  48.858  1.00  0.00    -0.271 OA
HETATM   24  N4  UNL     1      23.439   3.315  50.275  1.00  0.00    -0.314 N 
HETATM   25  H11 UNL     1      24.132   2.481  51.978  1.00  0.00     0.292 HD
ENDROOT
BRANCH  24  26
HETATM   26  C19 UNL     1      24.639   4.065  49.840  1.00  0.00     0.130 C 
BRANCH  26  27
HETATM   27  C20 UNL     1      24.514   5.319  49.173  1.00  0.00     0.039 C 
BRANCH  27  28
HETATM   28  C21 UNL     1      25.036   6.551  49.937  1.00  0.00     0.118 C 
BRANCH  28  29
HETATM   29  N5  UNL     1      25.845   7.462  49.229  1.00  0.00    -0.412 N 
HETATM   30  C22 UNL     1      26.424   6.924  48.063  1.00  0.00     0.117 C 
HETATM   31  C23 UNL     1      27.937   6.721  48.185  1.00  0.00     0.019 C 
HETATM   32  C24 UNL     1      28.679   7.946  48.572  1.00  0.00     0.003 C 
HETATM   33  C25 UNL     1      27.634   8.993  48.998  1.00  0.00     0.019 C 
HETATM   34  C26 UNL     1      26.705   8.303  49.985  1.00  0.00     0.117 C 
ENDBRANCH  28  29
ENDBRANCH  27  28
ENDBRANCH  26  27
ENDBRANCH  24  26
TORSDOF 5
ENDMDL
MODEL 4
REMARK VINA RESULT:      -8.7      2.137      6.183
REMARK  5 active torsions:
REMARK  status: ('A' for Active; 'I' for Inactive)
REMARK    1  A    between atoms: C14_16  and  N3_18 
REMARK    2  A    between atoms: N4_24  and  C19_25 
REMARK    3  A    between atoms: C19_25  and  C20_26 
REMARK    4  A    between atoms: C20_26  and  C21_27 
REMARK    5  A    between atoms: C21_27  and  N5_28 
ROOT
HETATM    1  C1  UNL     1      21.307   1.257  49.561  1.00  0.00     0.142 A 
HETATM    2  C2  UNL     1      21.940   2.209  50.379  1.00  0.00     0.248 A 
HETATM    3  C3  UNL     1      23.378   2.171  50.447  1.00  0.00     0.185 A 
HETATM    4  C4  UNL     1      22.161   1.952  50.188  1.00  0.00     0.248 A 
HETATM    5  N1  UNL     1      22.845   2.650  49.430  1.00  0.00    -0.316 N 
HETATM    6  C5  UNL     1      23.556   3.374  48.646  1.00  0.00     0.208 A 
HETATM    7  N2  UNL     1      24.743   3.331  49.314  1.00  0.00    -0.246 NA
HETATM    8  C6  UNL     1      24.655   2.584  50.436  1.00  0.00     0.070 A 
HETATM    9  C7  UNL     1      25.765   2.406  51.153  1.00  0.00     0.011 C 
HETATM   10  C8  UNL     1      25.559   1.554  52.168  1.00  0.00    -0.005 A 
HETATM   11  C9  UNL     1      25.250   0.670  53.075  1.00  0.00     0.073 A 
HETATM   12  C10 UNL     1      24.829  -0.308  53.950  1.00  0.00    -0.007 A 
HETATM   13  C11 UNL     1      23.655  -0.828  54.232  1.00  0.00     0.029 A 
HETATM   14  C12 UNL     1      22.333  -1.050  54.140  1.00  0.00    -0.019 A 
HETATM   15  C13 UNL     1      21.486  -0.527  53.318  1.00  0.00     0.030 A 
HETATM   16  C14 UNL     1      22.306   0.393  52.485  1.00  0.00     0.123 A 
HETATM   17  C15 UNL     1      23.666   0.216  53.046  1.00  0.00     0.060 A 
HETATM   18  N3  UNL     1      22.110   1.185  51.421  1.00  0.00     0.015 N 
HETATM   19  C16 UNL     1      25.541   2.372  53.484  1.00  0.00     0.161 A 
HETATM   20  O1  UNL     1      24.575   3.251  53.450  1.00  0.00    -0.383 OA
HETATM   21  C17 UNL     1      23.639   4.142  53.357  1.00  0.00     0.270 C 
HETATM   22  C18 UNL     1      22.492   3.833  52.360  1.00  0.00     0.245 C 
HETATM   23  O2  UNL     1      21.513   4.490  52.512  1.00  0.00    -0.271 OA
HETATM   24  N4  UNL     1      21.567   3.352  51.308  1.00  0.00    -0.314 N 
HETATM   25  H11 UNL     1      21.205   1.413  51.736  1.00  0.00     0.292 HD
ENDROOT
BRANCH  24  26
HETATM   26  C19 UNL     1      20.224   3.779  50.855  1.00  0.00     0.130 C 
BRANCH  26  27
HETATM   27  C20 UNL     1      19.049   3.314  51.515  1.00  0.00     0.039 C 
BRANCH  27  28
HETATM   28  C21 UNL     1      17.973   2.674  50.618  1.00  0.00     0.118 C 
BRANCH  28  29
HETATM   29  N5  UNL     1      17.725   1.296  50.780  1.00  0.00    -0.412 N 
HETATM   30  C22 UNL     1      16.368   0.943  50.655  1.00  0.00     0.117 C 
HETATM   31  C23 UNL     1      15.734   0.521  51.984  1.00  0.00     0.019 C 
HETATM   32  C24 UNL     1      16.457  -0.575  52.675  1.00  0.00     0.003 C 
HETATM   33  C25 UNL     1      17.800  -0.762  51.945  1.00  0.00     0.019 C 
HETATM   34  C26 UNL     1      18.421   0.620  51.817  1.00  0.00     0.117 C 
ENDBRANCH  28  29
ENDBRANCH  27  28
ENDBRANCH  26  27
ENDBRANCH  24  26
TORSDOF 5
ENDMDL
MODEL 5
REMARK VINA RESULT:      -8.6      2.686      5.655
REMARK  5 active torsions:
REMARK  status: ('A' for Active; 'I' for Inactive)
REMARK    1  A    between atoms: C14_16  and  N3_18 
REMARK    2  A    between atoms: N4_24  and  C19_25 
REMARK    3  A    between atoms: C19_25  and  C20_26 
REMARK    4  A    between atoms: C20_26  and  C21_27 
REMARK    5  A    between atoms: C21_27  and  N5_28 
ROOT
HETATM    1  C1  UNL     1      23.013   2.722  48.528  1.00  0.00     0.142 A 
HETATM    2  C2  UNL     1      23.434   3.334  49.722  1.00  0.00     0.248 A 
HETATM    3  C3  UNL     1      24.666   2.869  50.305  1.00  0.00     0.185 A 
HETATM    4  C4  UNL     1      23.654   3.050  49.572  1.00  0.00     0.248 A 
HETATM    5  N1  UNL     1      24.725   3.609  49.307  1.00  0.00    -0.316 N 
HETATM    6  C5  UNL     1      25.836   4.188  49.034  1.00  0.00     0.208 A 
HETATM    7  N2  UNL     1      26.595   3.714  50.064  1.00  0.00    -0.246 NA
HETATM    8  C6  UNL     1      25.887   2.887  50.863  1.00  0.00     0.070 A 
HETATM    9  C7  UNL     1      26.527   2.302  51.875  1.00  0.00     0.011 C 
HETATM   10  C8  UNL     1      25.737   1.425  52.511  1.00  0.00    -0.005 A 
HETATM   11  C9  UNL     1      24.895   0.561  53.004  1.00  0.00     0.073 A 
HETATM   12  C10 UNL     1      23.946  -0.356  53.404  1.00  0.00    -0.007 A 
HETATM   13  C11 UNL     1      22.680  -0.541  53.101  1.00  0.00     0.029 A 
HETATM   14  C12 UNL     1      21.505  -0.353  52.479  1.00  0.00    -0.019 A 
HETATM   15  C13 UNL     1      21.214   0.496  51.552  1.00  0.00     0.030 A 
HETATM   16  C14 UNL     1      22.484   1.235  51.322  1.00  0.00     0.123 A 
HETATM   17  C15 UNL     1      23.412   0.597  52.286  1.00  0.00     0.060 A 
HETATM   18  N3  UNL     1      22.928   2.180  50.480  1.00  0.00     0.015 N 
HETATM   19  C16 UNL     1      25.347   2.036  53.880  1.00  0.00     0.161 A 
HETATM   20  O1  UNL     1      24.699   3.155  53.701  1.00  0.00    -0.383 OA
HETATM   21  C17 UNL     1      24.104   4.285  53.482  1.00  0.00     0.270 C 
HETATM   22  C18 UNL     1      23.443   4.457  52.090  1.00  0.00     0.245 C 
HETATM   23  O2  UNL     1      22.657   5.346  52.020  1.00  0.00    -0.271 OA
HETATM   24  N4  UNL     1      22.963   4.407  50.690  1.00  0.00    -0.314 N 
HETATM   25  H11 UNL     1      22.047   2.620  50.483  1.00  0.00     0.292 HD
ENDROOT
BRANCH  24  26
HETATM   26  C19 UNL     1      22.060   5.262  49.888  1.00  0.00     0.130 C 
BRANCH  26  27
HETATM   27  C20 UNL     1      22.583   6.276  49.033  1.00  0.00     0.039 C 
BRANCH  27  28
HETATM   28  C21 UNL     1      22.760   7.672  49.661  1.00  0.00     0.118 C 
BRANCH  28  29
HETATM   29  N5  UNL     1      24.061   8.211  49.693  1.00  0.00    -0.412 N 
HETATM   30  C22 UNL     1      24.492   8.737  48.460  1.00  0.00     0.117 C 
HETATM   31  C23 UNL     1      25.590   7.896  47.802  1.00  0.00     0.019 C 
HETATM   32  C24 UNL     1      26.772   7.665  48.667  1.00  0.00     0.003 C 
HETATM   33  C25 UNL     1      26.394   8.133  50.085  1.00  0.00     0.019 C 
HETATM   34  C26 UNL     1      25.054   7.491  50.411  1.00  0.00     0.117 C 
ENDBRANCH  28  29
ENDBRANCH  27  28
ENDBRANCH  26  27
ENDBRANCH  24  26
TORSDOF 5
ENDMDL
MODEL 6
REMARK VINA RESULT:      -8.4      2.192      5.737
REMARK  5 active torsions:
REMARK  status: ('A' for Active; 'I' for Inactive)
REMARK    1  A    between atoms: C14_16  and  N3_18 
REMARK    2  A    between atoms: N4_24  and  C19_25 
REMARK    3  A    between atoms: C19_25  and  C20_26 
REMARK    4  A    between atoms: C20_26  and  C21_27 
REMARK    5  A    between atoms: C21_27  and  N5_28 
ROOT
HETATM    1  C1  UNL     1      21.305   1.299  49.543  1.00  0.00     0.142 A 
HETATM    2  C2  UNL     1      21.949   2.237  50.368  1.00  0.00     0.248 A 
HETATM    3  C3  UNL     1      23.385   2.167  50.453  1.00  0.00     0.185 A 
HETATM    4  C4  UNL     1      22.167   1.974  50.181  1.00  0.00     0.248 A 
HETATM    5  N1  UNL     1      22.875   2.657  49.430  1.00  0.00    -0.316 N 
HETATM    6  C5  UNL     1      23.611   3.364  48.654  1.00  0.00     0.208 A 
HETATM    7  N2  UNL     1      24.790   3.295  49.336  1.00  0.00    -0.246 NA
HETATM    8  C6  UNL     1      24.671   2.551  50.457  1.00  0.00     0.070 A 
HETATM    9  C7  UNL     1      25.768   2.348  51.187  1.00  0.00     0.011 C 
HETATM   10  C8  UNL     1      25.532   1.502  52.200  1.00  0.00    -0.005 A 
HETATM   11  C9  UNL     1      25.193   0.626  53.104  1.00  0.00     0.073 A 
HETATM   12  C10 UNL     1      24.739  -0.343  53.974  1.00  0.00    -0.007 A 
HETATM   13  C11 UNL     1      23.551  -0.836  54.242  1.00  0.00     0.029 A 
HETATM   14  C12 UNL     1      22.226  -1.029  54.135  1.00  0.00    -0.019 A 
HETATM   15  C13 UNL     1      21.400  -0.487  53.303  1.00  0.00     0.030 A 
HETATM   16  C14 UNL     1      22.250   0.414  52.479  1.00  0.00     0.123 A 
HETATM   17  C15 UNL     1      23.599   0.206  53.056  1.00  0.00     0.060 A 
HETATM   18  N3  UNL     1      22.084   1.210  51.413  1.00  0.00     0.015 N 
HETATM   19  C16 UNL     1      25.517   2.321  53.515  1.00  0.00     0.161 A 
HETATM   20  O1  UNL     1      24.572   3.221  53.470  1.00  0.00    -0.383 OA
HETATM   21  C17 UNL     1      23.657   4.133  53.365  1.00  0.00     0.270 C 
HETATM   22  C18 UNL     1      22.515   3.849  52.355  1.00  0.00     0.245 C 
HETATM   23  O2  UNL     1      21.549   4.528  52.496  1.00  0.00    -0.271 OA
HETATM   24  N4  UNL     1      21.591   3.389  51.293  1.00  0.00    -0.314 N 
HETATM   25  H11 UNL     1      21.182   1.458  51.717  1.00  0.00     0.292 HD
ENDROOT
BRANCH  24  26
HETATM   26  C19 UNL     1      20.264   3.845  50.824  1.00  0.00     0.130 C 
BRANCH  26  27
HETATM   27  C20 UNL     1      20.140   4.649  49.653  1.00  0.00     0.039 C 
BRANCH  27  28
HETATM   28  C21 UNL     1      20.703   6.080  49.747  1.00  0.00     0.118 C 
BRANCH  28  29
HETATM   29  N5  UNL     1      22.005   6.302  49.255  1.00  0.00    -0.412 N 
HETATM   30  C22 UNL     1      22.883   6.867  50.200  1.00  0.00     0.117 C 
HETATM   31  C23 UNL     1      23.248   8.320  49.882  1.00  0.00     0.019 C 
HETATM   32  C24 UNL     1      23.808   8.518  48.524  1.00  0.00     0.003 C 
HETATM   33  C25 UNL     1      23.591   7.205  47.749  1.00  0.00     0.019 C 
HETATM   34  C26 UNL     1      22.131   6.825  47.941  1.00  0.00     0.117 C 
ENDBRANCH  28  29
ENDBRANCH  27  28
ENDBRANCH  26  27
ENDBRANCH  24  26
TORSDOF 5
ENDMDL
MODEL 7
REMARK VINA RESULT:      -8.3      2.657      6.152
REMARK  5 active torsions:
REMARK  status: ('A' for Active; 'I' for Inactive)
REMARK    1  A    between atoms: C14_16  and  N3_18 
REMARK    2  A    between atoms: N4_24  and  C19_25 
REMARK    3  A    between atoms: C19_25  and  C20_26 
REMARK    4  A    between atoms: C20_26  and  C21_27 
REMARK    5  A    between atoms: C21_27  and  N5_28 
ROOT
HETATM    1  C1  UNL     1      22.358   2.445  48.797  1.00  0.00     0.142 A 
HETATM    2  C2  UNL     1      22.865   3.136  49.912  1.00  0.00     0.248 A 
HETATM    3  C3  UNL     1      24.225   2.863  50.297  1.00  0.00     0.185 A 
HETATM    4  C4  UNL     1      23.097   2.883  49.729  1.00  0.00     0.248 A 
HETATM    5  N1  UNL     1      24.023   3.583  49.303  1.00  0.00    -0.316 N 
HETATM    6  C5  UNL     1      24.986   4.307  48.862  1.00  0.00     0.208 A 
HETATM    7  N2  UNL     1      25.953   3.968  49.761  1.00  0.00    -0.246 NA
HETATM    8  C6  UNL     1      25.501   3.066  50.660  1.00  0.00     0.070 A 
HETATM    9  C7  UNL     1      26.366   2.599  51.560  1.00  0.00     0.011 C 
HETATM   10  C8  UNL     1      25.817   1.632  52.310  1.00  0.00    -0.005 A 
HETATM   11  C9  UNL     1      25.193   0.668  52.926  1.00  0.00     0.073 A 
HETATM   12  C10 UNL     1      24.458  -0.365  53.468  1.00  0.00    -0.007 A 
HETATM   13  C11 UNL     1      23.200  -0.734  53.364  1.00  0.00     0.029 A 
HETATM   14  C12 UNL     1      21.929  -0.728  52.931  1.00  0.00    -0.019 A 
HETATM   15  C13 UNL     1      21.381   0.052  52.060  1.00  0.00     0.030 A 
HETATM   16  C14 UNL     1      22.482   0.958  51.638  1.00  0.00     0.123 A 
HETATM   17  C15 UNL     1      23.627   0.479  52.447  1.00  0.00     0.060 A 
HETATM   18  N3  UNL     1      22.651   1.938  50.738  1.00  0.00     0.015 N 
HETATM   19  C16 UNL     1      25.558   2.211  53.723  1.00  0.00     0.161 A 
HETATM   20  O1  UNL     1      24.736   3.223  53.648  1.00  0.00    -0.383 OA
HETATM   21  C17 UNL     1      23.959   4.253  53.524  1.00  0.00     0.270 C 
HETATM   22  C18 UNL     1      23.075   4.299  52.251  1.00  0.00     0.245 C 
HETATM   23  O2  UNL     1      22.168   5.066  52.305  1.00  0.00    -0.271 OA
HETATM   24  N4  UNL     1      22.398   4.152  50.942  1.00  0.00    -0.314 N 
HETATM   25  H11 UNL     1      21.727   2.249  50.878  1.00  0.00     0.292 HD
ENDROOT
BRANCH  24  26
HETATM   26  C19 UNL     1      21.270   4.853  50.290  1.00  0.00     0.130 C 
BRANCH  26  27
HETATM   27  C20 UNL     1      21.497   5.996  49.469  1.00  0.00     0.039 C 
BRANCH  27  28
HETATM   28  C21 UNL     1      20.427   6.289  48.400  1.00  0.00     0.118 C 
BRANCH  28  29
HETATM   29  N5  UNL     1      20.761   6.030  47.055  1.00  0.00    -0.412 N 
HETATM   30  C22 UNL     1      19.822   5.226  46.380  1.00  0.00     0.117 C 
HETATM   31  C23 UNL     1      20.348   3.821  46.073  1.00  0.00     0.019 C 
HETATM   32  C24 UNL     1      21.626   3.808  45.320  1.00  0.00     0.003 C 
HETATM   33  C25 UNL     1      22.166   5.250  45.319  1.00  0.00     0.019 C 
HETATM   34  C26 UNL     1      22.118   5.732  46.760  1.00  0.00     0.117 C 
ENDBRANCH  28  29
ENDBRANCH  27  28
ENDBRANCH  26  27
ENDBRANCH  24  26
TORSDOF 5
ENDMDL
MODEL 8
REMARK VINA RESULT:      -8.3      2.570      6.975
REMARK  5 active torsions:
REMARK  status: ('A' for Active; 'I' for Inactive)
REMARK    1  A    between atoms: C14_16  and  N3_18 
REMARK    2  A    between atoms: N4_24  and  C19_25 
REMARK    3  A    between atoms: C19_25  and  C20_26 
REMARK    4  A    between atoms: C20_26  and  C21_27 
REMARK    5  A    between atoms: C21_27  and  N5_28 
ROOT
HETATM    1  C1  UNL     1      20.947   1.148  49.622  1.00  0.00     0.142 A 
HETATM    2  C2  UNL     1      21.605   2.130  50.382  1.00  0.00     0.248 A 
HETATM    3  C3  UNL     1      23.045   2.112  50.382  1.00  0.00     0.185 A 
HETATM    4  C4  UNL     1      21.820   1.870  50.188  1.00  0.00     0.248 A 
HETATM    5  N1  UNL     1      22.458   2.556  49.380  1.00  0.00    -0.316 N 
HETATM    6  C5  UNL     1      23.120   3.266  48.543  1.00  0.00     0.208 A 
HETATM    7  N2  UNL     1      24.339   3.257  49.154  1.00  0.00    -0.246 NA
HETATM    8  C6  UNL     1      24.315   2.539  50.299  1.00  0.00     0.070 A 
HETATM    9  C7  UNL     1      25.460   2.395  50.966  1.00  0.00     0.011 C 
HETATM   10  C8  UNL     1      25.314   1.568  52.012  1.00  0.00    -0.005 A 
HETATM   11  C9  UNL     1      25.061   0.706  52.956  1.00  0.00     0.073 A 
HETATM   12  C10 UNL     1      24.695  -0.253  53.876  1.00  0.00    -0.007 A 
HETATM   13  C11 UNL     1      23.543  -0.779  54.228  1.00  0.00     0.029 A 
HETATM   14  C12 UNL     1      22.222  -1.020  54.206  1.00  0.00    -0.019 A 
HETATM   15  C13 UNL     1      21.329  -0.530  53.412  1.00  0.00     0.030 A 
HETATM   16  C14 UNL     1      22.096   0.377  52.516  1.00  0.00     0.123 A 
HETATM   17  C15 UNL     1      23.484   0.231  53.016  1.00  0.00     0.060 A 
HETATM   18  N3  UNL     1      21.839   1.137  51.442  1.00  0.00     0.015 N 
HETATM   19  C16 UNL     1      25.348   2.422  53.304  1.00  0.00     0.161 A 
HETATM   20  O1  UNL     1      24.371   3.288  53.294  1.00  0.00    -0.383 OA
HETATM   21  C17 UNL     1      23.419   4.164  53.222  1.00  0.00     0.270 C 
HETATM   22  C18 UNL     1      22.230   3.814  52.290  1.00  0.00     0.245 C 
HETATM   23  O2  UNL     1      21.250   4.463  52.472  1.00  0.00    -0.271 OA
HETATM   24  N4  UNL     1      21.262   3.294  51.298  1.00  0.00    -0.314 N 
HETATM   25  H11 UNL     1      20.947   1.362  51.794  1.00  0.00     0.292 HD
ENDROOT
BRANCH  24  26
HETATM   26  C19 UNL     1      19.894   3.692  50.899  1.00  0.00     0.130 C 
BRANCH  26  27
HETATM   27  C20 UNL     1      18.753   3.134  51.547  1.00  0.00     0.039 C 
BRANCH  27  28
HETATM   28  C21 UNL     1      17.554   2.793  50.641  1.00  0.00     0.118 C 
BRANCH  28  29
HETATM   29  N5  UNL     1      16.421   3.628  50.718  1.00  0.00    -0.412 N 
HETATM   30  C22 UNL     1      16.310   4.326  51.935  1.00  0.00     0.117 C 
HETATM   31  C23 UNL     1      15.157   3.823  52.810  1.00  0.00     0.019 C 
HETATM   32  C24 UNL     1      13.839   3.825  52.130  1.00  0.00     0.003 C 
HETATM   33  C25 UNL     1      14.102   4.088  50.636  1.00  0.00     0.019 C 
HETATM   34  C26 UNL     1      15.195   3.120  50.210  1.00  0.00     0.117 C 
ENDBRANCH  28  29
ENDBRANCH  27  28
ENDBRANCH  26  27
ENDBRANCH  24  26
TORSDOF 5
ENDMDL
MODEL 9
REMARK VINA RESULT:      -8.1      7.710      9.767
REMARK  5 active torsions:
REMARK  status: ('A' for Active; 'I' for Inactive)
REMARK    1  A    between atoms: C14_16  and  N3_18 
REMARK    2  A    between atoms: N4_24  and  C19_25 
REMARK    3  A    between atoms: C19_25  and  C20_26 
REMARK    4  A    between atoms: C20_26  and  C21_27 
REMARK    5  A    between atoms: C21_27  and  N5_28 
ROOT
HETATM    1  C1  UNL     1      30.844   8.934  49.282  1.00  0.00     0.142 A 
HETATM    2  C2  UNL     1      29.930   9.294  48.277  1.00  0.00     0.248 A 
HETATM    3  C3  UNL     1      28.639   9.774  48.698  1.00  0.00     0.185 A 
HETATM    4  C4  UNL     1      29.820   9.327  48.649  1.00  0.00     0.248 A 
HETATM    5  N1  UNL     1      29.616  10.538  48.793  1.00  0.00    -0.316 N 
HETATM    6  C5  UNL     1      29.402  11.794  48.942  1.00  0.00     0.208 A 
HETATM    7  N2  UNL     1      28.039  11.794  48.931  1.00  0.00    -0.246 NA
HETATM    8  C6  UNL     1      27.544  10.545  48.785  1.00  0.00     0.070 A 
HETATM    9  C7  UNL     1      26.220  10.393  48.822  1.00  0.00     0.011 C 
HETATM   10  C8  UNL     1      25.876   9.098  48.781  1.00  0.00    -0.005 A 
HETATM   11  C9  UNL     1      25.673   7.810  48.799  1.00  0.00     0.073 A 
HETATM   12  C10 UNL     1      25.580   6.437  48.871  1.00  0.00    -0.007 A 
HETATM   13  C11 UNL     1      26.450   5.461  48.733  1.00  0.00     0.029 A 
HETATM   14  C12 UNL     1      27.640   4.866  48.553  1.00  0.00    -0.019 A 
HETATM   15  C13 UNL     1      28.799   5.416  48.403  1.00  0.00     0.030 A 
HETATM   16  C14 UNL     1      28.521   6.876  48.469  1.00  0.00     0.123 A 
HETATM   17  C15 UNL     1      27.053   6.919  48.675  1.00  0.00     0.060 A 
HETATM   18  N3  UNL     1      29.237   8.009  48.462  1.00  0.00     0.015 N 
HETATM   19  C16 UNL     1      25.283   8.803  47.381  1.00  0.00     0.161 A 
HETATM   20  O1  UNL     1      26.175   9.046  46.458  1.00  0.00    -0.383 OA
HETATM   21  C17 UNL     1      27.071   9.345  45.571  1.00  0.00     0.270 C 
HETATM   22  C18 UNL     1      28.546   9.335  46.052  1.00  0.00     0.245 C 
HETATM   23  O2  UNL     1      29.352   9.305  45.178  1.00  0.00    -0.271 OA
HETATM   24  N4  UNL     1      29.847   9.328  46.760  1.00  0.00    -0.314 N 
HETATM   25  H11 UNL     1      29.883   7.616  47.831  1.00  0.00     0.292 HD
ENDROOT
BRANCH  24  26
HETATM   26  C19 UNL     1      31.255   9.389  46.310  1.00  0.00     0.130 C 
BRANCH  26  27
HETATM   27  C20 UNL     1      31.937   8.213  45.881  1.00  0.00     0.039 C 
BRANCH  27  28
HETATM   28  C21 UNL     1      33.106   7.742  46.767  1.00  0.00     0.118 C 
BRANCH  28  29
HETATM   29  N5  UNL     1      33.105   6.397  47.186  1.00  0.00    -0.412 N 
HETATM   30  C22 UNL     1      34.259   5.683  46.810  1.00  0.00     0.117 C 
HETATM   31  C23 UNL     1      33.988   4.636  45.724  1.00  0.00     0.019 C 
HETATM   32  C24 UNL     1      32.915   3.673  46.071  1.00  0.00     0.003 C 
HETATM   33  C25 UNL     1      32.216   4.209  47.333  1.00  0.00     0.019 C 
HETATM   34  C26 UNL     1      31.891   5.670  47.062  1.00  0.00     0.117 C 
ENDBRANCH  28  29
ENDBRANCH  27  28
ENDBRANCH  26  27
ENDBRANCH  24  26
TORSDOF 5
ENDMDL
