MODEL 1
REMARK VINA RESULT:      -8.9      0.000      0.000
REMARK  4 active torsions:
REMARK  status: ('A' for Active; 'I' for Inactive)
REMARK    1  A    between atoms: N1_1  and  C1_2 
REMARK    2  A    between atoms: C6_7  and  N2_8 
REMARK    3  A    between atoms: N2_8  and  C7_9 
REMARK    4  A    between atoms: C15_19  and  O1_20 
ROOT
HETATM    1  C7  UNL     1      24.277  -0.459  53.947  1.00  0.00     0.136 A 
HETATM    2  N3  UNL     1      24.250  -1.129  55.113  1.00  0.00    -0.224 NA
HETATM    3  C8  UNL     1      23.121  -1.582  55.681  1.00  0.00     0.238 A 
HETATM    4  N4  UNL     1      21.953  -1.350  55.038  1.00  0.00    -0.217 NA
HETATM    5  C9  UNL     1      21.925  -0.677  53.856  1.00  0.00     0.181 A 
HETATM    6  C10 UNL     1      23.093  -0.214  53.280  1.00  0.00     0.045 A 
HETATM    7  C11 UNL     1      23.142   0.518  52.008  1.00  0.00     0.088 A 
HETATM    8  C12 UNL     1      21.781   0.685  51.442  1.00  0.00    -0.023 A 
HETATM    9  C13 UNL     1      21.788   1.338  50.298  1.00  0.00    -0.010 A 
HETATM   10  C14 UNL     1      20.825   1.798  49.301  1.00  0.00     0.092 A 
HETATM   11  C15 UNL     1      19.419   1.486  49.563  1.00  0.00     0.046 A 
HETATM   12  C16 UNL     1      18.761   0.860  50.526  1.00  0.00     0.035 A 
HETATM   13  C17 UNL     1      19.294   0.233  51.731  1.00  0.00     0.040 A 
HETATM   14  C18 UNL     1      20.573   0.184  52.075  1.00  0.00     0.084 A 
HETATM   15  O2  UNL     1      20.674  -0.494  53.283  1.00  0.00    -0.291 OA
ENDROOT
BRANCH   1  16
HETATM   16  N2  UNL     1      25.541  -0.011  53.419  1.00  0.00    -0.361 N 
HETATM   17  H9  UNL     1      25.790  -0.277  52.446  1.00  0.00     0.162 HD
BRANCH  16  18
HETATM   18  C6  UNL     1      26.376   0.784  54.299  1.00  0.00     0.155 A 
HETATM   19  C1  UNL     1      26.823   2.039  53.653  1.00  0.00     0.026 A 
HETATM   20  C2  UNL     1      28.096   2.429  53.518  1.00  0.00     0.004 A 
HETATM   21  C3  UNL     1      29.247   1.623  54.016  1.00  0.00     0.056 A 
HETATM   22  C4  UNL     1      28.762   0.409  54.709  1.00  0.00    -0.024 A 
HETATM   23  C5  UNL     1      27.503   0.004  54.856  1.00  0.00     0.000 A 
BRANCH  19  24
HETATM   24  N1  UNL     1      25.712   2.820  53.171  1.00  0.00    -0.401 N 
HETATM   25  H1  UNL     1      25.342   3.767  53.317  1.00  0.00     0.156 HD
HETATM   26  H2  UNL     1      25.074   2.359  52.488  1.00  0.00     0.156 HD
ENDBRANCH  19  24
ENDBRANCH  16  18
ENDBRANCH   1  16
BRANCH  11  27
HETATM   27  O1  UNL     1      18.593   1.969  48.551  1.00  0.00    -0.365 OA
HETATM   28  H16 UNL     1      18.902   2.808  48.045  1.00  0.00     0.217 HD
ENDBRANCH  11  27
TORSDOF 4
ENDMDL
MODEL 2
REMARK VINA RESULT:      -8.9      4.606      5.809
REMARK  4 active torsions:
REMARK  status: ('A' for Active; 'I' for Inactive)
REMARK    1  A    between atoms: N1_1  and  C1_2 
REMARK    2  A    between atoms: C6_7  and  N2_8 
REMARK    3  A    between atoms: N2_8  and  C7_9 
REMARK    4  A    between atoms: C15_19  and  O1_20 
ROOT
HETATM    1  C7  UNL     1      25.527   1.682  51.518  1.00  0.00     0.136 A 
HETATM    2  N3  UNL     1      24.453   1.152  52.130  1.00  0.00    -0.224 NA
HETATM    3  C8  UNL     1      23.231   1.706  52.096  1.00  0.00     0.238 A 
HETATM    4  N4  UNL     1      23.080   2.860  51.405  1.00  0.00    -0.217 NA
HETATM    5  C9  UNL     1      24.133   3.439  50.768  1.00  0.00     0.181 A 
HETATM    6  C10 UNL     1      25.388   2.859  50.810  1.00  0.00     0.045 A 
HETATM    7  C11 UNL     1      26.570   3.424  50.147  1.00  0.00     0.088 A 
HETATM    8  C12 UNL     1      26.230   4.682  49.439  1.00  0.00    -0.023 A 
HETATM    9  C13 UNL     1      27.269   5.217  48.832  1.00  0.00    -0.010 A 
HETATM   10  C14 UNL     1      27.568   6.388  48.014  1.00  0.00     0.092 A 
HETATM   11  C15 UNL     1      26.449   7.289  47.734  1.00  0.00     0.046 A 
HETATM   12  C16 UNL     1      25.163   7.314  48.050  1.00  0.00     0.035 A 
HETATM   13  C17 UNL     1      24.407   6.357  48.851  1.00  0.00     0.040 A 
HETATM   14  C18 UNL     1      24.898   5.264  49.416  1.00  0.00     0.084 A 
HETATM   15  O2  UNL     1      23.868   4.620  50.089  1.00  0.00    -0.291 OA
ENDROOT
BRANCH   1  16
HETATM   16  N2  UNL     1      26.798   1.012  51.614  1.00  0.00    -0.361 N 
HETATM   17  H9  UNL     1      27.400   0.972  50.767  1.00  0.00     0.162 HD
BRANCH  16  18
HETATM   18  C6  UNL     1      27.142   0.436  52.901  1.00  0.00     0.155 A 
HETATM   19  C1  UNL     1      28.257   1.161  53.551  1.00  0.00     0.026 A 
HETATM   20  C2  UNL     1      29.400   0.605  53.972  1.00  0.00     0.004 A 
HETATM   21  C3  UNL     1      29.692  -0.850  53.833  1.00  0.00     0.056 A 
HETATM   22  C4  UNL     1      28.533  -1.552  53.238  1.00  0.00    -0.024 A 
HETATM   23  C5  UNL     1      27.390  -1.020  52.814  1.00  0.00     0.000 A 
BRANCH  19  24
HETATM   24  N1  UNL     1      27.978   2.568  53.686  1.00  0.00    -0.401 N 
HETATM   25  H1  UNL     1      28.343   3.446  53.298  1.00  0.00     0.156 HD
HETATM   26  H2  UNL     1      27.211   2.834  54.340  1.00  0.00     0.156 HD
ENDBRANCH  19  24
ENDBRANCH  16  18
ENDBRANCH   1  16
BRANCH  11  27
HETATM   27  O1  UNL     1      26.847   8.369  46.948  1.00  0.00    -0.365 OA
HETATM   28  H16 UNL     1      27.234   9.189  47.430  1.00  0.00     0.217 HD
ENDBRANCH  11  27
TORSDOF 4
ENDMDL
MODEL 3
REMARK VINA RESULT:      -8.5      2.204      3.815
REMARK  4 active torsions:
REMARK  status: ('A' for Active; 'I' for Inactive)
REMARK    1  A    between atoms: N1_1  and  C1_2 
REMARK    2  A    between atoms: C6_7  and  N2_8 
REMARK    3  A    between atoms: N2_8  and  C7_9 
REMARK    4  A    between atoms: C15_19  and  O1_20 
ROOT
HETATM    1  C7  UNL     1      25.118   1.752  52.374  1.00  0.00     0.136 A 
HETATM    2  N3  UNL     1      25.530   2.724  51.540  1.00  0.00    -0.224 NA
HETATM    3  C8  UNL     1      24.718   3.351  50.674  1.00  0.00     0.238 A 
HETATM    4  N4  UNL     1      23.417   2.980  50.645  1.00  0.00    -0.217 NA
HETATM    5  C9  UNL     1      22.948   2.002  51.466  1.00  0.00     0.181 A 
HETATM    6  C10 UNL     1      23.793   1.363  52.355  1.00  0.00     0.045 A 
HETATM    7  C11 UNL     1      23.361   0.300  53.272  1.00  0.00     0.088 A 
HETATM    8  C12 UNL     1      21.913   0.019  53.110  1.00  0.00    -0.023 A 
HETATM    9  C13 UNL     1      21.491  -0.931  53.919  1.00  0.00    -0.010 A 
HETATM   10  C14 UNL     1      20.244  -1.626  54.224  1.00  0.00     0.092 A 
HETATM   11  C15 UNL     1      19.065  -1.213  53.459  1.00  0.00     0.046 A 
HETATM   12  C16 UNL     1      18.829  -0.323  52.509  1.00  0.00     0.035 A 
HETATM   13  C17 UNL     1      19.765   0.603  51.879  1.00  0.00     0.040 A 
HETATM   14  C18 UNL     1      21.054   0.711  52.164  1.00  0.00     0.084 A 
HETATM   15  O2  UNL     1      21.599   1.699  51.355  1.00  0.00    -0.291 OA
ENDROOT
BRANCH   1  16
HETATM   16  N2  UNL     1      26.066   1.139  53.267  1.00  0.00    -0.361 N 
HETATM   17  H9  UNL     1      25.799   1.021  54.265  1.00  0.00     0.162 HD
BRANCH  16  18
HETATM   18  C6  UNL     1      27.337   0.730  52.697  1.00  0.00     0.155 A 
HETATM   19  C1  UNL     1      27.546  -0.732  52.804  1.00  0.00     0.026 A 
HETATM   20  C2  UNL     1      28.601  -1.322  53.377  1.00  0.00     0.004 A 
HETATM   21  C3  UNL     1      29.722  -0.556  53.994  1.00  0.00     0.056 A 
HETATM   22  C4  UNL     1      29.511   0.897  53.814  1.00  0.00    -0.024 A 
HETATM   23  C5  UNL     1      28.472   1.504  53.247  1.00  0.00     0.000 A 
BRANCH  19  24
HETATM   24  N1  UNL     1      26.465  -1.475  52.209  1.00  0.00    -0.401 N 
HETATM   25  H1  UNL     1      26.130  -1.683  51.260  1.00  0.00     0.156 HD
HETATM   26  H2  UNL     1      25.808  -1.953  52.862  1.00  0.00     0.156 HD
ENDBRANCH  19  24
ENDBRANCH  16  18
ENDBRANCH   1  16
BRANCH  11  27
HETATM   27  O1  UNL     1      17.936  -1.940  53.832  1.00  0.00    -0.365 OA
HETATM   28  H16 UNL     1      17.828  -2.172  54.826  1.00  0.00     0.217 HD
ENDBRANCH  11  27
TORSDOF 4
ENDMDL
MODEL 4
REMARK VINA RESULT:      -8.5      3.169      4.775
REMARK  4 active torsions:
REMARK  status: ('A' for Active; 'I' for Inactive)
REMARK    1  A    between atoms: N1_1  and  C1_2 
REMARK    2  A    between atoms: C6_7  and  N2_8 
REMARK    3  A    between atoms: N2_8  and  C7_9 
REMARK    4  A    between atoms: C15_19  and  O1_20 
ROOT
HETATM    1  C7  UNL     1      25.600   1.879  51.413  1.00  0.00     0.136 A 
HETATM    2  N3  UNL     1      26.886   1.690  51.759  1.00  0.00    -0.224 NA
HETATM    3  C8  UNL     1      27.279   0.816  52.700  1.00  0.00     0.238 A 
HETATM    4  N4  UNL     1      26.324   0.091  53.327  1.00  0.00    -0.217 NA
HETATM    5  C9  UNL     1      25.009   0.244  53.015  1.00  0.00     0.181 A 
HETATM    6  C10 UNL     1      24.615   1.147  52.044  1.00  0.00     0.045 A 
HETATM    7  C11 UNL     1      23.216   1.366  51.653  1.00  0.00     0.088 A 
HETATM    8  C12 UNL     1      22.305   0.495  52.435  1.00  0.00    -0.023 A 
HETATM    9  C13 UNL     1      21.041   0.666  52.109  1.00  0.00    -0.010 A 
HETATM   10  C14 UNL     1      19.736   0.137  52.495  1.00  0.00     0.092 A 
HETATM   11  C15 UNL     1      19.733  -0.887  53.541  1.00  0.00     0.046 A 
HETATM   12  C16 UNL     1      20.662  -1.489  54.267  1.00  0.00     0.035 A 
HETATM   13  C17 UNL     1      22.108  -1.291  54.237  1.00  0.00     0.040 A 
HETATM   14  C18 UNL     1      22.755  -0.444  53.449  1.00  0.00     0.084 A 
HETATM   15  O2  UNL     1      24.113  -0.549  53.718  1.00  0.00    -0.291 OA
ENDROOT
BRANCH   1  16
HETATM   16  N2  UNL     1      25.278   2.842  50.390  1.00  0.00    -0.361 N 
HETATM   17  H9  UNL     1      24.586   2.575  49.663  1.00  0.00     0.162 HD
BRANCH  16  18
HETATM   18  C6  UNL     1      25.956   4.124  50.458  1.00  0.00     0.155 A 
HETATM   19  C1  UNL     1      25.000   5.253  50.509  1.00  0.00     0.026 A 
HETATM   20  C2  UNL     1      24.979   6.288  49.661  1.00  0.00     0.004 A 
HETATM   21  C3  UNL     1      25.943   6.430  48.533  1.00  0.00     0.056 A 
HETATM   22  C4  UNL     1      26.921   5.319  48.550  1.00  0.00    -0.024 A 
HETATM   23  C5  UNL     1      26.960   4.283  49.383  1.00  0.00     0.000 A 
BRANCH  19  24
HETATM   24  N1  UNL     1      24.067   5.118  51.599  1.00  0.00    -0.401 N 
HETATM   25  H1  UNL     1      24.084   5.231  52.620  1.00  0.00     0.156 HD
HETATM   26  H2  UNL     1      23.095   4.831  51.353  1.00  0.00     0.156 HD
ENDBRANCH  19  24
ENDBRANCH  16  18
ENDBRANCH   1  16
BRANCH  11  27
HETATM   27  O1  UNL     1      18.440  -1.319  53.828  1.00  0.00    -0.365 OA
HETATM   28  H16 UNL     1      17.967  -1.902  53.127  1.00  0.00     0.217 HD
ENDBRANCH  11  27
TORSDOF 4
ENDMDL
MODEL 5
REMARK VINA RESULT:      -8.5      2.874      7.008
REMARK  4 active torsions:
REMARK  status: ('A' for Active; 'I' for Inactive)
REMARK    1  A    between atoms: N1_1  and  C1_2 
REMARK    2  A    between atoms: C6_7  and  N2_8 
REMARK    3  A    between atoms: N2_8  and  C7_9 
REMARK    4  A    between atoms: C15_19  and  O1_20 
ROOT
HETATM    1  C7  UNL     1      21.442  -0.047  52.925  1.00  0.00     0.136 A 
HETATM    2  N3  UNL     1      20.667  -0.901  53.618  1.00  0.00    -0.224 NA
HETATM    3  C8  UNL     1      21.125  -1.677  54.613  1.00  0.00     0.238 A 
HETATM    4  N4  UNL     1      22.438  -1.589  54.930  1.00  0.00    -0.217 NA
HETATM    5  C9  UNL     1      23.266  -0.742  54.261  1.00  0.00     0.181 A 
HETATM    6  C10 UNL     1      22.783   0.053  53.237  1.00  0.00     0.045 A 
HETATM    7  C11 UNL     1      23.614   0.991  52.471  1.00  0.00     0.088 A 
HETATM    8  C12 UNL     1      25.019   0.962  52.946  1.00  0.00    -0.023 A 
HETATM    9  C13 UNL     1      25.794   1.792  52.279  1.00  0.00    -0.010 A 
HETATM   10  C14 UNL     1      27.195   2.204  52.269  1.00  0.00     0.092 A 
HETATM   11  C15 UNL     1      28.069   1.560  53.251  1.00  0.00     0.046 A 
HETATM   12  C16 UNL     1      27.905   0.650  54.198  1.00  0.00     0.035 A 
HETATM   13  C17 UNL     1      26.684  -0.051  54.582  1.00  0.00     0.040 A 
HETATM   14  C18 UNL     1      25.492   0.112  54.026  1.00  0.00     0.084 A 
HETATM   15  O2  UNL     1      24.593  -0.730  54.666  1.00  0.00    -0.291 OA
ENDROOT
BRANCH   1  16
HETATM   16  N2  UNL     1      20.857   0.743  51.873  1.00  0.00    -0.361 N 
HETATM   17  H9  UNL     1      21.173   0.578  50.897  1.00  0.00     0.162 HD
BRANCH  16  18
HETATM   18  C6  UNL     1      19.859   1.722  52.265  1.00  0.00     0.155 A 
HETATM   19  C1  UNL     1      18.563   1.492  51.587  1.00  0.00     0.026 A 
HETATM   20  C2  UNL     1      17.903   2.395  50.853  1.00  0.00     0.004 A 
HETATM   21  C3  UNL     1      18.409   3.779  50.624  1.00  0.00     0.056 A 
HETATM   22  C4  UNL     1      19.672   3.993  51.364  1.00  0.00    -0.024 A 
HETATM   23  C5  UNL     1      20.343   3.111  52.100  1.00  0.00     0.000 A 
BRANCH  19  24
HETATM   24  N1  UNL     1      18.071   0.156  51.807  1.00  0.00    -0.401 N 
HETATM   25  H1  UNL     1      17.911  -0.462  52.612  1.00  0.00     0.156 HD
HETATM   26  H2  UNL     1      17.784  -0.385  50.963  1.00  0.00     0.156 HD
ENDBRANCH  19  24
ENDBRANCH  16  18
ENDBRANCH   1  16
BRANCH  11  27
HETATM   27  O1  UNL     1      29.378   2.026  53.151  1.00  0.00    -0.365 OA
HETATM   28  H16 UNL     1      29.914   2.126  54.021  1.00  0.00     0.217 HD
ENDBRANCH  11  27
TORSDOF 4
ENDMDL
MODEL 6
REMARK VINA RESULT:      -8.4      3.017      7.627
REMARK  4 active torsions:
REMARK  status: ('A' for Active; 'I' for Inactive)
REMARK    1  A    between atoms: N1_1  and  C1_2 
REMARK    2  A    between atoms: C6_7  and  N2_8 
REMARK    3  A    between atoms: N2_8  and  C7_9 
REMARK    4  A    between atoms: C15_19  and  O1_20 
ROOT
HETATM    1  C7  UNL     1      22.179   1.872  52.248  1.00  0.00     0.136 A 
HETATM    2  N3  UNL     1      21.647   3.107  52.210  1.00  0.00    -0.224 NA
HETATM    3  C8  UNL     1      22.360   4.228  52.408  1.00  0.00     0.238 A 
HETATM    4  N4  UNL     1      23.684   4.098  52.656  1.00  0.00    -0.217 NA
HETATM    5  C9  UNL     1      24.272   2.873  52.705  1.00  0.00     0.181 A 
HETATM    6  C10 UNL     1      23.529   1.725  52.500  1.00  0.00     0.045 A 
HETATM    7  C11 UNL     1      24.093   0.370  52.537  1.00  0.00     0.088 A 
HETATM    8  C12 UNL     1      25.548   0.410  52.820  1.00  0.00    -0.023 A 
HETATM    9  C13 UNL     1      26.087  -0.791  52.860  1.00  0.00    -0.010 A 
HETATM   10  C14 UNL     1      27.401  -1.387  53.083  1.00  0.00     0.092 A 
HETATM   11  C15 UNL     1      28.502  -0.458  53.344  1.00  0.00     0.046 A 
HETATM   12  C16 UNL     1      28.616   0.858  53.436  1.00  0.00     0.035 A 
HETATM   13  C17 UNL     1      27.577   1.872  53.289  1.00  0.00     0.040 A 
HETATM   14  C18 UNL     1      26.299   1.637  53.031  1.00  0.00     0.084 A 
HETATM   15  O2  UNL     1      25.635   2.854  52.967  1.00  0.00    -0.291 OA
ENDROOT
BRANCH   1  16
HETATM   16  N2  UNL     1      21.331   0.730  52.023  1.00  0.00    -0.361 N 
HETATM   17  H9  UNL     1      21.727  -0.087  51.519  1.00  0.00     0.162 HD
BRANCH  16  18
HETATM   18  C6  UNL     1      19.971   0.814  52.524  1.00  0.00     0.155 A 
HETATM   19  C1  UNL     1      19.665  -0.276  53.478  1.00  0.00     0.026 A 
HETATM   20  C2  UNL     1      18.648  -1.139  53.366  1.00  0.00     0.004 A 
HETATM   21  C3  UNL     1      17.676  -1.103  52.237  1.00  0.00     0.056 A 
HETATM   22  C4  UNL     1      17.974   0.034  51.338  1.00  0.00    -0.024 A 
HETATM   23  C5  UNL     1      18.977   0.903  51.432  1.00  0.00     0.000 A 
BRANCH  19  24
HETATM   24  N1  UNL     1      20.603  -0.313  54.571  1.00  0.00    -0.401 N 
HETATM   25  H1  UNL     1      21.309  -0.967  54.932  1.00  0.00     0.156 HD
HETATM   26  H2  UNL     1      20.620   0.514  55.205  1.00  0.00     0.156 HD
ENDBRANCH  19  24
ENDBRANCH  16  18
ENDBRANCH   1  16
BRANCH  11  27
HETATM   27  O1  UNL     1      29.704  -1.134  53.541  1.00  0.00    -0.365 OA
HETATM   28  H16 UNL     1      30.562  -0.572  53.590  1.00  0.00     0.217 HD
ENDBRANCH  11  27
TORSDOF 4
ENDMDL
MODEL 7
REMARK VINA RESULT:      -8.3      3.943      5.971
REMARK  4 active torsions:
REMARK  status: ('A' for Active; 'I' for Inactive)
REMARK    1  A    between atoms: N1_1  and  C1_2 
REMARK    2  A    between atoms: C6_7  and  N2_8 
REMARK    3  A    between atoms: N2_8  and  C7_9 
REMARK    4  A    between atoms: C15_19  and  O1_20 
ROOT
HETATM    1  C7  UNL     1      23.433   4.796  50.988  1.00  0.00     0.136 A 
HETATM    2  N3  UNL     1      22.639   5.774  50.515  1.00  0.00    -0.224 NA
HETATM    3  C8  UNL     1      21.304   5.777  50.654  1.00  0.00     0.238 A 
HETATM    4  N4  UNL     1      20.735   4.737  51.306  1.00  0.00    -0.217 NA
HETATM    5  C9  UNL     1      21.491   3.722  51.804  1.00  0.00     0.181 A 
HETATM    6  C10 UNL     1      22.866   3.729  51.656  1.00  0.00     0.045 A 
HETATM    7  C11 UNL     1      23.747   2.671  52.166  1.00  0.00     0.088 A 
HETATM    8  C12 UNL     1      22.963   1.614  52.850  1.00  0.00    -0.023 A 
HETATM    9  C13 UNL     1      23.724   0.648  53.321  1.00  0.00    -0.010 A 
HETATM   10  C14 UNL     1      23.563  -0.606  54.052  1.00  0.00     0.092 A 
HETATM   11  C15 UNL     1      22.194  -0.980  54.409  1.00  0.00     0.046 A 
HETATM   12  C16 UNL     1      20.998  -0.442  54.229  1.00  0.00     0.035 A 
HETATM   13  C17 UNL     1      20.656   0.806  53.554  1.00  0.00     0.040 A 
HETATM   14  C18 UNL     1      21.517   1.639  52.988  1.00  0.00     0.084 A 
HETATM   15  O2  UNL     1      20.806   2.706  52.455  1.00  0.00    -0.291 OA
ENDROOT
BRANCH   1  16
HETATM   16  N2  UNL     1      24.857   4.883  50.788  1.00  0.00    -0.361 N 
HETATM   17  H9  UNL     1      25.471   4.916  51.626  1.00  0.00     0.162 HD
BRANCH  16  18
HETATM   18  C6  UNL     1      25.327   4.920  49.415  1.00  0.00     0.155 A 
HETATM   19  C1  UNL     1      26.616   4.211  49.252  1.00  0.00     0.026 A 
HETATM   20  C2  UNL     1      27.730   4.741  48.734  1.00  0.00     0.004 A 
HETATM   21  C3  UNL     1      27.807   6.147  48.245  1.00  0.00     0.056 A 
HETATM   22  C4  UNL     1      26.487   6.806  48.365  1.00  0.00    -0.024 A 
HETATM   23  C5  UNL     1      25.368   6.298  48.876  1.00  0.00     0.000 A 
BRANCH  19  24
HETATM   24  N1  UNL     1      26.544   2.852  49.724  1.00  0.00    -0.401 N 
HETATM   25  H1  UNL     1      25.940   2.035  49.570  1.00  0.00     0.156 HD
HETATM   26  H2  UNL     1      27.272   2.552  50.407  1.00  0.00     0.156 HD
ENDBRANCH  19  24
ENDBRANCH  16  18
ENDBRANCH   1  16
BRANCH  11  27
HETATM   27  O1  UNL     1      22.159  -2.189  55.101  1.00  0.00    -0.365 OA
HETATM   28  H16 UNL     1      21.241  -2.541  55.396  1.00  0.00     0.217 HD
ENDBRANCH  11  27
TORSDOF 4
ENDMDL
MODEL 8
REMARK VINA RESULT:      -8.0      4.068      6.998
REMARK  4 active torsions:
REMARK  status: ('A' for Active; 'I' for Inactive)
REMARK    1  A    between atoms: N1_1  and  C1_2 
REMARK    2  A    between atoms: C6_7  and  N2_8 
REMARK    3  A    between atoms: N2_8  and  C7_9 
REMARK    4  A    between atoms: C15_19  and  O1_20 
ROOT
HETATM    1  C7  UNL     1      23.456   3.228  52.196  1.00  0.00     0.136 A 
HETATM    2  N3  UNL     1      22.166   2.917  51.978  1.00  0.00    -0.224 NA
HETATM    3  C8  UNL     1      21.697   1.659  51.978  1.00  0.00     0.238 A 
HETATM    4  N4  UNL     1      22.577   0.657  52.211  1.00  0.00    -0.217 NA
HETATM    5  C9  UNL     1      23.892   0.917  52.436  1.00  0.00     0.181 A 
HETATM    6  C10 UNL     1      24.365   2.217  52.435  1.00  0.00     0.045 A 
HETATM    7  C11 UNL     1      25.769   2.575  52.671  1.00  0.00     0.088 A 
HETATM    8  C12 UNL     1      26.591   1.363  52.907  1.00  0.00    -0.023 A 
HETATM    9  C13 UNL     1      27.859   1.649  53.123  1.00  0.00    -0.010 A 
HETATM   10  C14 UNL     1      29.103   0.937  53.403  1.00  0.00     0.092 A 
HETATM   11  C15 UNL     1      29.012  -0.522  53.487  1.00  0.00     0.046 A 
HETATM   12  C16 UNL     1      28.038  -1.409  53.368  1.00  0.00     0.035 A 
HETATM   13  C17 UNL     1      26.625  -1.174  53.089  1.00  0.00     0.040 A 
HETATM   14  C18 UNL     1      26.061   0.010  52.902  1.00  0.00     0.084 A 
HETATM   15  O2  UNL     1      24.707  -0.183  52.664  1.00  0.00    -0.291 OA
ENDROOT
BRANCH   1  16
HETATM   16  N2  UNL     1      23.862   4.610  52.176  1.00  0.00    -0.361 N 
HETATM   17  H9  UNL     1      24.253   5.022  53.046  1.00  0.00     0.162 HD
BRANCH  16  18
HETATM   18  C6  UNL     1      23.690   5.327  50.926  1.00  0.00     0.155 A 
HETATM   19  C1  UNL     1      24.961   5.915  50.445  1.00  0.00     0.026 A 
HETATM   20  C2  UNL     1      25.156   7.207  50.156  1.00  0.00     0.004 A 
HETATM   21  C3  UNL     1      24.085   8.236  50.287  1.00  0.00     0.056 A 
HETATM   22  C4  UNL     1      22.815   7.606  50.709  1.00  0.00    -0.024 A 
HETATM   23  C5  UNL     1      22.600   6.325  50.999  1.00  0.00     0.000 A 
BRANCH  19  24
HETATM   24  N1  UNL     1      25.997   4.922  50.318  1.00  0.00    -0.401 N 
HETATM   25  H1  UNL     1      26.103   4.000  49.876  1.00  0.00     0.156 HD
HETATM   26  H2  UNL     1      26.910   5.133  50.775  1.00  0.00     0.156 HD
ENDBRANCH  19  24
ENDBRANCH  16  18
ENDBRANCH   1  16
BRANCH  11  27
HETATM   27  O1  UNL     1      30.254  -1.094  53.757  1.00  0.00    -0.365 OA
HETATM   28  H16 UNL     1      30.675  -1.680  53.027  1.00  0.00     0.217 HD
ENDBRANCH  11  27
TORSDOF 4
ENDMDL
MODEL 9
REMARK VINA RESULT:      -8.0      4.024      6.455
REMARK  4 active torsions:
REMARK  status: ('A' for Active; 'I' for Inactive)
REMARK    1  A    between atoms: N1_1  and  C1_2 
REMARK    2  A    between atoms: C6_7  and  N2_8 
REMARK    3  A    between atoms: N2_8  and  C7_9 
REMARK    4  A    between atoms: C15_19  and  O1_20 
ROOT
HETATM    1  C7  UNL     1      24.395   0.915  52.572  1.00  0.00     0.136 A 
HETATM    2  N3  UNL     1      25.158  -0.101  53.014  1.00  0.00    -0.224 NA
HETATM    3  C8  UNL     1      26.454  -0.248  52.694  1.00  0.00     0.238 A 
HETATM    4  N4  UNL     1      27.014   0.680  51.884  1.00  0.00    -0.217 NA
HETATM    5  C9  UNL     1      26.287   1.727  51.409  1.00  0.00     0.181 A 
HETATM    6  C10 UNL     1      24.953   1.869  51.745  1.00  0.00     0.045 A 
HETATM    7  C11 UNL     1      24.106   2.971  51.272  1.00  0.00     0.088 A 
HETATM    8  C12 UNL     1      24.874   3.892  50.399  1.00  0.00    -0.023 A 
HETATM    9  C13 UNL     1      24.143   4.895  49.957  1.00  0.00    -0.010 A 
HETATM   10  C14 UNL     1      24.307   6.070  49.106  1.00  0.00     0.092 A 
HETATM   11  C15 UNL     1      25.639   6.278  48.535  1.00  0.00     0.046 A 
HETATM   12  C16 UNL     1      26.796   5.637  48.595  1.00  0.00     0.035 A 
HETATM   13  C17 UNL     1      27.118   4.412  49.320  1.00  0.00     0.040 A 
HETATM   14  C18 UNL     1      26.277   3.712  50.067  1.00  0.00     0.084 A 
HETATM   15  O2  UNL     1      26.959   2.620  50.586  1.00  0.00    -0.291 OA
ENDROOT
BRANCH   1  16
HETATM   16  N2  UNL     1      23.013   0.986  52.971  1.00  0.00    -0.361 N 
HETATM   17  H9  UNL     1      22.693   1.825  53.493  1.00  0.00     0.162 HD
BRANCH  16  18
HETATM   18  C6  UNL     1      22.166  -0.136  52.608  1.00  0.00     0.155 A 
HETATM   19  C1  UNL     1      20.982   0.294  51.831  1.00  0.00     0.026 A 
HETATM   20  C2  UNL     1      19.709   0.032  52.151  1.00  0.00     0.004 A 
HETATM   21  C3  UNL     1      19.323  -0.745  53.364  1.00  0.00     0.056 A 
HETATM   22  C4  UNL     1      20.530  -1.211  54.082  1.00  0.00    -0.024 A 
HETATM   23  C5  UNL     1      21.802  -0.964  53.780  1.00  0.00     0.000 A 
BRANCH  19  24
HETATM   24  N1  UNL     1      21.352   1.045  50.659  1.00  0.00    -0.401 N 
HETATM   25  H1  UNL     1      22.169   1.578  50.336  1.00  0.00     0.156 HD
HETATM   26  H2  UNL     1      20.645   1.106  49.895  1.00  0.00     0.156 HD
ENDBRANCH  19  24
ENDBRANCH  16  18
ENDBRANCH   1  16
BRANCH  11  27
HETATM   27  O1  UNL     1      25.681   7.424  47.744  1.00  0.00    -0.365 OA
HETATM   28  H16 UNL     1      25.304   7.357  46.791  1.00  0.00     0.217 HD
ENDBRANCH  11  27
TORSDOF 4
ENDMDL
