MODEL 1
REMARK VINA RESULT:      -8.7      0.000      0.000
REMARK  4 active torsions:
REMARK  status: ('A' for Active; 'I' for Inactive)
REMARK    1  A    between atoms: C2_2  and  C3_3 
REMARK    2  A    between atoms: C3_3  and  C4_4 
REMARK    3  A    between atoms: C21_27  and  C22_28 
REMARK    4  A    between atoms: C22_28  and  N4_29 
ROOT
HETATM    1  C4  UNL     1      25.569   1.355  52.128  1.00  0.00     0.098 A 
HETATM    2  O1  UNL     1      25.494   2.604  51.544  1.00  0.00    -0.239 OA
HETATM    3  N1  UNL     1      24.412   3.283  52.000  1.00  0.00    -0.261 N 
HETATM    4  C5  UNL     1      23.749   2.453  52.917  1.00  0.00     0.132 A 
HETATM    5  C6  UNL     1      24.383   1.323  53.019  1.00  0.00     0.031 A 
HETATM    6  C7  UNL     1      23.961   0.172  53.849  1.00  0.00     0.063 A 
HETATM    7  C8  UNL     1      22.885  -0.512  53.569  1.00  0.00     0.061 A 
HETATM    8  C9  UNL     1      22.810  -1.564  54.604  1.00  0.00     0.260 A 
HETATM    9  O2  UNL     1      21.922  -2.471  54.730  1.00  0.00    -0.267 OA
HETATM   10  N2  UNL     1      23.920  -1.414  55.476  1.00  0.00    -0.289 N 
HETATM   11  C10 UNL     1      24.700  -0.298  55.024  1.00  0.00     0.260 A 
HETATM   12  O3  UNL     1      25.755   0.200  55.478  1.00  0.00    -0.267 OA
HETATM   13  C11 UNL     1      22.031  -0.172  52.444  1.00  0.00     0.009 A 
HETATM   14  C12 UNL     1      22.382   0.194  51.191  1.00  0.00     0.104 A 
HETATM   15  N3  UNL     1      21.325   0.442  50.434  1.00  0.00    -0.355 N 
HETATM   16  C13 UNL     1      20.238   0.217  51.252  1.00  0.00     0.045 A 
HETATM   17  C14 UNL     1      18.861   0.313  51.024  1.00  0.00     0.030 A 
HETATM   18  C15 UNL     1      17.897   0.049  51.977  1.00  0.00     0.002 A 
HETATM   19  C16 UNL     1      18.316  -0.328  53.217  1.00  0.00     0.001 A 
HETATM   20  C17 UNL     1      19.692  -0.420  53.435  1.00  0.00     0.014 A 
HETATM   21  C18 UNL     1      20.656  -0.158  52.485  1.00  0.00     0.003 A 
HETATM   22  C19 UNL     1      21.247   0.891  49.079  1.00  0.00     0.131 C 
HETATM   23  C20 UNL     1      22.233   1.971  48.699  1.00  0.00     0.054 C 
HETATM   24  C21 UNL     1      22.102   3.144  49.734  1.00  0.00     0.151 C 
HETATM   25  O4  UNL     1      22.948   4.087  49.414  1.00  0.00    -0.382 OA
HETATM   26  C25 UNL     1      24.119   4.460  49.856  1.00  0.00     0.190 C 
HETATM   27  C26 UNL     1      24.407   4.576  51.338  1.00  0.00     0.182 C 
HETATM   28  H6  UNL     1      24.156  -2.001  56.316  1.00  0.00     0.172 HD
ENDROOT
BRANCH  24  29
HETATM   29  C22 UNL     1      20.640   3.588  49.717  1.00  0.00     0.303 C 
BRANCH  29  30
HETATM   30  N4  UNL     1      20.245   4.225  50.937  1.00  0.00     0.082 N 
HETATM   31  C23 UNL     1      20.830   3.612  52.090  1.00  0.00     0.309 C 
HETATM   32  C24 UNL     1      18.804   4.160  51.051  1.00  0.00     0.309 C 
ENDBRANCH  29  30
ENDBRANCH  24  29
BRANCH   1  33
HETATM   33  C3  UNL     1      26.304   0.313  52.117  1.00  0.00     0.082 C 
BRANCH  33  34
HETATM   34  C2  UNL     1      27.191  -0.742  52.263  1.00  0.00    -0.024 C 
HETATM   35  C1  UNL     1      26.647  -1.962  52.388  1.00  0.00     0.008 C 
ENDBRANCH  33  34
ENDBRANCH   1  33
TORSDOF 4
ENDMDL
MODEL 2
REMARK VINA RESULT:      -8.2      1.903      2.864
REMARK  4 active torsions:
REMARK  status: ('A' for Active; 'I' for Inactive)
REMARK    1  A    between atoms: C2_2  and  C3_3 
REMARK    2  A    between atoms: C3_3  and  C4_4 
REMARK    3  A    between atoms: C21_27  and  C22_28 
REMARK    4  A    between atoms: C22_28  and  N4_29 
ROOT
HETATM    1  C4  UNL     1      24.344   4.033  51.024  1.00  0.00     0.098 A 
HETATM    2  O1  UNL     1      23.467   5.082  50.831  1.00  0.00    -0.239 OA
HETATM    3  N1  UNL     1      22.490   5.071  51.773  1.00  0.00    -0.261 N 
HETATM    4  C5  UNL     1      22.732   3.976  52.617  1.00  0.00     0.132 A 
HETATM    5  C6  UNL     1      23.794   3.343  52.217  1.00  0.00     0.031 A 
HETATM    6  C7  UNL     1      24.337   2.105  52.821  1.00  0.00     0.063 A 
HETATM    7  C8  UNL     1      23.693   0.973  52.748  1.00  0.00     0.061 A 
HETATM    8  C9  UNL     1      24.547  -0.009  53.450  1.00  0.00     0.260 A 
HETATM    9  O2  UNL     1      24.321  -1.251  53.628  1.00  0.00    -0.267 OA
HETATM   10  N2  UNL     1      25.708   0.662  53.916  1.00  0.00    -0.289 N 
HETATM   11  C10 UNL     1      25.618   2.041  53.530  1.00  0.00     0.260 A 
HETATM   12  O3  UNL     1      26.403   2.997  53.721  1.00  0.00    -0.267 OA
HETATM   13  C11 UNL     1      22.402   0.864  52.090  1.00  0.00     0.009 A 
HETATM   14  C12 UNL     1      21.992   1.417  50.926  1.00  0.00     0.104 A 
HETATM   15  N3  UNL     1      20.737   1.107  50.647  1.00  0.00    -0.355 N 
HETATM   16  C13 UNL     1      20.324   0.309  51.693  1.00  0.00     0.045 A 
HETATM   17  C14 UNL     1      19.105  -0.322  51.962  1.00  0.00     0.030 A 
HETATM   18  C15 UNL     1      18.861  -1.096  53.080  1.00  0.00     0.002 A 
HETATM   19  C16 UNL     1      19.876  -1.253  53.976  1.00  0.00     0.001 A 
HETATM   20  C17 UNL     1      21.089  -0.619  53.699  1.00  0.00     0.014 A 
HETATM   21  C18 UNL     1      21.333   0.153  52.583  1.00  0.00     0.003 A 
HETATM   22  C19 UNL     1      19.910   1.510  49.553  1.00  0.00     0.131 C 
HETATM   23  C20 UNL     1      20.028   2.963  49.154  1.00  0.00     0.054 C 
HETATM   24  C21 UNL     1      19.808   3.844  50.435  1.00  0.00     0.151 C 
HETATM   25  O4  UNL     1      19.905   5.104  50.103  1.00  0.00    -0.382 OA
HETATM   26  C25 UNL     1      20.833   6.016  50.214  1.00  0.00     0.190 C 
HETATM   27  C26 UNL     1      21.615   6.198  51.498  1.00  0.00     0.182 C 
HETATM   28  H6  UNL     1      26.510   0.249  54.456  1.00  0.00     0.172 HD
ENDROOT
BRANCH  24  29
HETATM   29  C22 UNL     1      18.447   3.454  51.012  1.00  0.00     0.303 C 
BRANCH  29  30
HETATM   30  N4  UNL     1      17.417   4.384  50.663  1.00  0.00     0.082 N 
HETATM   31  C23 UNL     1      16.416   4.501  51.680  1.00  0.00     0.309 C 
HETATM   32  C24 UNL     1      16.789   3.946  49.435  1.00  0.00     0.309 C 
ENDBRANCH  29  30
ENDBRANCH  24  29
BRANCH   1  33
HETATM   33  C3  UNL     1      25.398   3.535  50.510  1.00  0.00     0.082 C 
BRANCH  33  34
HETATM   34  C2  UNL     1      26.585   3.175  49.889  1.00  0.00    -0.024 C 
HETATM   35  C1  UNL     1      27.142   4.100  49.094  1.00  0.00     0.008 C 
ENDBRANCH  33  34
ENDBRANCH   1  33
TORSDOF 4
ENDMDL
MODEL 3
REMARK VINA RESULT:      -7.9      2.335      6.039
REMARK  4 active torsions:
REMARK  status: ('A' for Active; 'I' for Inactive)
REMARK    1  A    between atoms: C2_2  and  C3_3 
REMARK    2  A    between atoms: C3_3  and  C4_4 
REMARK    3  A    between atoms: C21_27  and  C22_28 
REMARK    4  A    between atoms: C22_28  and  N4_29 
ROOT
HETATM    1  C4  UNL     1      19.139   3.450  49.625  1.00  0.00     0.098 A 
HETATM    2  O1  UNL     1      19.858   4.093  48.637  1.00  0.00    -0.239 OA
HETATM    3  N1  UNL     1      20.973   3.388  48.318  1.00  0.00    -0.261 N 
HETATM    4  C5  UNL     1      20.988   2.238  49.123  1.00  0.00     0.132 A 
HETATM    5  C6  UNL     1      19.947   2.235  49.900  1.00  0.00     0.031 A 
HETATM    6  C7  UNL     1      19.642   1.215  50.928  1.00  0.00     0.063 A 
HETATM    7  C8  UNL     1      20.379   1.083  51.997  1.00  0.00     0.061 A 
HETATM    8  C9  UNL     1      19.759  -0.015  52.767  1.00  0.00     0.260 A 
HETATM    9  O2  UNL     1      20.139  -0.492  53.887  1.00  0.00    -0.267 OA
HETATM   10  N2  UNL     1      18.627  -0.482  52.048  1.00  0.00    -0.289 N 
HETATM   11  C10 UNL     1      18.509   0.289  50.844  1.00  0.00     0.260 A 
HETATM   12  O3  UNL     1      17.672   0.232  49.916  1.00  0.00    -0.267 OA
HETATM   13  C11 UNL     1      21.549   1.914  52.230  1.00  0.00     0.009 A 
HETATM   14  C12 UNL     1      21.701   3.242  52.028  1.00  0.00     0.104 A 
HETATM   15  N3  UNL     1      22.919   3.653  52.342  1.00  0.00    -0.355 N 
HETATM   16  C13 UNL     1      23.579   2.522  52.771  1.00  0.00     0.045 A 
HETATM   17  C14 UNL     1      24.885   2.319  53.230  1.00  0.00     0.030 A 
HETATM   18  C15 UNL     1      25.388   1.094  53.623  1.00  0.00     0.002 A 
HETATM   19  C16 UNL     1      24.557   0.016  53.558  1.00  0.00     0.001 A 
HETATM   20  C17 UNL     1      23.256   0.228  53.098  1.00  0.00     0.014 A 
HETATM   21  C18 UNL     1      22.752   1.450  52.707  1.00  0.00     0.003 A 
HETATM   22  C19 UNL     1      23.507   4.952  52.242  1.00  0.00     0.131 C 
HETATM   23  C20 UNL     1      23.175   5.716  50.981  1.00  0.00     0.054 C 
HETATM   24  C21 UNL     1      23.510   4.803  49.749  1.00  0.00     0.151 C 
HETATM   25  O4  UNL     1      23.230   5.453  48.651  1.00  0.00    -0.382 OA
HETATM   26  C25 UNL     1      22.243   5.433  47.796  1.00  0.00     0.190 C 
HETATM   27  C26 UNL     1      21.668   4.130  47.281  1.00  0.00     0.182 C 
HETATM   28  H6  UNL     1      17.973  -1.257  52.323  1.00  0.00     0.172 HD
ENDROOT
BRANCH  24  29
HETATM   29  C22 UNL     1      24.980   4.406  49.879  1.00  0.00     0.303 C 
BRANCH  29  30
HETATM   30  N4  UNL     1      25.835   5.178  49.029  1.00  0.00     0.082 N 
HETATM   31  C23 UNL     1      27.124   4.581  48.859  1.00  0.00     0.309 C 
HETATM   32  C24 UNL     1      26.000   6.495  49.607  1.00  0.00     0.309 C 
ENDBRANCH  29  30
ENDBRANCH  24  29
BRANCH   1  33
HETATM   33  C3  UNL     1      18.072   3.594  50.307  1.00  0.00     0.082 C 
BRANCH  33  34
HETATM   34  C2  UNL     1      16.951   3.943  51.044  1.00  0.00    -0.024 C 
HETATM   35  C1  UNL     1      16.388   2.965  51.769  1.00  0.00     0.008 C 
ENDBRANCH  33  34
ENDBRANCH   1  33
TORSDOF 4
ENDMDL
MODEL 4
REMARK VINA RESULT:      -7.5      2.352      3.503
REMARK  4 active torsions:
REMARK  status: ('A' for Active; 'I' for Inactive)
REMARK    1  A    between atoms: C2_2  and  C3_3 
REMARK    2  A    between atoms: C3_3  and  C4_4 
REMARK    3  A    between atoms: C21_27  and  C22_28 
REMARK    4  A    between atoms: C22_28  and  N4_29 
ROOT
HETATM    1  C4  UNL     1      23.165   1.829  52.616  1.00  0.00     0.098 A 
HETATM    2  O1  UNL     1      23.719   3.080  52.428  1.00  0.00    -0.239 OA
HETATM    3  N1  UNL     1      22.751   4.026  52.341  1.00  0.00    -0.261 N 
HETATM    4  C5  UNL     1      21.514   3.377  52.477  1.00  0.00     0.132 A 
HETATM    5  C6  UNL     1      21.706   2.101  52.634  1.00  0.00     0.031 A 
HETATM    6  C7  UNL     1      20.643   1.079  52.757  1.00  0.00     0.063 A 
HETATM    7  C8  UNL     1      19.858   0.788  51.756  1.00  0.00     0.061 A 
HETATM    8  C9  UNL     1      18.951  -0.264  52.261  1.00  0.00     0.260 A 
HETATM    9  O2  UNL     1      18.016  -0.856  51.629  1.00  0.00    -0.267 OA
HETATM   10  N2  UNL     1      19.291  -0.535  53.613  1.00  0.00    -0.289 N 
HETATM   11  C10 UNL     1      20.387   0.314  53.981  1.00  0.00     0.260 A 
HETATM   12  O3  UNL     1      21.012   0.422  55.060  1.00  0.00    -0.267 OA
HETATM   13  C11 UNL     1      19.968   1.463  50.473  1.00  0.00     0.009 A 
HETATM   14  C12 UNL     1      21.081   1.796  49.781  1.00  0.00     0.104 A 
HETATM   15  N3  UNL     1      20.792   2.417  48.650  1.00  0.00    -0.355 N 
HETATM   16  C13 UNL     1      19.415   2.481  48.618  1.00  0.00     0.045 A 
HETATM   17  C14 UNL     1      18.526   3.019  47.682  1.00  0.00     0.030 A 
HETATM   18  C15 UNL     1      17.151   2.997  47.815  1.00  0.00     0.002 A 
HETATM   19  C16 UNL     1      16.631   2.414  48.932  1.00  0.00     0.001 A 
HETATM   20  C17 UNL     1      17.527   1.881  49.861  1.00  0.00     0.014 A 
HETATM   21  C18 UNL     1      18.898   1.901  49.729  1.00  0.00     0.003 A 
HETATM   22  C19 UNL     1      21.657   2.971  47.656  1.00  0.00     0.131 C 
HETATM   23  C20 UNL     1      22.860   3.715  48.188  1.00  0.00     0.054 C 
HETATM   24  C21 UNL     1      22.358   4.788  49.218  1.00  0.00     0.151 C 
HETATM   25  O4  UNL     1      23.389   5.441  49.684  1.00  0.00    -0.382 OA
HETATM   26  C25 UNL     1      24.085   5.396  50.789  1.00  0.00     0.190 C 
HETATM   27  C26 UNL     1      23.414   5.303  52.143  1.00  0.00     0.182 C 
HETATM   28  H6  UNL     1      18.835  -1.228  54.259  1.00  0.00     0.172 HD
ENDROOT
BRANCH  24  29
HETATM   29  C22 UNL     1      21.344   5.666  48.486  1.00  0.00     0.303 C 
BRANCH  29  30
HETATM   30  N4  UNL     1      20.404   6.278  49.375  1.00  0.00     0.082 N 
HETATM   31  C23 UNL     1      19.086   6.339  48.823  1.00  0.00     0.309 C 
HETATM   32  C24 UNL     1      20.851   7.622  49.672  1.00  0.00     0.309 C 
ENDBRANCH  29  30
ENDBRANCH  24  29
BRANCH   1  33
HETATM   33  C3  UNL     1      23.523   0.615  52.765  1.00  0.00     0.082 C 
BRANCH  33  34
HETATM   34  C2  UNL     1      23.980  -0.650  53.102  1.00  0.00    -0.024 C 
HETATM   35  C1  UNL     1      25.255  -0.732  53.509  1.00  0.00     0.008 C 
ENDBRANCH  33  34
ENDBRANCH   1  33
TORSDOF 4
ENDMDL
MODEL 5
REMARK VINA RESULT:      -7.5      6.097     10.345
REMARK  4 active torsions:
REMARK  status: ('A' for Active; 'I' for Inactive)
REMARK    1  A    between atoms: C2_2  and  C3_3 
REMARK    2  A    between atoms: C3_3  and  C4_4 
REMARK    3  A    between atoms: C21_27  and  C22_28 
REMARK    4  A    between atoms: C22_28  and  N4_29 
ROOT
HETATM    1  C4  UNL     1      23.752   8.402  48.525  1.00  0.00     0.098 A 
HETATM    2  O1  UNL     1      23.796   9.442  47.619  1.00  0.00    -0.239 OA
HETATM    3  N1  UNL     1      24.580   9.123  46.558  1.00  0.00    -0.261 N 
HETATM    4  C5  UNL     1      25.070   7.825  46.773  1.00  0.00     0.132 A 
HETATM    5  C6  UNL     1      24.619   7.370  47.903  1.00  0.00     0.031 A 
HETATM    6  C7  UNL     1      24.958   6.058  48.500  1.00  0.00     0.063 A 
HETATM    7  C8  UNL     1      26.162   5.795  48.929  1.00  0.00     0.061 A 
HETATM    8  C9  UNL     1      26.098   4.413  49.450  1.00  0.00     0.260 A 
HETATM    9  O2  UNL     1      27.042   3.735  49.974  1.00  0.00    -0.267 OA
HETATM   10  N2  UNL     1      24.774   3.931  49.279  1.00  0.00    -0.289 N 
HETATM   11  C10 UNL     1      23.993   4.967  48.665  1.00  0.00     0.260 A 
HETATM   12  O3  UNL     1      22.788   4.992  48.329  1.00  0.00    -0.267 OA
HETATM   13  C11 UNL     1      27.241   6.763  48.829  1.00  0.00     0.009 A 
HETATM   14  C12 UNL     1      27.215   8.093  49.071  1.00  0.00     0.104 A 
HETATM   15  N3  UNL     1      28.393   8.657  48.860  1.00  0.00    -0.355 N 
HETATM   16  C13 UNL     1      29.217   7.626  48.463  1.00  0.00     0.045 A 
HETATM   17  C14 UNL     1      30.569   7.596  48.102  1.00  0.00     0.030 A 
HETATM   18  C15 UNL     1      31.245   6.454  47.721  1.00  0.00     0.002 A 
HETATM   19  C16 UNL     1      30.549   5.282  47.696  1.00  0.00     0.001 A 
HETATM   20  C17 UNL     1      29.201   5.323  48.057  1.00  0.00     0.014 A 
HETATM   21  C18 UNL     1      28.525   6.461  48.439  1.00  0.00     0.003 A 
HETATM   22  C19 UNL     1      28.788  10.027  48.954  1.00  0.00     0.131 C 
HETATM   23  C20 UNL     1      27.798  11.025  48.400  1.00  0.00     0.054 C 
HETATM   24  C21 UNL     1      27.439  10.598  46.932  1.00  0.00     0.151 C 
HETATM   25  O4  UNL     1      26.584  11.455  46.439  1.00  0.00    -0.382 OA
HETATM   26  C25 UNL     1      25.292  11.460  46.249  1.00  0.00     0.190 C 
HETATM   27  C26 UNL     1      24.574  10.265  45.660  1.00  0.00     0.182 C 
HETATM   28  H6  UNL     1      24.400   2.985  49.543  1.00  0.00     0.172 HD
ENDROOT
BRANCH  24  29
HETATM   29  C22 UNL     1      28.755  10.517  46.160  1.00  0.00     0.303 C 
BRANCH  29  30
HETATM   30  N4  UNL     1      28.616   9.836  44.909  1.00  0.00     0.082 N 
HETATM   31  C23 UNL     1      28.201   8.476  45.068  1.00  0.00     0.309 C 
HETATM   32  C24 UNL     1      29.889   9.861  44.221  1.00  0.00     0.309 C 
ENDBRANCH  29  30
ENDBRANCH  24  29
BRANCH   1  33
HETATM   33  C3  UNL     1      23.224   8.105  49.647  1.00  0.00     0.082 C 
BRANCH  33  34
HETATM   34  C2  UNL     1      22.512   7.689  50.761  1.00  0.00    -0.024 C 
HETATM   35  C1  UNL     1      21.254   7.278  50.543  1.00  0.00     0.008 C 
ENDBRANCH  33  34
ENDBRANCH   1  33
TORSDOF 4
ENDMDL
MODEL 6
REMARK VINA RESULT:      -7.5      3.272      6.746
REMARK  4 active torsions:
REMARK  status: ('A' for Active; 'I' for Inactive)
REMARK    1  A    between atoms: C2_2  and  C3_3 
REMARK    2  A    between atoms: C3_3  and  C4_4 
REMARK    3  A    between atoms: C21_27  and  C22_28 
REMARK    4  A    between atoms: C22_28  and  N4_29 
ROOT
HETATM    1  C4  UNL     1      23.507   2.503  51.050  1.00  0.00     0.098 A 
HETATM    2  O1  UNL     1      22.433   1.720  50.675  1.00  0.00    -0.239 OA
HETATM    3  N1  UNL     1      22.241   1.779  49.333  1.00  0.00    -0.261 N 
HETATM    4  C5  UNL     1      23.224   2.630  48.804  1.00  0.00     0.132 A 
HETATM    5  C6  UNL     1      23.977   3.076  49.764  1.00  0.00     0.031 A 
HETATM    6  C7  UNL     1      25.089   4.041  49.608  1.00  0.00     0.063 A 
HETATM    7  C8  UNL     1      24.872   5.282  49.267  1.00  0.00     0.061 A 
HETATM    8  C9  UNL     1      26.207   5.915  49.225  1.00  0.00     0.260 A 
HETATM    9  O2  UNL     1      26.485   7.126  48.939  1.00  0.00    -0.267 OA
HETATM   10  N2  UNL     1      27.177   4.937  49.566  1.00  0.00    -0.289 N 
HETATM   11  C10 UNL     1      26.498   3.700  49.826  1.00  0.00     0.260 A 
HETATM   12  O3  UNL     1      26.941   2.578  50.159  1.00  0.00    -0.267 OA
HETATM   13  C11 UNL     1      23.534   5.782  49.002  1.00  0.00     0.009 A 
HETATM   14  C12 UNL     1      22.388   5.544  49.678  1.00  0.00     0.104 A 
HETATM   15  N3  UNL     1      21.354   6.164  49.133  1.00  0.00    -0.355 N 
HETATM   16  C13 UNL     1      21.872   6.838  48.048  1.00  0.00     0.045 A 
HETATM   17  C14 UNL     1      21.276   7.662  47.087  1.00  0.00     0.030 A 
HETATM   18  C15 UNL     1      21.959   8.263  46.048  1.00  0.00     0.002 A 
HETATM   19  C16 UNL     1      23.300   8.036  45.954  1.00  0.00     0.001 A 
HETATM   20  C17 UNL     1      23.885   7.211  46.917  1.00  0.00     0.014 A 
HETATM   21  C18 UNL     1      23.205   6.612  47.955  1.00  0.00     0.003 A 
HETATM   22  C19 UNL     1      19.973   6.149  49.500  1.00  0.00     0.131 C 
HETATM   23  C20 UNL     1      19.424   4.798  49.897  1.00  0.00     0.054 C 
HETATM   24  C21 UNL     1      19.758   3.776  48.753  1.00  0.00     0.151 C 
HETATM   25  O4  UNL     1      19.286   2.603  49.082  1.00  0.00    -0.382 OA
HETATM   26  C25 UNL     1      19.804   1.506  49.566  1.00  0.00     0.190 C 
HETATM   27  C26 UNL     1      21.099   0.936  49.025  1.00  0.00     0.182 C 
HETATM   28  H6  UNL     1      28.219   5.064  49.624  1.00  0.00     0.172 HD
ENDROOT
BRANCH  24  29
HETATM   29  C22 UNL     1      19.166   4.345  47.464  1.00  0.00     0.303 C 
BRANCH  29  30
HETATM   30  N4  UNL     1      19.577   3.617  46.302  1.00  0.00     0.082 N 
HETATM   31  C23 UNL     1      20.907   3.947  45.890  1.00  0.00     0.309 C 
HETATM   32  C24 UNL     1      18.663   3.912  45.220  1.00  0.00     0.309 C 
ENDBRANCH  29  30
ENDBRANCH  24  29
BRANCH   1  33
HETATM   33  C3  UNL     1      24.150   2.842  52.097  1.00  0.00     0.082 C 
BRANCH  33  34
HETATM   34  C2  UNL     1      24.867   3.017  53.271  1.00  0.00    -0.024 C 
HETATM   35  C1  UNL     1      25.809   2.099  53.534  1.00  0.00     0.008 C 
ENDBRANCH  33  34
ENDBRANCH   1  33
TORSDOF 4
ENDMDL
MODEL 7
REMARK VINA RESULT:      -7.4      3.863      7.668
REMARK  4 active torsions:
REMARK  status: ('A' for Active; 'I' for Inactive)
REMARK    1  A    between atoms: C2_2  and  C3_3 
REMARK    2  A    between atoms: C3_3  and  C4_4 
REMARK    3  A    between atoms: C21_27  and  C22_28 
REMARK    4  A    between atoms: C22_28  and  N4_29 
ROOT
HETATM    1  C4  UNL     1      21.109   4.367  49.510  1.00  0.00     0.098 A 
HETATM    2  O1  UNL     1      20.574   4.939  48.372  1.00  0.00    -0.239 OA
HETATM    3  N1  UNL     1      21.402   4.762  47.311  1.00  0.00    -0.261 N 
HETATM    4  C5  UNL     1      22.521   4.048  47.765  1.00  0.00     0.132 A 
HETATM    5  C6  UNL     1      22.397   3.802  49.035  1.00  0.00     0.031 A 
HETATM    6  C7  UNL     1      23.399   3.116  49.882  1.00  0.00     0.063 A 
HETATM    7  C8  UNL     1      24.553   3.663  50.150  1.00  0.00     0.061 A 
HETATM    8  C9  UNL     1      25.256   2.691  51.013  1.00  0.00     0.260 A 
HETATM    9  O2  UNL     1      26.419   2.801  51.523  1.00  0.00    -0.267 OA
HETATM   10  N2  UNL     1      24.409   1.567  51.202  1.00  0.00    -0.289 N 
HETATM   11  C10 UNL     1      23.187   1.798  50.486  1.00  0.00     0.260 A 
HETATM   12  O3  UNL     1      22.163   1.089  50.368  1.00  0.00    -0.267 OA
HETATM   13  C11 UNL     1      24.928   4.963  49.620  1.00  0.00     0.009 A 
HETATM   14  C12 UNL     1      24.181   6.085  49.512  1.00  0.00     0.104 A 
HETATM   15  N3  UNL     1      24.859   7.079  48.964  1.00  0.00    -0.355 N 
HETATM   16  C13 UNL     1      26.111   6.562  48.710  1.00  0.00     0.045 A 
HETATM   17  C14 UNL     1      27.258   7.126  48.141  1.00  0.00     0.030 A 
HETATM   18  C15 UNL     1      28.447   6.448  47.957  1.00  0.00     0.002 A 
HETATM   19  C16 UNL     1      28.504   5.146  48.355  1.00  0.00     0.001 A 
HETATM   20  C17 UNL     1      27.354   4.592  48.920  1.00  0.00     0.014 A 
HETATM   21  C18 UNL     1      26.167   5.267  49.106  1.00  0.00     0.003 A 
HETATM   22  C19 UNL     1      24.442   8.406  48.632  1.00  0.00     0.131 C 
HETATM   23  C20 UNL     1      23.065   8.516  48.018  1.00  0.00     0.054 C 
HETATM   24  C21 UNL     1      22.992   7.535  46.794  1.00  0.00     0.151 C 
HETATM   25  O4  UNL     1      21.807   7.623  46.252  1.00  0.00    -0.382 OA
HETATM   26  C25 UNL     1      20.721   6.899  46.292  1.00  0.00     0.190 C 
HETATM   27  C26 UNL     1      20.770   5.391  46.165  1.00  0.00     0.182 C 
HETATM   28  H6  UNL     1      24.614   0.700  51.762  1.00  0.00     0.172 HD
ENDROOT
BRANCH  24  29
HETATM   29  C22 UNL     1      24.136   7.914  45.855  1.00  0.00     0.303 C 
BRANCH  29  30
HETATM   30  N4  UNL     1      23.707   8.750  44.776  1.00  0.00     0.082 N 
HETATM   31  C23 UNL     1      23.900   8.139  43.496  1.00  0.00     0.309 C 
HETATM   32  C24 UNL     1      24.453   9.990  44.822  1.00  0.00     0.309 C 
ENDBRANCH  29  30
ENDBRANCH  24  29
BRANCH   1  33
HETATM   33  C3  UNL     1      20.833   4.205  50.744  1.00  0.00     0.082 C 
BRANCH  33  34
HETATM   34  C2  UNL     1      20.722   4.070  52.119  1.00  0.00    -0.024 C 
HETATM   35  C1  UNL     1      20.128   2.951  52.560  1.00  0.00     0.008 C 
ENDBRANCH  33  34
ENDBRANCH   1  33
TORSDOF 4
ENDMDL
MODEL 8
REMARK VINA RESULT:      -7.1      7.833     10.910
REMARK  4 active torsions:
REMARK  status: ('A' for Active; 'I' for Inactive)
REMARK    1  A    between atoms: C2_2  and  C3_3 
REMARK    2  A    between atoms: C3_3  and  C4_4 
REMARK    3  A    between atoms: C21_27  and  C22_28 
REMARK    4  A    between atoms: C22_28  and  N4_29 
ROOT
HETATM    1  C4  UNL     1      30.744  10.437  47.650  1.00  0.00     0.098 A 
HETATM    2  O1  UNL     1      30.205  11.694  47.837  1.00  0.00    -0.239 OA
HETATM    3  N1  UNL     1      29.181  11.651  48.727  1.00  0.00    -0.261 N 
HETATM    4  C5  UNL     1      29.041  10.317  49.142  1.00  0.00     0.132 A 
HETATM    5  C6  UNL     1      29.923   9.578  48.540  1.00  0.00     0.031 A 
HETATM    6  C7  UNL     1      30.054   8.109  48.677  1.00  0.00     0.063 A 
HETATM    7  C8  UNL     1      29.137   7.298  48.226  1.00  0.00     0.061 A 
HETATM    8  C9  UNL     1      29.627   5.940  48.540  1.00  0.00     0.260 A 
HETATM    9  O2  UNL     1      29.058   4.828  48.283  1.00  0.00    -0.267 OA
HETATM   10  N2  UNL     1      30.880   6.057  49.198  1.00  0.00    -0.289 N 
HETATM   11  C10 UNL     1      31.201   7.451  49.309  1.00  0.00     0.260 A 
HETATM   12  O3  UNL     1      32.195   8.024  49.809  1.00  0.00    -0.267 OA
HETATM   13  C11 UNL     1      27.929   7.787  47.583  1.00  0.00     0.009 A 
HETATM   14  C12 UNL     1      27.790   8.787  46.683  1.00  0.00     0.104 A 
HETATM   15  N3  UNL     1      26.528   8.959  46.326  1.00  0.00    -0.355 N 
HETATM   16  C13 UNL     1      25.823   8.012  47.038  1.00  0.00     0.045 A 
HETATM   17  C14 UNL     1      24.459   7.703  47.086  1.00  0.00     0.030 A 
HETATM   18  C15 UNL     1      23.916   6.706  47.873  1.00  0.00     0.002 A 
HETATM   19  C16 UNL     1      24.766   5.978  48.651  1.00  0.00     0.001 A 
HETATM   20  C17 UNL     1      26.125   6.295  48.597  1.00  0.00     0.014 A 
HETATM   21  C18 UNL     1      26.668   7.289  47.812  1.00  0.00     0.003 A 
HETATM   22  C19 UNL     1      25.943   9.919  45.444  1.00  0.00     0.131 C 
HETATM   23  C20 UNL     1      26.485  11.324  45.567  1.00  0.00     0.054 C 
HETATM   24  C21 UNL     1      26.398  11.755  47.075  1.00  0.00     0.151 C 
HETATM   25  O4  UNL     1      26.862  12.971  47.194  1.00  0.00    -0.382 OA
HETATM   26  C25 UNL     1      27.989  13.489  47.603  1.00  0.00     0.190 C 
HETATM   27  C26 UNL     1      28.673  13.004  48.864  1.00  0.00     0.182 C 
HETATM   28  H6  UNL     1      31.489   5.278  49.555  1.00  0.00     0.172 HD
ENDROOT
BRANCH  24  29
HETATM   29  C22 UNL     1      24.937  11.602  47.496  1.00  0.00     0.303 C 
BRANCH  29  30
HETATM   30  N4  UNL     1      24.084  12.575  46.883  1.00  0.00     0.082 N 
HETATM   31  C23 UNL     1      23.629  13.566  47.810  1.00  0.00     0.309 C 
HETATM   32  C24 UNL     1      22.937  11.898  46.317  1.00  0.00     0.309 C 
ENDBRANCH  29  30
ENDBRANCH  24  29
BRANCH   1  33
HETATM   33  C3  UNL     1      31.666   9.858  46.986  1.00  0.00     0.082 C 
BRANCH  33  34
HETATM   34  C2  UNL     1      32.673   9.099  46.412  1.00  0.00    -0.024 C 
HETATM   35  C1  UNL     1      32.286   7.987  45.769  1.00  0.00     0.008 C 
ENDBRANCH  33  34
ENDBRANCH   1  33
TORSDOF 4
ENDMDL
MODEL 9
REMARK VINA RESULT:      -6.9      9.710     13.553
REMARK  4 active torsions:
REMARK  status: ('A' for Active; 'I' for Inactive)
REMARK    1  A    between atoms: C2_2  and  C3_3 
REMARK    2  A    between atoms: C3_3  and  C4_4 
REMARK    3  A    between atoms: C21_27  and  C22_28 
REMARK    4  A    between atoms: C22_28  and  N4_29 
ROOT
HETATM    1  C4  UNL     1      29.623  10.217  46.257  1.00  0.00     0.098 A 
HETATM    2  O1  UNL     1      30.273  10.745  45.159  1.00  0.00    -0.239 OA
HETATM    3  N1  UNL     1      30.559   9.773  44.257  1.00  0.00    -0.261 N 
HETATM    4  C5  UNL     1      30.079   8.561  44.777  1.00  0.00     0.132 A 
HETATM    5  C6  UNL     1      29.533   8.770  45.937  1.00  0.00     0.031 A 
HETATM    6  C7  UNL     1      28.963   7.729  46.821  1.00  0.00     0.063 A 
HETATM    7  C8  UNL     1      29.718   6.831  47.392  1.00  0.00     0.061 A 
HETATM    8  C9  UNL     1      28.796   5.991  48.185  1.00  0.00     0.260 A 
HETATM    9  O2  UNL     1      29.090   4.987  48.914  1.00  0.00    -0.267 OA
HETATM   10  N2  UNL     1      27.477   6.487  48.011  1.00  0.00    -0.289 N 
HETATM   11  C10 UNL     1      27.535   7.619  47.132  1.00  0.00     0.260 A 
HETATM   12  O3  UNL     1      26.628   8.367  46.702  1.00  0.00    -0.267 OA
HETATM   13  C11 UNL     1      31.155   6.789  47.180  1.00  0.00     0.009 A 
HETATM   14  C12 UNL     1      32.037   7.813  47.135  1.00  0.00     0.104 A 
HETATM   15  N3  UNL     1      33.271   7.392  46.908  1.00  0.00    -0.355 N 
HETATM   16  C13 UNL     1      33.168   6.021  46.804  1.00  0.00     0.045 A 
HETATM   17  C14 UNL     1      34.124   5.028  46.569  1.00  0.00     0.030 A 
HETATM   18  C15 UNL     1      33.839   3.678  46.492  1.00  0.00     0.002 A 
HETATM   19  C16 UNL     1      32.542   3.294  46.657  1.00  0.00     0.001 A 
HETATM   20  C17 UNL     1      31.595   4.293  46.890  1.00  0.00     0.014 A 
HETATM   21  C18 UNL     1      31.879   5.639  46.968  1.00  0.00     0.003 A 
HETATM   22  C19 UNL     1      34.482   8.134  46.745  1.00  0.00     0.131 C 
HETATM   23  C20 UNL     1      34.362   9.391  45.914  1.00  0.00     0.054 C 
HETATM   24  C21 UNL     1      33.694   9.015  44.544  1.00  0.00     0.151 C 
HETATM   25  O4  UNL     1      33.588  10.094  43.815  1.00  0.00    -0.382 OA
HETATM   26  C25 UNL     1      32.615  10.914  43.523  1.00  0.00     0.190 C 
HETATM   27  C26 UNL     1      31.239  10.409  43.142  1.00  0.00     0.182 C 
HETATM   28  H6  UNL     1      26.592   6.111  48.436  1.00  0.00     0.172 HD
ENDROOT
BRANCH  24  29
HETATM   29  C22 UNL     1      34.557   7.921  43.916  1.00  0.00     0.303 C 
BRANCH  29  30
HETATM   30  N4  UNL     1      33.910   7.275  42.815  1.00  0.00     0.082 N 
HETATM   31  C23 UNL     1      32.686   6.638  43.196  1.00  0.00     0.309 C 
HETATM   32  C24 UNL     1      34.806   6.280  42.266  1.00  0.00     0.309 C 
ENDBRANCH  29  30
ENDBRANCH  24  29
BRANCH   1  33
HETATM   33  C3  UNL     1      29.123  10.590  47.369  1.00  0.00     0.082 C 
BRANCH  33  34
HETATM   34  C2  UNL     1      28.745  10.925  48.660  1.00  0.00    -0.024 C 
HETATM   35  C1  UNL     1      28.854   9.957  49.581  1.00  0.00     0.008 C 
ENDBRANCH  33  34
ENDBRANCH   1  33
TORSDOF 4
ENDMDL
