MODEL 1
REMARK VINA RESULT:      -8.9      0.000      0.000
REMARK  6 active torsions:
REMARK  status: ('A' for Active; 'I' for Inactive)
REMARK    1  A    between atoms: C5_7  and  C6_8 
REMARK    2  A    between atoms: C6_8  and  N2_9 
REMARK    3  A    between atoms: N2_9  and  C7_10 
REMARK    4  A    between atoms: C7_10  and  N3_11 
REMARK    5  A    between atoms: N3_11  and  C8_12 
REMARK    6  A    between atoms: C8_12  and  C9_13 
ROOT
HETATM    1  C8  UNL     1      23.291   1.538  52.521  1.00  0.00     0.243 A 
HETATM    2  C17 UNL     1      23.315   1.324  51.035  1.00  0.00     0.028 A 
HETATM    3  C18 UNL     1      23.034   2.520  50.479  1.00  0.00     0.041 A 
HETATM    4  C19 UNL     1      22.802   3.573  51.496  1.00  0.00     0.115 A 
HETATM    5  F1  UNL     1      22.504   4.850  51.156  1.00  0.00    -0.206 F 
HETATM    6  C20 UNL     1      22.963   2.935  52.678  1.00  0.00     0.067 A 
ENDROOT
BRANCH   1   7
HETATM    7  N3  UNL     1      24.724   1.388  52.877  1.00  0.00     0.134 N 
HETATM    8  H14 UNL     1      24.859   0.745  53.677  1.00  0.00     0.320 HD
BRANCH   7   9
HETATM    9  C7  UNL     1      25.439   2.591  53.026  1.00  0.00     0.539 C 
BRANCH   9  10
HETATM   10  N2  UNL     1      26.439   2.345  54.063  1.00  0.00     0.114 N 
HETATM   11  H11 UNL     1      26.125   1.606  54.724  1.00  0.00     0.318 HD
BRANCH  10  12
HETATM   12  C6  UNL     1      27.773   2.238  53.579  1.00  0.00     0.315 C 
BRANCH  12  13
HETATM   13  C5  UNL     1      28.466   1.024  54.214  1.00  0.00     0.317 C 
HETATM   14  C1  UNL     1      27.559  -0.153  54.144  1.00  0.00     0.161 C 
HETATM   15  O1  UNL     1      26.623  -0.474  54.858  1.00  0.00    -0.296 OA
HETATM   16  C2  UNL     1      27.851  -1.090  53.006  1.00  0.00     0.082 C 
HETATM   17  C3  UNL     1      29.220  -1.693  53.338  1.00  0.00     0.037 C 
HETATM   18  C4  UNL     1      30.175  -0.576  53.683  1.00  0.00     0.271 C 
HETATM   19  N1  UNL     1      29.606   0.693  53.345  1.00  0.00     0.097 N 
HETATM   20  H7  UNL     1      30.308   1.459  53.315  1.00  0.00     0.316 HD
ENDBRANCH  12  13
ENDBRANCH  10  12
ENDBRANCH   9  10
ENDBRANCH   7   9
ENDBRANCH   1   7
BRANCH   1  21
HETATM   21  C9  UNL     1      22.612   0.500  53.271  1.00  0.00     0.095 A 
HETATM   22  N4  UNL     1      23.233  -0.229  54.219  1.00  0.00    -0.242 NA
HETATM   23  C10 UNL     1      22.691  -1.212  54.935  1.00  0.00     0.234 A 
HETATM   24  N5  UNL     1      21.416  -1.609  54.794  1.00  0.00    -0.241 NA
HETATM   25  C11 UNL     1      20.691  -0.939  53.860  1.00  0.00     0.070 A 
HETATM   26  C12 UNL     1      19.376  -1.300  53.670  1.00  0.00     0.032 A 
HETATM   27  C16 UNL     1      21.311   0.062  53.159  1.00  0.00     0.021 A 
HETATM   28  C13 UNL     1      18.597  -0.651  52.735  1.00  0.00     0.002 A 
HETATM   29  C14 UNL     1      19.179   0.381  51.989  1.00  0.00     0.001 A 
HETATM   30  C15 UNL     1      20.491   0.674  52.243  1.00  0.00     0.016 A 
ENDBRANCH   1  21
TORSDOF 6
ENDMDL
MODEL 2
REMARK VINA RESULT:      -8.9      2.977      5.682
REMARK  6 active torsions:
REMARK  status: ('A' for Active; 'I' for Inactive)
REMARK    1  A    between atoms: C5_7  and  C6_8 
REMARK    2  A    between atoms: C6_8  and  N2_9 
REMARK    3  A    between atoms: N2_9  and  C7_10 
REMARK    4  A    between atoms: C7_10  and  N3_11 
REMARK    5  A    between atoms: N3_11  and  C8_12 
REMARK    6  A    between atoms: C8_12  and  C9_13 
ROOT
HETATM    1  C8  UNL     1      23.735   3.631  51.720  1.00  0.00     0.243 A 
HETATM    2  C17 UNL     1      22.377   3.673  52.360  1.00  0.00     0.028 A 
HETATM    3  C18 UNL     1      21.738   2.556  51.959  1.00  0.00     0.041 A 
HETATM    4  C19 UNL     1      22.570   1.724  51.057  1.00  0.00     0.115 A 
HETATM    5  F1  UNL     1      22.122   0.556  50.537  1.00  0.00    -0.206 F 
HETATM    6  C20 UNL     1      23.732   2.408  50.951  1.00  0.00     0.067 A 
ENDROOT
BRANCH   1   7
HETATM    7  N3  UNL     1      24.619   3.402  52.890  1.00  0.00     0.134 N 
HETATM    8  H14 UNL     1      25.151   4.254  53.144  1.00  0.00     0.320 HD
BRANCH   7   9
HETATM    9  C7  UNL     1      25.436   2.259  52.817  1.00  0.00     0.539 C 
BRANCH   9  10
HETATM   10  N2  UNL     1      26.443   2.410  53.865  1.00  0.00     0.114 N 
HETATM   11  H11 UNL     1      26.194   1.862  54.713  1.00  0.00     0.318 HD
BRANCH  10  12
HETATM   12  C6  UNL     1      27.787   2.297  53.408  1.00  0.00     0.315 C 
BRANCH  12  13
HETATM   13  C5  UNL     1      28.487   1.134  54.123  1.00  0.00     0.317 C 
HETATM   14  C1  UNL     1      27.595  -0.057  54.119  1.00  0.00     0.161 C 
HETATM   15  O1  UNL     1      26.657  -0.344  54.843  1.00  0.00    -0.296 OA
HETATM   16  C2  UNL     1      27.909  -1.059  53.045  1.00  0.00     0.082 C 
HETATM   17  C3  UNL     1      29.281  -1.624  53.426  1.00  0.00     0.037 C 
HETATM   18  C4  UNL     1      30.220  -0.476  53.709  1.00  0.00     0.271 C 
HETATM   19  N1  UNL     1      29.640   0.763  53.287  1.00  0.00     0.097 N 
HETATM   20  H7  UNL     1      30.333   1.534  53.215  1.00  0.00     0.316 HD
ENDBRANCH  12  13
ENDBRANCH  10  12
ENDBRANCH   9  10
ENDBRANCH   7   9
ENDBRANCH   1   7
BRANCH   1  21
HETATM   21  C9  UNL     1      24.179   4.890  51.158  1.00  0.00     0.095 A 
HETATM   22  N4  UNL     1      23.548   6.055  51.407  1.00  0.00    -0.242 NA
HETATM   23  C10 UNL     1      23.876   7.247  50.915  1.00  0.00     0.234 A 
HETATM   24  N5  UNL     1      24.911   7.441  50.082  1.00  0.00    -0.241 NA
HETATM   25  C11 UNL     1      25.623   6.329  49.760  1.00  0.00     0.070 A 
HETATM   26  C12 UNL     1      26.697   6.464  48.909  1.00  0.00     0.032 A 
HETATM   27  C16 UNL     1      25.231   5.133  50.302  1.00  0.00     0.021 A 
HETATM   28  C13 UNL     1      27.453   5.367  48.552  1.00  0.00     0.002 A 
HETATM   29  C14 UNL     1      27.097   4.118  49.077  1.00  0.00     0.001 A 
HETATM   30  C15 UNL     1      26.016   4.076  49.914  1.00  0.00     0.016 A 
ENDBRANCH   1  21
TORSDOF 6
ENDMDL
MODEL 3
REMARK VINA RESULT:      -8.7      3.410      5.742
REMARK  6 active torsions:
REMARK  status: ('A' for Active; 'I' for Inactive)
REMARK    1  A    between atoms: C5_7  and  C6_8 
REMARK    2  A    between atoms: C6_8  and  N2_9 
REMARK    3  A    between atoms: N2_9  and  C7_10 
REMARK    4  A    between atoms: C7_10  and  N3_11 
REMARK    5  A    between atoms: N3_11  and  C8_12 
REMARK    6  A    between atoms: C8_12  and  C9_13 
ROOT
HETATM    1  C8  UNL     1      25.584   1.165  52.946  1.00  0.00     0.243 A 
HETATM    2  C17 UNL     1      26.088   1.043  54.355  1.00  0.00     0.028 A 
HETATM    3  C18 UNL     1      26.960   0.015  54.355  1.00  0.00     0.041 A 
HETATM    4  C19 UNL     1      27.096  -0.607  53.015  1.00  0.00     0.115 A 
HETATM    5  F1  UNL     1      27.922  -1.657  52.789  1.00  0.00    -0.206 F 
HETATM    6  C20 UNL     1      26.261   0.110  52.230  1.00  0.00     0.067 A 
ENDROOT
BRANCH   1   7
HETATM    7  N3  UNL     1      26.198   2.445  52.510  1.00  0.00     0.134 N 
HETATM    8  H14 UNL     1      25.583   3.255  52.706  1.00  0.00     0.320 HD
BRANCH   7   9
HETATM    9  C7  UNL     1      26.703   2.457  51.197  1.00  0.00     0.539 C 
BRANCH   9  10
HETATM   10  N2  UNL     1      26.454   3.800  50.677  1.00  0.00     0.114 N 
HETATM   11  H11 UNL     1      27.335   4.348  50.605  1.00  0.00     0.318 HD
BRANCH  10  12
HETATM   12  C6  UNL     1      25.587   3.841  49.550  1.00  0.00     0.315 C 
BRANCH  12  13
HETATM   13  C5  UNL     1      25.130   5.283  49.292  1.00  0.00     0.317 C 
HETATM   14  C1  UNL     1      23.737   5.455  49.786  1.00  0.00     0.161 C 
HETATM   15  O1  UNL     1      22.673   5.160  49.269  1.00  0.00    -0.296 OA
HETATM   16  C2  UNL     1      23.638   6.095  51.142  1.00  0.00     0.082 C 
HETATM   17  C3  UNL     1      24.140   7.528  50.935  1.00  0.00     0.037 C 
HETATM   18  C4  UNL     1      25.456   7.484  50.197  1.00  0.00     0.271 C 
HETATM   19  N1  UNL     1      25.959   6.145  50.149  1.00  0.00     0.097 N 
HETATM   20  H7  UNL     1      26.966   6.097  49.893  1.00  0.00     0.316 HD
ENDBRANCH  12  13
ENDBRANCH  10  12
ENDBRANCH   9  10
ENDBRANCH   7   9
ENDBRANCH   1   7
BRANCH   1  21
HETATM   21  C9  UNL     1      24.156   1.380  52.830  1.00  0.00     0.095 A 
HETATM   22  N4  UNL     1      23.635   2.450  52.198  1.00  0.00    -0.242 NA
HETATM   23  C10 UNL     1      22.341   2.733  52.067  1.00  0.00     0.234 A 
HETATM   24  N5  UNL     1      21.364   1.959  52.566  1.00  0.00    -0.241 NA
HETATM   25  C11 UNL     1      21.775   0.845  53.227  1.00  0.00     0.070 A 
HETATM   26  C12 UNL     1      20.819   0.011  53.761  1.00  0.00     0.032 A 
HETATM   27  C16 UNL     1      23.123   0.614  53.325  1.00  0.00     0.021 A 
HETATM   28  C13 UNL     1      21.185  -1.133  54.440  1.00  0.00     0.002 A 
HETATM   29  C14 UNL     1      22.549  -1.418  54.571  1.00  0.00     0.001 A 
HETATM   30  C15 UNL     1      23.430  -0.535  54.010  1.00  0.00     0.016 A 
ENDBRANCH   1  21
TORSDOF 6
ENDMDL
MODEL 4
REMARK VINA RESULT:      -8.5      2.763      4.412
REMARK  6 active torsions:
REMARK  status: ('A' for Active; 'I' for Inactive)
REMARK    1  A    between atoms: C5_7  and  C6_8 
REMARK    2  A    between atoms: C6_8  and  N2_9 
REMARK    3  A    between atoms: N2_9  and  C7_10 
REMARK    4  A    between atoms: C7_10  and  N3_11 
REMARK    5  A    between atoms: N3_11  and  C8_12 
REMARK    6  A    between atoms: C8_12  and  C9_13 
ROOT
HETATM    1  C8  UNL     1      24.260   2.454  51.882  1.00  0.00     0.243 A 
HETATM    2  C17 UNL     1      23.158   2.541  52.897  1.00  0.00     0.028 A 
HETATM    3  C18 UNL     1      22.938   1.281  53.323  1.00  0.00     0.041 A 
HETATM    4  C19 UNL     1      23.824   0.298  52.654  1.00  0.00     0.115 A 
HETATM    5  F1  UNL     1      23.772  -1.026  52.933  1.00  0.00    -0.206 F 
HETATM    6  C20 UNL     1      24.577   1.046  51.816  1.00  0.00     0.067 A 
ENDROOT
BRANCH   1   7
HETATM    7  N3  UNL     1      25.384   3.116  52.591  1.00  0.00     0.134 N 
HETATM    8  H14 UNL     1      25.414   4.133  52.402  1.00  0.00     0.320 HD
BRANCH   7   9
HETATM    9  C7  UNL     1      26.641   2.502  52.438  1.00  0.00     0.539 C 
BRANCH   9  10
HETATM   10  N2  UNL     1      27.247   2.480  53.767  1.00  0.00     0.114 N 
HETATM   11  H11 UNL     1      26.721   1.858  54.414  1.00  0.00     0.318 HD
BRANCH  10  12
HETATM   12  C6  UNL     1      28.664   2.338  53.765  1.00  0.00     0.315 C 
BRANCH  12  13
HETATM   13  C5  UNL     1      29.056   0.972  54.342  1.00  0.00     0.317 C 
HETATM   14  C1  UNL     1      27.885   0.056  54.280  1.00  0.00     0.161 C 
HETATM   15  O1  UNL     1      26.923  -0.048  55.022  1.00  0.00    -0.296 OA
HETATM   16  C2  UNL     1      27.901  -0.886  53.110  1.00  0.00     0.082 C 
HETATM   17  C3  UNL     1      29.089  -1.818  53.374  1.00  0.00     0.037 C 
HETATM   18  C4  UNL     1      30.301  -0.981  53.707  1.00  0.00     0.271 C 
HETATM   19  N1  UNL     1      30.051   0.399  53.422  1.00  0.00     0.097 N 
HETATM   20  H7  UNL     1      30.919   0.970  53.382  1.00  0.00     0.316 HD
ENDBRANCH  12  13
ENDBRANCH  10  12
ENDBRANCH   9  10
ENDBRANCH   7   9
ENDBRANCH   1   7
BRANCH   1  21
HETATM   21  C9  UNL     1      24.051   3.251  50.691  1.00  0.00     0.095 A 
HETATM   22  N4  UNL     1      24.681   4.426  50.488  1.00  0.00    -0.242 NA
HETATM   23  C10 UNL     1      24.528   5.228  49.437  1.00  0.00     0.234 A 
HETATM   24  N5  UNL     1      23.701   4.954  48.415  1.00  0.00    -0.241 NA
HETATM   25  C11 UNL     1      23.010   3.788  48.514  1.00  0.00     0.070 A 
HETATM   26  C12 UNL     1      22.145   3.452  47.497  1.00  0.00     0.032 A 
HETATM   27  C16 UNL     1      23.215   3.009  49.623  1.00  0.00     0.021 A 
HETATM   28  C13 UNL     1      21.422   2.279  47.548  1.00  0.00     0.002 A 
HETATM   29  C14 UNL     1      21.592   1.444  48.660  1.00  0.00     0.001 A 
HETATM   30  C15 UNL     1      22.471   1.855  49.623  1.00  0.00     0.016 A 
ENDBRANCH   1  21
TORSDOF 6
ENDMDL
MODEL 5
REMARK VINA RESULT:      -8.2      2.270      3.477
REMARK  6 active torsions:
REMARK  status: ('A' for Active; 'I' for Inactive)
REMARK    1  A    between atoms: C5_7  and  C6_8 
REMARK    2  A    between atoms: C6_8  and  N2_9 
REMARK    3  A    between atoms: N2_9  and  C7_10 
REMARK    4  A    between atoms: C7_10  and  N3_11 
REMARK    5  A    between atoms: N3_11  and  C8_12 
REMARK    6  A    between atoms: C8_12  and  C9_13 
ROOT
HETATM    1  C8  UNL     1      24.328   4.092  50.616  1.00  0.00     0.243 A 
HETATM    2  C17 UNL     1      25.363   4.639  49.676  1.00  0.00     0.028 A 
HETATM    3  C18 UNL     1      25.374   5.974  49.864  1.00  0.00     0.041 A 
HETATM    4  C19 UNL     1      24.391   6.407  50.887  1.00  0.00     0.115 A 
HETATM    5  F1  UNL     1      24.235   7.707  51.232  1.00  0.00    -0.206 F 
HETATM    6  C20 UNL     1      23.804   5.257  51.290  1.00  0.00     0.067 A 
ENDROOT
BRANCH   1   7
HETATM    7  N3  UNL     1      25.163   3.363  51.603  1.00  0.00     0.134 N 
HETATM    8  H14 UNL     1      25.363   3.937  52.441  1.00  0.00     0.320 HD
BRANCH   7   9
HETATM    9  C7  UNL     1      26.318   2.750  51.082  1.00  0.00     0.539 C 
BRANCH   9  10
HETATM   10  N2  UNL     1      27.221   2.555  52.215  1.00  0.00     0.114 N 
HETATM   11  H11 UNL     1      27.863   3.364  52.333  1.00  0.00     0.318 HD
BRANCH  10  12
HETATM   12  C6  UNL     1      26.588   2.071  53.394  1.00  0.00     0.315 C 
BRANCH  12  13
HETATM   13  C5  UNL     1      27.497   1.057  54.100  1.00  0.00     0.317 C 
HETATM   14  C1  UNL     1      26.912  -0.305  53.968  1.00  0.00     0.161 C 
HETATM   15  O1  UNL     1      26.025  -0.849  54.603  1.00  0.00    -0.296 OA
HETATM   16  C2  UNL     1      27.520  -1.133  52.871  1.00  0.00     0.082 C 
HETATM   17  C3  UNL     1      28.960  -1.389  53.327  1.00  0.00     0.037 C 
HETATM   18  C4  UNL     1      29.583  -0.076  53.738  1.00  0.00     0.271 C 
HETATM   19  N1  UNL     1      28.754   1.020  53.337  1.00  0.00     0.097 N 
HETATM   20  H7  UNL     1      29.249   1.934  53.357  1.00  0.00     0.316 HD
ENDBRANCH  12  13
ENDBRANCH  10  12
ENDBRANCH   9  10
ENDBRANCH   7   9
ENDBRANCH   1   7
BRANCH   1  21
HETATM   21  C9  UNL     1      23.462   3.082  50.043  1.00  0.00     0.095 A 
HETATM   22  N4  UNL     1      23.265   2.969  48.714  1.00  0.00    -0.242 NA
HETATM   23  C10 UNL     1      22.472   2.089  48.109  1.00  0.00     0.234 A 
HETATM   24  N5  UNL     1      21.748   1.173  48.772  1.00  0.00    -0.241 NA
HETATM   25  C11 UNL     1      21.870   1.193  50.126  1.00  0.00     0.070 A 
HETATM   26  C12 UNL     1      21.151   0.278  50.862  1.00  0.00     0.032 A 
HETATM   27  C16 UNL     1      22.704   2.127  50.683  1.00  0.00     0.021 A 
HETATM   28  C13 UNL     1      21.241   0.256  52.238  1.00  0.00     0.002 A 
HETATM   29  C14 UNL     1      22.080   1.189  52.862  1.00  0.00     0.001 A 
HETATM   30  C15 UNL     1      22.755   2.062  52.054  1.00  0.00     0.016 A 
ENDBRANCH   1  21
TORSDOF 6
ENDMDL
MODEL 6
REMARK VINA RESULT:      -7.9      3.552      7.018
REMARK  6 active torsions:
REMARK  status: ('A' for Active; 'I' for Inactive)
REMARK    1  A    between atoms: C5_7  and  C6_8 
REMARK    2  A    between atoms: C6_8  and  N2_9 
REMARK    3  A    between atoms: N2_9  and  C7_10 
REMARK    4  A    between atoms: C7_10  and  N3_11 
REMARK    5  A    between atoms: N3_11  and  C8_12 
REMARK    6  A    between atoms: C8_12  and  C9_13 
ROOT
HETATM    1  C8  UNL     1      24.974   2.581  51.714  1.00  0.00     0.243 A 
HETATM    2  C17 UNL     1      26.068   3.102  50.828  1.00  0.00     0.028 A 
HETATM    3  C18 UNL     1      25.510   3.293  49.615  1.00  0.00     0.041 A 
HETATM    4  C19 UNL     1      24.074   2.927  49.592  1.00  0.00     0.115 A 
HETATM    5  F1  UNL     1      23.319   3.042  48.474  1.00  0.00    -0.206 F 
HETATM    6  C20 UNL     1      23.816   2.512  50.853  1.00  0.00     0.067 A 
ENDROOT
BRANCH   1   7
HETATM    7  N3  UNL     1      24.757   3.723  52.637  1.00  0.00     0.134 N 
HETATM    8  H14 UNL     1      25.071   3.507  53.600  1.00  0.00     0.320 HD
BRANCH   7   9
HETATM    9  C7  UNL     1      23.470   4.291  52.605  1.00  0.00     0.539 C 
BRANCH   9  10
HETATM   10  N2  UNL     1      23.653   5.694  52.240  1.00  0.00     0.114 N 
HETATM   11  H11 UNL     1      24.659   5.928  52.122  1.00  0.00     0.318 HD
BRANCH  10  12
HETATM   12  C6  UNL     1      22.771   6.156  51.223  1.00  0.00     0.315 C 
BRANCH  12  13
HETATM   13  C5  UNL     1      23.400   7.343  50.482  1.00  0.00     0.317 C 
HETATM   14  C1  UNL     1      24.660   6.902  49.824  1.00  0.00     0.161 C 
HETATM   15  O1  UNL     1      25.781   6.756  50.281  1.00  0.00    -0.296 OA
HETATM   16  C2  UNL     1      24.515   6.587  48.362  1.00  0.00     0.082 C 
HETATM   17  C3  UNL     1      24.201   7.934  47.701  1.00  0.00     0.037 C 
HETATM   18  C4  UNL     1      23.081   8.602  48.462  1.00  0.00     0.271 C 
HETATM   19  N1  UNL     1      22.483   7.684  49.383  1.00  0.00     0.097 N 
HETATM   20  H7  UNL     1      21.558   8.003  49.733  1.00  0.00     0.316 HD
ENDBRANCH  12  13
ENDBRANCH  10  12
ENDBRANCH   9  10
ENDBRANCH   7   9
ENDBRANCH   1   7
BRANCH   1  21
HETATM   21  C9  UNL     1      25.361   1.479  52.571  1.00  0.00     0.095 A 
HETATM   22  N4  UNL     1      24.531   0.454  52.850  1.00  0.00    -0.242 NA
HETATM   23  C10 UNL     1      24.798  -0.581  53.642  1.00  0.00     0.234 A 
HETATM   24  N5  UNL     1      25.969  -0.736  54.281  1.00  0.00    -0.241 NA
HETATM   25  C11 UNL     1      26.888   0.244  54.072  1.00  0.00     0.070 A 
HETATM   26  C12 UNL     1      28.108   0.141  54.701  1.00  0.00     0.032 A 
HETATM   27  C16 UNL     1      26.547   1.282  53.245  1.00  0.00     0.021 A 
HETATM   28  C13 UNL     1      29.075   1.108  54.521  1.00  0.00     0.002 A 
HETATM   29  C14 UNL     1      28.780   2.192  53.685  1.00  0.00     0.001 A 
HETATM   30  C15 UNL     1      27.544   2.214  53.101  1.00  0.00     0.016 A 
ENDBRANCH   1  21
TORSDOF 6
ENDMDL
MODEL 7
REMARK VINA RESULT:      -7.9      3.318      6.918
REMARK  6 active torsions:
REMARK  status: ('A' for Active; 'I' for Inactive)
REMARK    1  A    between atoms: C5_7  and  C6_8 
REMARK    2  A    between atoms: C6_8  and  N2_9 
REMARK    3  A    between atoms: N2_9  and  C7_10 
REMARK    4  A    between atoms: C7_10  and  N3_11 
REMARK    5  A    between atoms: N3_11  and  C8_12 
REMARK    6  A    between atoms: C8_12  and  C9_13 
ROOT
HETATM    1  C8  UNL     1      25.168   1.922  52.787  1.00  0.00     0.243 A 
HETATM    2  C17 UNL     1      24.822   1.731  51.338  1.00  0.00     0.028 A 
HETATM    3  C18 UNL     1      23.592   1.179  51.315  1.00  0.00     0.041 A 
HETATM    4  C19 UNL     1      23.048   0.960  52.677  1.00  0.00     0.115 A 
HETATM    5  F1  UNL     1      21.825   0.416  52.885  1.00  0.00    -0.206 F 
HETATM    6  C20 UNL     1      24.021   1.412  53.500  1.00  0.00     0.067 A 
ENDROOT
BRANCH   1   7
HETATM    7  N3  UNL     1      25.136   3.400  52.919  1.00  0.00     0.134 N 
HETATM    8  H14 UNL     1      26.024   3.773  53.300  1.00  0.00     0.320 HD
BRANCH   7   9
HETATM    9  C7  UNL     1      24.006   3.925  53.572  1.00  0.00     0.539 C 
BRANCH   9  10
HETATM   10  N2  UNL     1      23.722   5.206  52.927  1.00  0.00     0.114 N 
HETATM   11  H11 UNL     1      24.525   5.860  53.011  1.00  0.00     0.318 HD
BRANCH  10  12
HETATM   12  C6  UNL     1      23.126   5.095  51.639  1.00  0.00     0.315 C 
BRANCH  12  13
HETATM   13  C5  UNL     1      24.032   5.745  50.585  1.00  0.00     0.317 C 
HETATM   14  C1  UNL     1      23.211   6.618  49.701  1.00  0.00     0.161 C 
HETATM   15  O1  UNL     1      22.511   6.337  48.743  1.00  0.00    -0.296 OA
HETATM   16  C2  UNL     1      23.261   8.076  50.057  1.00  0.00     0.082 C 
HETATM   17  C3  UNL     1      24.703   8.502  49.764  1.00  0.00     0.037 C 
HETATM   18  C4  UNL     1      25.644   7.516  50.415  1.00  0.00     0.271 C 
HETATM   19  N1  UNL     1      24.931   6.657  51.310  1.00  0.00     0.097 N 
HETATM   20  H7  UNL     1      25.553   6.147  51.969  1.00  0.00     0.316 HD
ENDBRANCH  12  13
ENDBRANCH  10  12
ENDBRANCH   9  10
ENDBRANCH   7   9
ENDBRANCH   1   7
BRANCH   1  21
HETATM   21  C9  UNL     1      26.522   1.546  53.141  1.00  0.00     0.095 A 
HETATM   22  N4  UNL     1      27.425   2.439  53.593  1.00  0.00    -0.242 NA
HETATM   23  C10 UNL     1      28.689   2.183  53.917  1.00  0.00     0.234 A 
HETATM   24  N5  UNL     1      29.239   0.961  53.830  1.00  0.00    -0.241 NA
HETATM   25  C11 UNL     1      28.416  -0.024  53.383  1.00  0.00     0.070 A 
HETATM   26  C12 UNL     1      28.921  -1.299  53.271  1.00  0.00     0.032 A 
HETATM   27  C16 UNL     1      27.124   0.310  53.067  1.00  0.00     0.021 A 
HETATM   28  C13 UNL     1      28.127  -2.334  52.824  1.00  0.00     0.002 A 
HETATM   29  C14 UNL     1      26.798  -2.050  52.486  1.00  0.00     0.001 A 
HETATM   30  C15 UNL     1      26.379  -0.756  52.627  1.00  0.00     0.016 A 
ENDBRANCH   1  21
TORSDOF 6
ENDMDL
MODEL 8
REMARK VINA RESULT:      -7.9      4.081      5.536
REMARK  6 active torsions:
REMARK  status: ('A' for Active; 'I' for Inactive)
REMARK    1  A    between atoms: C5_7  and  C6_8 
REMARK    2  A    between atoms: C6_8  and  N2_9 
REMARK    3  A    between atoms: N2_9  and  C7_10 
REMARK    4  A    between atoms: C7_10  and  N3_11 
REMARK    5  A    between atoms: N3_11  and  C8_12 
REMARK    6  A    between atoms: C8_12  and  C9_13 
ROOT
HETATM    1  C8  UNL     1      24.485   2.536  52.141  1.00  0.00     0.243 A 
HETATM    2  C17 UNL     1      23.874   2.250  50.800  1.00  0.00     0.028 A 
HETATM    3  C18 UNL     1      22.907   3.173  50.623  1.00  0.00     0.041 A 
HETATM    4  C19 UNL     1      22.794   4.098  51.776  1.00  0.00     0.115 A 
HETATM    5  F1  UNL     1      21.886   5.103  51.808  1.00  0.00    -0.206 F 
HETATM    6  C20 UNL     1      23.744   3.671  52.639  1.00  0.00     0.067 A 
ENDROOT
BRANCH   1   7
HETATM    7  N3  UNL     1      25.833   3.030  51.766  1.00  0.00     0.134 N 
HETATM    8  H14 UNL     1      26.073   3.908  52.259  1.00  0.00     0.320 HD
BRANCH   7   9
HETATM    9  C7  UNL     1      26.088   3.101  50.384  1.00  0.00     0.539 C 
BRANCH   9  10
HETATM   10  N2  UNL     1      26.586   4.451  50.131  1.00  0.00     0.114 N 
HETATM   11  H11 UNL     1      27.545   4.433  49.729  1.00  0.00     0.318 HD
BRANCH  10  12
HETATM   12  C6  UNL     1      25.649   5.314  49.495  1.00  0.00     0.315 C 
BRANCH  12  13
HETATM   13  C5  UNL     1      26.386   6.336  48.619  1.00  0.00     0.317 C 
HETATM   14  C1  UNL     1      25.926   7.707  48.969  1.00  0.00     0.161 C 
HETATM   15  O1  UNL     1      24.929   8.318  48.623  1.00  0.00    -0.296 OA
HETATM   16  C2  UNL     1      26.844   8.447  49.900  1.00  0.00     0.082 C 
HETATM   17  C3  UNL     1      28.121   8.679  49.086  1.00  0.00     0.037 C 
HETATM   18  C4  UNL     1      28.546   7.372  48.460  1.00  0.00     0.271 C 
HETATM   19  N1  UNL     1      27.801   6.284  49.017  1.00  0.00     0.097 N 
HETATM   20  H7  UNL     1      28.228   5.356  48.821  1.00  0.00     0.316 HD
ENDBRANCH  12  13
ENDBRANCH  10  12
ENDBRANCH   9  10
ENDBRANCH   7   9
ENDBRANCH   1   7
BRANCH   1  21
HETATM   21  C9  UNL     1      24.732   1.363  52.956  1.00  0.00     0.095 A 
HETATM   22  N4  UNL     1      25.976   0.913  53.215  1.00  0.00    -0.242 NA
HETATM   23  C10 UNL     1      26.289  -0.164  53.930  1.00  0.00     0.234 A 
HETATM   24  N5  UNL     1      25.372  -0.960  54.502  1.00  0.00    -0.241 NA
HETATM   25  C11 UNL     1      24.076  -0.601  54.306  1.00  0.00     0.070 A 
HETATM   26  C12 UNL     1      23.088  -1.378  54.867  1.00  0.00     0.032 A 
HETATM   27  C16 UNL     1      23.824   0.520  53.558  1.00  0.00     0.021 A 
HETATM   28  C13 UNL     1      21.758  -1.055  54.699  1.00  0.00     0.002 A 
HETATM   29  C14 UNL     1      21.443   0.081  53.943  1.00  0.00     0.001 A 
HETATM   30  C15 UNL     1      22.486   0.795  53.422  1.00  0.00     0.016 A 
ENDBRANCH   1  21
TORSDOF 6
ENDMDL
MODEL 9
REMARK VINA RESULT:      -7.9      3.946      6.442
REMARK  6 active torsions:
REMARK  status: ('A' for Active; 'I' for Inactive)
REMARK    1  A    between atoms: C5_7  and  C6_8 
REMARK    2  A    between atoms: C6_8  and  N2_9 
REMARK    3  A    between atoms: N2_9  and  C7_10 
REMARK    4  A    between atoms: C7_10  and  N3_11 
REMARK    5  A    between atoms: N3_11  and  C8_12 
REMARK    6  A    between atoms: C8_12  and  C9_13 
ROOT
HETATM    1  C8  UNL     1      22.919   2.896  51.209  1.00  0.00     0.243 A 
HETATM    2  C17 UNL     1      22.179   2.182  50.115  1.00  0.00     0.028 A 
HETATM    3  C18 UNL     1      20.997   1.807  50.644  1.00  0.00     0.041 A 
HETATM    4  C19 UNL     1      20.861   2.212  52.063  1.00  0.00     0.115 A 
HETATM    5  F1  UNL     1      19.751   1.936  52.788  1.00  0.00    -0.206 F 
HETATM    6  C20 UNL     1      22.023   2.845  52.341  1.00  0.00     0.067 A 
ENDROOT
BRANCH   1   7
HETATM    7  N3  UNL     1      22.915   4.297  50.719  1.00  0.00     0.134 N 
HETATM    8  H14 UNL     1      23.756   4.511  50.154  1.00  0.00     0.320 HD
BRANCH   7   9
HETATM    9  C7  UNL     1      22.656   5.278  51.694  1.00  0.00     0.539 C 
BRANCH   9  10
HETATM   10  N2  UNL     1      23.950   5.870  52.030  1.00  0.00     0.114 N 
HETATM   11  H11 UNL     1      24.686   5.142  52.127  1.00  0.00     0.318 HD
BRANCH  10  12
HETATM   12  C6  UNL     1      24.289   7.016  51.258  1.00  0.00     0.315 C 
BRANCH  12  13
HETATM   13  C5  UNL     1      25.414   6.671  50.272  1.00  0.00     0.317 C 
HETATM   14  C1  UNL     1      24.861   6.618  48.892  1.00  0.00     0.161 C 
HETATM   15  O1  UNL     1      24.256   5.730  48.316  1.00  0.00    -0.296 OA
HETATM   16  C2  UNL     1      25.089   7.867  48.088  1.00  0.00     0.082 C 
HETATM   17  C3  UNL     1      26.606   7.926  47.879  1.00  0.00     0.037 C 
HETATM   18  C4  UNL     1      27.290   7.729  49.211  1.00  0.00     0.271 C 
HETATM   19  N1  UNL     1      26.341   7.813  50.280  1.00  0.00     0.097 N 
HETATM   20  H7  UNL     1      26.786   7.948  51.209  1.00  0.00     0.316 HD
ENDBRANCH  12  13
ENDBRANCH  10  12
ENDBRANCH   9  10
ENDBRANCH   7   9
ENDBRANCH   1   7
BRANCH   1  21
HETATM   21  C9  UNL     1      24.320   2.545  51.322  1.00  0.00     0.095 A 
HETATM   22  N4  UNL     1      25.294   3.261  50.724  1.00  0.00    -0.242 NA
HETATM   23  C10 UNL     1      26.597   2.995  50.757  1.00  0.00     0.234 A 
HETATM   24  N5  UNL     1      27.119   1.946  51.414  1.00  0.00    -0.241 NA
HETATM   25  C11 UNL     1      26.224   1.151  52.057  1.00  0.00     0.070 A 
HETATM   26  C12 UNL     1      26.697   0.058  52.748  1.00  0.00     0.032 A 
HETATM   27  C16 UNL     1      24.896   1.482  51.982  1.00  0.00     0.021 A 
HETATM   28  C13 UNL     1      25.831  -0.779  53.419  1.00  0.00     0.002 A 
HETATM   29  C14 UNL     1      24.461  -0.488  53.375  1.00  0.00     0.001 A 
HETATM   30  C15 UNL     1      24.079   0.616  52.665  1.00  0.00     0.016 A 
ENDBRANCH   1  21
TORSDOF 6
ENDMDL
