MODEL 1
REMARK VINA RESULT:      -7.6      0.000      0.000
REMARK  5 active torsions:
REMARK  status: ('A' for Active; 'I' for Inactive)
REMARK    1  A    between atoms: C4_4  and  O1_5 
REMARK    2  A    between atoms: C7_9  and  C8_10 
REMARK    3  A    between atoms: C8_10  and  C9_12 
REMARK    4  A    between atoms: C9_12  and  P1_13 
REMARK    5  A    between atoms: C11_15  and  O4_16 
ROOT
HETATM    1  C1  UNL     1      23.942   3.523  52.561  1.00  0.00     0.044 C 
HETATM    2  C2  UNL     1      23.069   2.594  51.771  1.00  0.00     0.146 C 
HETATM    3  C3  UNL     1      21.667   2.977  52.007  1.00  0.00     0.041 C 
HETATM    4  C4  UNL     1      20.479   2.452  52.352  1.00  0.00     0.066 C 
HETATM    5  C5  UNL     1      20.093   1.061  52.671  1.00  0.00     0.060 C 
HETATM    6  C6  UNL     1      20.825  -0.017  53.004  1.00  0.00     0.141 C 
HETATM    7  O2  UNL     1      22.197  -0.168  53.156  1.00  0.00    -0.325 OA
HETATM    8  C7  UNL     1      23.304   0.718  53.138  1.00  0.00     0.336 C 
HETATM    9  O5  UNL     1      23.358   1.266  51.885  1.00  0.00    -0.345 OA
ENDROOT
BRANCH   8  10
HETATM   10  C8  UNL     1      24.486  -0.107  53.506  1.00  0.00     0.186 C 
HETATM   11  O3  UNL     1      23.618  -0.922  53.253  1.00  0.00    -0.292 OA
BRANCH  10  12
HETATM   12  C9  UNL     1      25.595   0.833  53.831  1.00  0.00     0.122 C 
BRANCH  12  13
HETATM   13  P1  UNL     1      27.031   0.334  52.805  1.00  0.00    -0.081 P 
HETATM   14  C10 UNL     1      27.335  -1.459  52.784  1.00  0.00     0.044 A 
HETATM   15  C11 UNL     1      28.415  -2.148  53.112  1.00  0.00     0.066 A 
HETATM   16  C12 UNL     1      29.564  -1.376  53.568  1.00  0.00     0.033 A 
HETATM   17  C13 UNL     1      29.567  -0.058  53.663  1.00  0.00    -0.019 A 
HETATM   18  C14 UNL     1      28.628   1.064  53.414  1.00  0.00     0.066 A 
BRANCH  15  19
HETATM   19  O4  UNL     1      28.565  -3.540  53.065  1.00  0.00    -0.361 OA
HETATM   20  H13 UNL     1      28.207  -4.163  53.769  1.00  0.00     0.217 HD
ENDBRANCH  15  19
ENDBRANCH  12  13
ENDBRANCH  10  12
ENDBRANCH   8  10
BRANCH   4  21
HETATM   21  O1  UNL     1      19.417   3.375  52.423  1.00  0.00    -0.361 OA
HETATM   22  H6  UNL     1      18.509   2.984  52.161  1.00  0.00     0.217 HD
ENDBRANCH   4  21
TORSDOF 5
ENDMDL
MODEL 2
REMARK VINA RESULT:      -7.6      2.229      6.883
REMARK  5 active torsions:
REMARK  status: ('A' for Active; 'I' for Inactive)
REMARK    1  A    between atoms: C4_4  and  O1_5 
REMARK    2  A    between atoms: C7_9  and  C8_10 
REMARK    3  A    between atoms: C8_10  and  C9_12 
REMARK    4  A    between atoms: C9_12  and  P1_13 
REMARK    5  A    between atoms: C11_15  and  O4_16 
ROOT
HETATM    1  C1  UNL     1      25.209  -1.217  53.030  1.00  0.00     0.044 C 
HETATM    2  C2  UNL     1      26.482  -1.090  52.247  1.00  0.00     0.146 C 
HETATM    3  C3  UNL     1      27.436  -2.083  52.768  1.00  0.00     0.041 C 
HETATM    4  C4  UNL     1      28.701  -2.195  53.208  1.00  0.00     0.066 C 
HETATM    5  C5  UNL     1      29.768  -1.180  53.347  1.00  0.00     0.060 C 
HETATM    6  C6  UNL     1      29.728   0.164  53.371  1.00  0.00     0.141 C 
HETATM    7  O2  UNL     1      28.655   1.039  53.272  1.00  0.00    -0.325 OA
HETATM    8  C7  UNL     1      27.247   0.886  53.224  1.00  0.00     0.336 C 
HETATM    9  O5  UNL     1      26.959   0.178  52.088  1.00  0.00    -0.345 OA
ENDROOT
BRANCH   8  10
HETATM   10  C8  UNL     1      26.690   2.265  53.252  1.00  0.00     0.186 C 
HETATM   11  O3  UNL     1      26.931   2.015  54.418  1.00  0.00    -0.292 OA
BRANCH  10  12
HETATM   12  C9  UNL     1      26.370   2.640  51.846  1.00  0.00     0.122 C 
BRANCH  12  13
HETATM   13  P1  UNL     1      24.581   3.041  51.798  1.00  0.00    -0.081 P 
HETATM   14  C10 UNL     1      23.576   2.070  52.962  1.00  0.00     0.044 A 
HETATM   15  C11 UNL     1      22.535   1.284  52.745  1.00  0.00     0.066 A 
HETATM   16  C12 UNL     1      22.097   1.153  51.361  1.00  0.00     0.033 A 
HETATM   17  C13 UNL     1      22.682   1.770  50.349  1.00  0.00    -0.019 A 
HETATM   18  C14 UNL     1      23.819   2.699  50.137  1.00  0.00     0.066 A 
BRANCH  15  19
HETATM   19  O4  UNL     1      21.813   0.567  53.708  1.00  0.00    -0.361 OA
HETATM   20  H13 UNL     1      21.969   0.651  54.698  1.00  0.00     0.217 HD
ENDBRANCH  15  19
ENDBRANCH  12  13
ENDBRANCH  10  12
ENDBRANCH   8  10
BRANCH   4  21
HETATM   21  O1  UNL     1      29.083  -3.491  53.604  1.00  0.00    -0.361 OA
HETATM   22  H6  UNL     1      28.372  -4.206  53.428  1.00  0.00     0.217 HD
ENDBRANCH   4  21
TORSDOF 5
ENDMDL
MODEL 3
REMARK VINA RESULT:      -7.4      3.223      7.113
REMARK  5 active torsions:
REMARK  status: ('A' for Active; 'I' for Inactive)
REMARK    1  A    between atoms: C4_4  and  O1_5 
REMARK    2  A    between atoms: C7_9  and  C8_10 
REMARK    3  A    between atoms: C8_10  and  C9_12 
REMARK    4  A    between atoms: C9_12  and  P1_13 
REMARK    5  A    between atoms: C11_15  and  O4_16 
ROOT
HETATM    1  C1  UNL     1      25.205  -0.898  52.925  1.00  0.00     0.044 C 
HETATM    2  C2  UNL     1      26.508  -0.895  52.183  1.00  0.00     0.146 C 
HETATM    3  C3  UNL     1      27.328  -2.003  52.701  1.00  0.00     0.041 C 
HETATM    4  C4  UNL     1      28.558  -2.267  53.173  1.00  0.00     0.066 C 
HETATM    5  C5  UNL     1      29.728  -1.384  53.372  1.00  0.00     0.060 C 
HETATM    6  C6  UNL     1      29.837  -0.045  53.435  1.00  0.00     0.141 C 
HETATM    7  O2  UNL     1      28.872   0.949  53.331  1.00  0.00    -0.325 OA
HETATM    8  C7  UNL     1      27.458   0.956  53.239  1.00  0.00     0.336 C 
HETATM    9  O5  UNL     1      27.129   0.315  52.076  1.00  0.00    -0.345 OA
ENDROOT
BRANCH   8  10
HETATM   10  C8  UNL     1      27.059   2.388  53.293  1.00  0.00     0.186 C 
HETATM   11  O3  UNL     1      28.216   2.413  52.918  1.00  0.00    -0.292 OA
BRANCH  10  12
HETATM   12  C9  UNL     1      25.641   2.433  53.748  1.00  0.00     0.122 C 
BRANCH  12  13
HETATM   13  P1  UNL     1      24.625   2.845  52.277  1.00  0.00    -0.081 P 
HETATM   14  C10 UNL     1      25.599   3.312  50.814  1.00  0.00     0.044 A 
HETATM   15  C11 UNL     1      25.570   4.414  50.083  1.00  0.00     0.066 A 
HETATM   16  C12 UNL     1      24.615   5.438  50.488  1.00  0.00     0.033 A 
HETATM   17  C13 UNL     1      23.804   5.310  51.523  1.00  0.00    -0.019 A 
HETATM   18  C14 UNL     1      23.507   4.301  52.570  1.00  0.00     0.066 A 
BRANCH  15  19
HETATM   19  O4  UNL     1      26.363   4.694  48.962  1.00  0.00    -0.361 OA
HETATM   20  H13 UNL     1      26.449   5.611  48.556  1.00  0.00     0.217 HD
ENDBRANCH  15  19
ENDBRANCH  12  13
ENDBRANCH  10  12
ENDBRANCH   8  10
BRANCH   4  21
HETATM   21  O1  UNL     1      28.781  -3.609  53.541  1.00  0.00    -0.361 OA
HETATM   22  H6  UNL     1      28.194  -4.280  53.038  1.00  0.00     0.217 HD
ENDBRANCH   4  21
TORSDOF 5
ENDMDL
MODEL 4
REMARK VINA RESULT:      -7.3      1.523      2.516
REMARK  5 active torsions:
REMARK  status: ('A' for Active; 'I' for Inactive)
REMARK    1  A    between atoms: C4_4  and  O1_5 
REMARK    2  A    between atoms: C7_9  and  C8_10 
REMARK    3  A    between atoms: C8_10  and  C9_12 
REMARK    4  A    between atoms: C9_12  and  P1_13 
REMARK    5  A    between atoms: C11_15  and  O4_16 
ROOT
HETATM    1  C1  UNL     1      22.277  -1.166  54.641  1.00  0.00     0.044 C 
HETATM    2  C2  UNL     1      21.468   0.040  54.265  1.00  0.00     0.146 C 
HETATM    3  C3  UNL     1      20.192  -0.428  53.699  1.00  0.00     0.041 C 
HETATM    4  C4  UNL     1      19.391  -0.260  52.632  1.00  0.00     0.066 C 
HETATM    5  C5  UNL     1      19.534   0.609  51.444  1.00  0.00     0.060 C 
HETATM    6  C6  UNL     1      20.599   1.244  50.923  1.00  0.00     0.141 C 
HETATM    7  O2  UNL     1      21.923   1.286  51.341  1.00  0.00    -0.325 OA
HETATM    8  C7  UNL     1      22.668   0.629  52.353  1.00  0.00     0.336 C 
HETATM    9  O5  UNL     1      22.126   1.000  53.554  1.00  0.00    -0.345 OA
ENDROOT
BRANCH   8  10
HETATM   10  C8  UNL     1      24.080   1.053  52.152  1.00  0.00     0.186 C 
HETATM   11  O3  UNL     1      23.458   1.671  51.308  1.00  0.00    -0.292 OA
BRANCH  10  12
HETATM   12  C9  UNL     1      24.905   0.329  53.160  1.00  0.00     0.122 C 
BRANCH  12  13
HETATM   13  P1  UNL     1      26.525  -0.014  52.372  1.00  0.00    -0.081 P 
HETATM   14  C10 UNL     1      27.114  -1.719  52.608  1.00  0.00     0.044 A 
HETATM   15  C11 UNL     1      28.238  -2.170  53.138  1.00  0.00     0.066 A 
HETATM   16  C12 UNL     1      29.177  -1.166  53.621  1.00  0.00     0.033 A 
HETATM   17  C13 UNL     1      28.956   0.135  53.551  1.00  0.00    -0.019 A 
HETATM   18  C14 UNL     1      27.889   1.043  53.061  1.00  0.00     0.066 A 
BRANCH  15  19
HETATM   19  O4  UNL     1      28.616  -3.512  53.282  1.00  0.00    -0.361 OA
HETATM   20  H13 UNL     1      28.358  -4.082  54.069  1.00  0.00     0.217 HD
ENDBRANCH  15  19
ENDBRANCH  12  13
ENDBRANCH  10  12
ENDBRANCH   8  10
BRANCH   4  21
HETATM   21  O1  UNL     1      18.216  -1.036  52.640  1.00  0.00    -0.361 OA
HETATM   22  H6  UNL     1      17.451  -0.636  52.090  1.00  0.00     0.217 HD
ENDBRANCH   4  21
TORSDOF 5
ENDMDL
MODEL 5
REMARK VINA RESULT:      -7.3      2.028      2.885
REMARK  5 active torsions:
REMARK  status: ('A' for Active; 'I' for Inactive)
REMARK    1  A    between atoms: C4_4  and  O1_5 
REMARK    2  A    between atoms: C7_9  and  C8_10 
REMARK    3  A    between atoms: C8_10  and  C9_12 
REMARK    4  A    between atoms: C9_12  and  P1_13 
REMARK    5  A    between atoms: C11_15  and  O4_16 
ROOT
HETATM    1  C1  UNL     1      20.972   2.325  51.497  1.00  0.00     0.044 C 
HETATM    2  C2  UNL     1      21.230   0.851  51.602  1.00  0.00     0.146 C 
HETATM    3  C3  UNL     1      20.178   0.265  52.449  1.00  0.00     0.041 C 
HETATM    4  C4  UNL     1      20.014  -0.538  53.514  1.00  0.00     0.066 C 
HETATM    5  C5  UNL     1      21.005  -1.241  54.357  1.00  0.00     0.060 C 
HETATM    6  C6  UNL     1      22.329  -1.065  54.516  1.00  0.00     0.141 C 
HETATM    7  O2  UNL     1      23.199  -0.155  53.928  1.00  0.00    -0.325 OA
HETATM    8  C7  UNL     1      23.040   0.960  53.069  1.00  0.00     0.336 C 
HETATM    9  O5  UNL     1      22.512   0.491  51.897  1.00  0.00    -0.345 OA
ENDROOT
BRANCH   8  10
HETATM   10  C8  UNL     1      24.393   1.565  52.941  1.00  0.00     0.186 C 
HETATM   11  O3  UNL     1      23.718   2.444  53.443  1.00  0.00    -0.292 OA
BRANCH  10  12
HETATM   12  C9  UNL     1      25.280   0.536  52.328  1.00  0.00     0.122 C 
BRANCH  12  13
HETATM   13  P1  UNL     1      26.453   0.002  53.633  1.00  0.00    -0.081 P 
HETATM   14  C10 UNL     1      27.602   1.305  54.171  1.00  0.00     0.044 A 
HETATM   15  C11 UNL     1      28.924   1.327  54.186  1.00  0.00     0.066 A 
HETATM   16  C12 UNL     1      29.599   0.130  53.699  1.00  0.00     0.033 A 
HETATM   17  C13 UNL     1      28.961  -0.940  53.259  1.00  0.00    -0.019 A 
HETATM   18  C14 UNL     1      27.557  -1.384  53.073  1.00  0.00     0.066 A 
BRANCH  15  19
HETATM   19  O4  UNL     1      29.738   2.381  54.621  1.00  0.00    -0.361 OA
HETATM   20  H13 UNL     1      30.736   2.307  54.727  1.00  0.00     0.217 HD
ENDBRANCH  15  19
ENDBRANCH  12  13
ENDBRANCH  10  12
ENDBRANCH   8  10
BRANCH   4  21
HETATM   21  O1  UNL     1      18.675  -0.754  53.898  1.00  0.00    -0.361 OA
HETATM   22  H6  UNL     1      18.448  -1.736  54.078  1.00  0.00     0.217 HD
ENDBRANCH   4  21
TORSDOF 5
ENDMDL
MODEL 6
REMARK VINA RESULT:      -7.3      2.029      2.895
REMARK  5 active torsions:
REMARK  status: ('A' for Active; 'I' for Inactive)
REMARK    1  A    between atoms: C4_4  and  O1_5 
REMARK    2  A    between atoms: C7_9  and  C8_10 
REMARK    3  A    between atoms: C8_10  and  C9_12 
REMARK    4  A    between atoms: C9_12  and  P1_13 
REMARK    5  A    between atoms: C11_15  and  O4_16 
ROOT
HETATM    1  C1  UNL     1      26.601   3.041  50.479  1.00  0.00     0.044 C 
HETATM    2  C2  UNL     1      25.155   3.283  50.162  1.00  0.00     0.146 C 
HETATM    3  C3  UNL     1      24.873   4.710  50.392  1.00  0.00     0.041 C 
HETATM    4  C4  UNL     1      24.005   5.520  51.020  1.00  0.00     0.066 C 
HETATM    5  C5  UNL     1      22.818   5.211  51.847  1.00  0.00     0.060 C 
HETATM    6  C6  UNL     1      22.425   4.081  52.461  1.00  0.00     0.141 C 
HETATM    7  O2  UNL     1      23.018   2.826  52.514  1.00  0.00    -0.325 OA
HETATM    8  C7  UNL     1      24.253   2.289  52.071  1.00  0.00     0.336 C 
HETATM    9  O5  UNL     1      24.271   2.399  50.706  1.00  0.00    -0.345 OA
ENDROOT
BRANCH   8  10
HETATM   10  C8  UNL     1      24.292   0.893  52.581  1.00  0.00     0.186 C 
HETATM   11  O3  UNL     1      23.371   0.896  51.785  1.00  0.00    -0.292 OA
BRANCH  10  12
HETATM   12  C9  UNL     1      25.405   0.816  53.569  1.00  0.00     0.122 C 
BRANCH  12  13
HETATM   13  P1  UNL     1      26.901   0.298  52.643  1.00  0.00    -0.081 P 
HETATM   14  C10 UNL     1      27.284  -1.474  52.790  1.00  0.00     0.044 A 
HETATM   15  C11 UNL     1      28.379  -2.080  53.215  1.00  0.00     0.066 A 
HETATM   16  C12 UNL     1      29.474  -1.219  53.643  1.00  0.00     0.033 A 
HETATM   17  C13 UNL     1      29.415   0.101  53.622  1.00  0.00    -0.019 A 
HETATM   18  C14 UNL     1      28.439   1.152  53.242  1.00  0.00     0.066 A 
BRANCH  15  19
HETATM   19  O4  UNL     1      28.592  -3.462  53.296  1.00  0.00    -0.361 OA
HETATM   20  H13 UNL     1      29.012  -4.006  52.561  1.00  0.00     0.217 HD
ENDBRANCH  15  19
ENDBRANCH  12  13
ENDBRANCH  10  12
ENDBRANCH   8  10
BRANCH   4  21
HETATM   21  O1  UNL     1      24.259   6.898  50.871  1.00  0.00    -0.361 OA
HETATM   22  H6  UNL     1      24.632   7.154  49.953  1.00  0.00     0.217 HD
ENDBRANCH   4  21
TORSDOF 5
ENDMDL
MODEL 7
REMARK VINA RESULT:      -7.3      3.186      6.777
REMARK  5 active torsions:
REMARK  status: ('A' for Active; 'I' for Inactive)
REMARK    1  A    between atoms: C4_4  and  O1_5 
REMARK    2  A    between atoms: C7_9  and  C8_10 
REMARK    3  A    between atoms: C8_10  and  C9_12 
REMARK    4  A    between atoms: C9_12  and  P1_13 
REMARK    5  A    between atoms: C11_15  and  O4_16 
ROOT
HETATM    1  C1  UNL     1      21.830   0.577  53.472  1.00  0.00     0.044 C 
HETATM    2  C2  UNL     1      23.166   0.056  53.031  1.00  0.00     0.146 C 
HETATM    3  C3  UNL     1      23.777  -0.648  54.170  1.00  0.00     0.041 C 
HETATM    4  C4  UNL     1      24.921  -0.714  54.873  1.00  0.00     0.066 C 
HETATM    5  C5  UNL     1      26.193   0.026  54.721  1.00  0.00     0.060 C 
HETATM    6  C6  UNL     1      26.494   1.161  54.066  1.00  0.00     0.141 C 
HETATM    7  O2  UNL     1      25.696   2.012  53.313  1.00  0.00    -0.325 OA
HETATM    8  C7  UNL     1      24.307   2.091  53.039  1.00  0.00     0.336 C 
HETATM    9  O5  UNL     1      23.964   0.945  52.373  1.00  0.00    -0.345 OA
ENDROOT
BRANCH   8  10
HETATM   10  C8  UNL     1      24.121   3.342  52.257  1.00  0.00     0.186 C 
HETATM   11  O3  UNL     1      24.182   3.717  53.413  1.00  0.00    -0.292 OA
BRANCH  10  12
HETATM   12  C9  UNL     1      24.038   2.956  50.820  1.00  0.00     0.122 C 
BRANCH  12  13
HETATM   13  P1  UNL     1      23.890   4.511  49.860  1.00  0.00    -0.081 P 
HETATM   14  C10 UNL     1      25.280   5.660  50.096  1.00  0.00     0.044 A 
HETATM   15  C11 UNL     1      25.292   6.917  50.507  1.00  0.00     0.066 A 
HETATM   16  C12 UNL     1      23.998   7.506  50.832  1.00  0.00     0.033 A 
HETATM   17  C13 UNL     1      22.854   6.853  50.734  1.00  0.00    -0.019 A 
HETATM   18  C14 UNL     1      22.390   5.500  50.336  1.00  0.00     0.066 A 
BRANCH  15  19
HETATM   19  O4  UNL     1      26.417   7.736  50.661  1.00  0.00    -0.361 OA
HETATM   20  H13 UNL     1      27.342   7.384  50.846  1.00  0.00     0.217 HD
ENDBRANCH  15  19
ENDBRANCH  12  13
ENDBRANCH  10  12
ENDBRANCH   8  10
BRANCH   4  21
HETATM   21  O1  UNL     1      24.918  -1.643  55.932  1.00  0.00    -0.361 OA
HETATM   22  H6  UNL     1      24.015  -2.101  56.080  1.00  0.00     0.217 HD
ENDBRANCH   4  21
TORSDOF 5
ENDMDL
MODEL 8
REMARK VINA RESULT:      -7.3      3.156      5.646
REMARK  5 active torsions:
REMARK  status: ('A' for Active; 'I' for Inactive)
REMARK    1  A    between atoms: C4_4  and  O1_5 
REMARK    2  A    between atoms: C7_9  and  C8_10 
REMARK    3  A    between atoms: C8_10  and  C9_12 
REMARK    4  A    between atoms: C9_12  and  P1_13 
REMARK    5  A    between atoms: C11_15  and  O4_16 
ROOT
HETATM    1  C1  UNL     1      25.529  -0.277  52.578  1.00  0.00     0.044 C 
HETATM    2  C2  UNL     1      24.666   0.412  53.592  1.00  0.00     0.146 C 
HETATM    3  C3  UNL     1      24.087  -0.618  54.471  1.00  0.00     0.041 C 
HETATM    4  C4  UNL     1      22.911  -1.023  54.980  1.00  0.00     0.066 C 
HETATM    5  C5  UNL     1      21.546  -0.482  54.810  1.00  0.00     0.060 C 
HETATM    6  C6  UNL     1      21.022   0.353  53.895  1.00  0.00     0.141 C 
HETATM    7  O2  UNL     1      21.607   0.983  52.804  1.00  0.00    -0.325 OA
HETATM    8  C7  UNL     1      22.878   0.917  52.180  1.00  0.00     0.336 C 
HETATM    9  O5  UNL     1      23.798   1.342  53.101  1.00  0.00    -0.345 OA
ENDROOT
BRANCH   8  10
HETATM   10  C8  UNL     1      22.776   1.770  50.966  1.00  0.00     0.186 C 
HETATM   11  O3  UNL     1      22.069   0.811  50.719  1.00  0.00    -0.292 OA
BRANCH  10  12
HETATM   12  C9  UNL     1      23.624   2.973  51.200  1.00  0.00     0.122 C 
BRANCH  12  13
HETATM   13  P1  UNL     1      24.303   3.468  49.569  1.00  0.00    -0.081 P 
HETATM   14  C10 UNL     1      26.106   3.710  49.563  1.00  0.00     0.044 A 
HETATM   15  C11 UNL     1      26.826   4.767  49.229  1.00  0.00     0.066 A 
HETATM   16  C12 UNL     1      26.087   5.944  48.790  1.00  0.00     0.033 A 
HETATM   17  C13 UNL     1      24.768   5.993  48.715  1.00  0.00    -0.019 A 
HETATM   18  C14 UNL     1      23.619   5.091  48.977  1.00  0.00     0.066 A 
BRANCH  15  19
HETATM   19  O4  UNL     1      28.223   4.869  49.254  1.00  0.00    -0.361 OA
HETATM   20  H13 UNL     1      28.793   4.533  50.011  1.00  0.00     0.217 HD
ENDBRANCH  15  19
ENDBRANCH  12  13
ENDBRANCH  10  12
ENDBRANCH   8  10
BRANCH   4  21
HETATM   21  O1  UNL     1      22.982  -2.152  55.820  1.00  0.00    -0.361 OA
HETATM   22  H6  UNL     1      22.165  -2.272  56.425  1.00  0.00     0.217 HD
ENDBRANCH   4  21
TORSDOF 5
ENDMDL
MODEL 9
REMARK VINA RESULT:      -7.3      9.266     12.264
REMARK  5 active torsions:
REMARK  status: ('A' for Active; 'I' for Inactive)
REMARK    1  A    between atoms: C4_4  and  O1_5 
REMARK    2  A    between atoms: C7_9  and  C8_10 
REMARK    3  A    between atoms: C8_10  and  C9_12 
REMARK    4  A    between atoms: C9_12  and  P1_13 
REMARK    5  A    between atoms: C11_15  and  O4_16 
ROOT
HETATM    1  C1  UNL     1      35.091   6.862  48.323  1.00  0.00     0.044 C 
HETATM    2  C2  UNL     1      34.595   5.476  48.611  1.00  0.00     0.146 C 
HETATM    3  C3  UNL     1      35.001   4.607  47.494  1.00  0.00     0.041 C 
HETATM    4  C4  UNL     1      34.505   3.702  46.634  1.00  0.00     0.066 C 
HETATM    5  C5  UNL     1      33.135   3.164  46.480  1.00  0.00     0.060 C 
HETATM    6  C6  UNL     1      31.945   3.609  46.920  1.00  0.00     0.141 C 
HETATM    7  O2  UNL     1      31.618   4.732  47.670  1.00  0.00    -0.325 OA
HETATM    8  C7  UNL     1      32.340   5.854  48.148  1.00  0.00     0.336 C 
HETATM    9  O5  UNL     1      33.294   5.380  49.008  1.00  0.00    -0.345 OA
ENDROOT
BRANCH   8  10
HETATM   10  C8  UNL     1      31.329   6.746  48.774  1.00  0.00     0.186 C 
HETATM   11  O3  UNL     1      31.189   5.684  49.350  1.00  0.00    -0.292 OA
BRANCH  10  12
HETATM   12  C9  UNL     1      31.444   8.076  48.111  1.00  0.00     0.122 C 
BRANCH  12  13
HETATM   13  P1  UNL     1      29.734   8.676  47.824  1.00  0.00    -0.081 P 
HETATM   14  C10 UNL     1      28.967   9.443  49.284  1.00  0.00     0.044 A 
HETATM   15  C11 UNL     1      27.845   9.145  49.917  1.00  0.00     0.066 A 
HETATM   16  C12 UNL     1      27.076   8.027  49.384  1.00  0.00     0.033 A 
HETATM   17  C13 UNL     1      27.445   7.324  48.328  1.00  0.00    -0.019 A 
HETATM   18  C14 UNL     1      28.568   7.306  47.358  1.00  0.00     0.066 A 
BRANCH  15  19
HETATM   19  O4  UNL     1      27.323   9.793  51.044  1.00  0.00    -0.361 OA
HETATM   20  H13 UNL     1      27.768   9.789  51.946  1.00  0.00     0.217 HD
ENDBRANCH  15  19
ENDBRANCH  12  13
ENDBRANCH  10  12
ENDBRANCH   8  10
BRANCH   4  21
HETATM   21  O1  UNL     1      35.438   3.170  45.723  1.00  0.00    -0.361 OA
HETATM   22  H6  UNL     1      36.411   3.390  45.949  1.00  0.00     0.217 HD
ENDBRANCH   4  21
TORSDOF 5
ENDMDL
