MODEL 1
REMARK VINA RESULT:      -8.8      0.000      0.000
REMARK  4 active torsions:
REMARK  status: ('A' for Active; 'I' for Inactive)
REMARK    1  A    between atoms: C3_3  and  C4_4 
REMARK       I    between atoms: C4_4  and  N1_6 
REMARK    2  A    between atoms: N1_6  and  P1_7 
REMARK    3  A    between atoms: C10_16  and  N5_17 
REMARK    4  A    between atoms: N5_17  and  C11_18 
ROOT
HETATM    1  C1  UNL     1      26.638   9.572  50.032  1.00  0.00     0.112 C 
HETATM    2  C2  UNL     1      26.330   8.136  49.871  1.00  0.00    -0.101 C 
HETATM    3  C3  UNL     1      26.086   6.960  49.755  1.00  0.00    -0.006 C 
ENDROOT
BRANCH   3   4
HETATM    4  C4  UNL     1      25.818   5.555  49.610  1.00  0.00     0.299 C 
HETATM    5  O1  UNL     1      26.679   4.882  48.981  1.00  0.00    -0.258 OA
HETATM    6  N1  UNL     1      24.647   4.949  50.145  1.00  0.00    -0.325 N 
HETATM    7  H4  UNL     1      23.966   5.541  50.656  1.00  0.00     0.168 HD
BRANCH   6   8
HETATM    8  P1  UNL     1      24.508   3.232  49.861  1.00  0.00    -0.004 P 
HETATM    9  C5  UNL     1      23.140   2.824  49.104  1.00  0.00     0.142 A 
HETATM   10  N2  UNL     1      22.238   1.899  49.681  1.00  0.00    -0.239 NA
HETATM   11  C6  UNL     1      22.378   1.301  50.806  1.00  0.00     0.161 A 
HETATM   12  N3  UNL     1      21.385   0.463  51.147  1.00  0.00    -0.239 NA
HETATM   13  C17 UNL     1      23.477   1.513  51.601  1.00  0.00     0.042 A 
HETATM   14  C7  UNL     1      21.384  -0.239  52.293  1.00  0.00     0.144 A 
HETATM   15  C8  UNL     1      22.450  -0.089  53.157  1.00  0.00     0.089 A 
HETATM   16  C9  UNL     1      22.477  -0.819  54.381  1.00  0.00     0.103 C 
HETATM   17  C10 UNL     1      23.445   0.780  52.768  1.00  0.00     0.069 A 
HETATM   18  N4  UNL     1      22.515  -1.412  55.380  1.00  0.00    -0.191 NA
HETATM   19  C18 UNL     1      24.510   2.303  51.382  1.00  0.00     0.042 A 
HETATM   20  H5  UNL     1      25.568   2.786  49.020  1.00  0.00     0.084 HD
BRANCH  17  21
HETATM   21  N5  UNL     1      24.525   0.886  53.716  1.00  0.00    -0.354 N 
HETATM   22  H8  UNL     1      24.244   1.451  54.544  1.00  0.00     0.166 HD
BRANCH  21  23
HETATM   23  C11 UNL     1      25.782   0.298  53.528  1.00  0.00     0.034 A 
HETATM   24  C12 UNL     1      25.854  -0.914  52.874  1.00  0.00     0.032 A 
HETATM   25  C13 UNL     1      27.129  -1.449  52.717  1.00  0.00     0.046 A 
HETATM   26  C14 UNL     1      28.240  -0.775  53.201  1.00  0.00     0.138 A 
HETATM   27  F1  UNL     1      29.492  -1.257  53.070  1.00  0.00    -0.204 F 
HETATM   28  C15 UNL     1      28.129   0.447  53.857  1.00  0.00     0.074 A 
HETATM   29 CL1  UNL     1      29.517   1.304  54.471  1.00  0.00    -0.081 Cl
HETATM   30  C16 UNL     1      26.871   0.989  54.019  1.00  0.00     0.056 A 
ENDBRANCH  21  23
ENDBRANCH  17  21
ENDBRANCH   6   8
ENDBRANCH   3   4
TORSDOF 4
ENDMDL
MODEL 2
REMARK VINA RESULT:      -7.6      3.342      6.673
REMARK  4 active torsions:
REMARK  status: ('A' for Active; 'I' for Inactive)
REMARK    1  A    between atoms: C3_3  and  C4_4 
REMARK       I    between atoms: C4_4  and  N1_6 
REMARK    2  A    between atoms: N1_6  and  P1_7 
REMARK    3  A    between atoms: C10_16  and  N5_17 
REMARK    4  A    between atoms: N5_17  and  C11_18 
ROOT
HETATM    1  C1  UNL     1      17.012  -4.373  53.915  1.00  0.00     0.112 C 
HETATM    2  C2  UNL     1      17.489  -3.037  53.503  1.00  0.00    -0.101 C 
HETATM    3  C3  UNL     1      17.890  -1.946  53.179  1.00  0.00    -0.006 C 
ENDROOT
BRANCH   3   4
HETATM    4  C4  UNL     1      18.356  -0.637  52.811  1.00  0.00     0.299 C 
HETATM    5  O1  UNL     1      17.471   0.200  52.481  1.00  0.00    -0.258 OA
HETATM    6  N1  UNL     1      19.736  -0.296  52.817  1.00  0.00    -0.325 N 
HETATM    7  H4  UNL     1      20.429  -1.015  53.097  1.00  0.00     0.168 HD
BRANCH   6   8
HETATM    8  P1  UNL     1      20.094   1.345  52.338  1.00  0.00    -0.004 P 
HETATM    9  C5  UNL     1      19.692   1.658  50.804  1.00  0.00     0.142 A 
HETATM   10  N2  UNL     1      20.658   2.123  49.881  1.00  0.00    -0.239 NA
HETATM   11  C6  UNL     1      21.897   2.342  50.121  1.00  0.00     0.161 A 
HETATM   12  N3  UNL     1      22.623   2.782  49.080  1.00  0.00    -0.239 NA
HETATM   13  C17 UNL     1      22.434   2.136  51.367  1.00  0.00     0.042 A 
HETATM   14  C7  UNL     1      23.936   3.058  49.171  1.00  0.00     0.144 A 
HETATM   15  C8  UNL     1      24.562   2.881  50.387  1.00  0.00     0.089 A 
HETATM   16  C9  UNL     1      25.954   3.164  50.515  1.00  0.00     0.103 C 
HETATM   17  C10 UNL     1      23.780   2.428  51.427  1.00  0.00     0.069 A 
HETATM   18  N4  UNL     1      27.086   3.396  50.635  1.00  0.00    -0.191 NA
HETATM   19  C18 UNL     1      21.834   1.710  52.462  1.00  0.00     0.042 A 
HETATM   20  H5  UNL     1      19.348   2.262  53.133  1.00  0.00     0.084 HD
BRANCH  17  21
HETATM   21  N5  UNL     1      24.500   2.265  52.665  1.00  0.00    -0.354 N 
HETATM   22  H8  UNL     1      24.188   2.959  53.375  1.00  0.00     0.166 HD
BRANCH  21  23
HETATM   23  C11 UNL     1      25.487   1.292  52.865  1.00  0.00     0.034 A 
HETATM   24  C12 UNL     1      25.262   0.015  52.396  1.00  0.00     0.032 A 
HETATM   25  C13 UNL     1      26.279  -0.908  52.624  1.00  0.00     0.046 A 
HETATM   26  C14 UNL     1      27.437  -0.530  53.286  1.00  0.00     0.138 A 
HETATM   27  F1  UNL     1      28.446  -1.391  53.527  1.00  0.00    -0.204 F 
HETATM   28  C15 UNL     1      27.630   0.770  53.745  1.00  0.00     0.074 A 
HETATM   29 CL1  UNL     1      29.081   1.258  54.578  1.00  0.00    -0.081 Cl
HETATM   30  C16 UNL     1      26.630   1.694  53.526  1.00  0.00     0.056 A 
ENDBRANCH  21  23
ENDBRANCH  17  21
ENDBRANCH   6   8
ENDBRANCH   3   4
TORSDOF 4
ENDMDL
MODEL 3
REMARK VINA RESULT:      -7.6      4.041      5.621
REMARK  4 active torsions:
REMARK  status: ('A' for Active; 'I' for Inactive)
REMARK    1  A    between atoms: C3_3  and  C4_4 
REMARK       I    between atoms: C4_4  and  N1_6 
REMARK    2  A    between atoms: N1_6  and  P1_7 
REMARK    3  A    between atoms: C10_16  and  N5_17 
REMARK    4  A    between atoms: N5_17  and  C11_18 
ROOT
HETATM    1  C1  UNL     1      21.733   6.017  45.487  1.00  0.00     0.112 C 
HETATM    2  C2  UNL     1      22.401   5.651  46.753  1.00  0.00    -0.101 C 
HETATM    3  C3  UNL     1      22.936   5.338  47.788  1.00  0.00    -0.006 C 
ENDROOT
BRANCH   3   4
HETATM    4  C4  UNL     1      23.555   4.973  49.033  1.00  0.00     0.299 C 
HETATM    5  O1  UNL     1      23.210   5.641  50.046  1.00  0.00    -0.258 OA
HETATM    6  N1  UNL     1      24.504   3.919  49.126  1.00  0.00    -0.325 N 
HETATM    7  H4  UNL     1      24.757   3.395  48.267  1.00  0.00     0.168 HD
BRANCH   6   8
HETATM    8  P1  UNL     1      25.138   3.634  50.729  1.00  0.00    -0.004 P 
HETATM    9  C5  UNL     1      26.497   2.759  50.725  1.00  0.00     0.142 A 
HETATM   10  N2  UNL     1      26.579   1.543  51.445  1.00  0.00    -0.239 NA
HETATM   11  C6  UNL     1      25.650   1.010  52.148  1.00  0.00     0.161 A 
HETATM   12  N3  UNL     1      25.963  -0.153  52.741  1.00  0.00    -0.239 NA
HETATM   13  C17 UNL     1      24.417   1.602  52.276  1.00  0.00     0.042 A 
HETATM   14  C7  UNL     1      25.098  -0.835  53.512  1.00  0.00     0.144 A 
HETATM   15  C8  UNL     1      23.833  -0.316  53.699  1.00  0.00     0.089 A 
HETATM   16  C9  UNL     1      22.893  -1.016  54.510  1.00  0.00     0.103 C 
HETATM   17  C10 UNL     1      23.555   0.879  53.072  1.00  0.00     0.069 A 
HETATM   18  N4  UNL     1      22.118  -1.573  55.173  1.00  0.00    -0.191 NA
HETATM   19  C18 UNL     1      23.989   2.733  51.749  1.00  0.00     0.042 A 
HETATM   20  H5  UNL     1      25.472   4.872  51.350  1.00  0.00     0.084 HD
BRANCH  17  21
HETATM   21  N5  UNL     1      22.218   1.361  53.311  1.00  0.00    -0.354 N 
HETATM   22  H8  UNL     1      22.113   1.713  54.284  1.00  0.00     0.166 HD
BRANCH  21  23
HETATM   23  C11 UNL     1      21.206   1.348  52.342  1.00  0.00     0.034 A 
HETATM   24  C12 UNL     1      21.196   0.333  51.409  1.00  0.00     0.032 A 
HETATM   25  C13 UNL     1      20.166   0.373  50.473  1.00  0.00     0.046 A 
HETATM   26  C14 UNL     1      19.223   1.388  50.508  1.00  0.00     0.138 A 
HETATM   27  F1  UNL     1      18.211   1.464  49.621  1.00  0.00    -0.204 F 
HETATM   28  C15 UNL     1      19.265   2.398  51.465  1.00  0.00     0.074 A 
HETATM   29 CL1  UNL     1      18.085   3.680  51.519  1.00  0.00    -0.081 Cl
HETATM   30  C16 UNL     1      20.280   2.370  52.399  1.00  0.00     0.056 A 
ENDBRANCH  21  23
ENDBRANCH  17  21
ENDBRANCH   6   8
ENDBRANCH   3   4
TORSDOF 4
ENDMDL
MODEL 4
REMARK VINA RESULT:      -7.4      7.103     10.119
REMARK  4 active torsions:
REMARK  status: ('A' for Active; 'I' for Inactive)
REMARK    1  A    between atoms: C3_3  and  C4_4 
REMARK       I    between atoms: C4_4  and  N1_6 
REMARK    2  A    between atoms: N1_6  and  P1_7 
REMARK    3  A    between atoms: C10_16  and  N5_17 
REMARK    4  A    between atoms: N5_17  and  C11_18 
ROOT
HETATM    1  C1  UNL     1      32.308  -0.485  47.085  1.00  0.00     0.112 C 
HETATM    2  C2  UNL     1      32.292   0.976  46.865  1.00  0.00    -0.101 C 
HETATM    3  C3  UNL     1      32.288   2.171  46.701  1.00  0.00    -0.006 C 
ENDROOT
BRANCH   3   4
HETATM    4  C4  UNL     1      32.266   3.597  46.521  1.00  0.00     0.299 C 
HETATM    5  O1  UNL     1      32.765   4.034  45.448  1.00  0.00    -0.258 OA
HETATM    6  N1  UNL     1      31.713   4.474  47.494  1.00  0.00    -0.325 N 
HETATM    7  H4  UNL     1      31.313   4.071  48.362  1.00  0.00     0.168 HD
BRANCH   6   8
HETATM    8  P1  UNL     1      31.784   6.171  47.085  1.00  0.00    -0.004 P 
HETATM    9  C5  UNL     1      32.737   7.021  48.075  1.00  0.00     0.142 A 
HETATM   10  N2  UNL     1      32.232   8.129  48.795  1.00  0.00    -0.239 NA
HETATM   11  C6  UNL     1      31.032   8.577  48.761  1.00  0.00     0.161 A 
HETATM   12  N3  UNL     1      30.786   9.646  49.535  1.00  0.00    -0.239 NA
HETATM   13  C17 UNL     1      30.069   7.990  47.977  1.00  0.00     0.042 A 
HETATM   14  C7  UNL     1      29.579  10.233  49.608  1.00  0.00     0.144 A 
HETATM   15  C8  UNL     1      28.548   9.710  48.854  1.00  0.00     0.089 A 
HETATM   16  C9  UNL     1      27.255  10.309  48.910  1.00  0.00     0.103 C 
HETATM   17  C10 UNL     1      28.844   8.614  48.074  1.00  0.00     0.069 A 
HETATM   18  N4  UNL     1      26.198  10.791  48.943  1.00  0.00    -0.191 NA
HETATM   19  C18 UNL     1      30.182   6.945  47.180  1.00  0.00     0.042 A 
HETATM   20  H5  UNL     1      32.327   6.338  45.779  1.00  0.00     0.084 HD
BRANCH  17  21
HETATM   21  N5  UNL     1      27.722   8.122  47.316  1.00  0.00    -0.354 N 
HETATM   22  H8  UNL     1      27.737   8.488  46.341  1.00  0.00     0.166 HD
BRANCH  21  23
HETATM   23  C11 UNL     1      26.747   7.264  47.841  1.00  0.00     0.034 A 
HETATM   24  C12 UNL     1      25.418   7.594  47.679  1.00  0.00     0.032 A 
HETATM   25  C13 UNL     1      24.497   6.703  48.223  1.00  0.00     0.046 A 
HETATM   26  C14 UNL     1      24.926   5.562  48.882  1.00  0.00     0.138 A 
HETATM   27  F1  UNL     1      24.068   4.674  49.422  1.00  0.00    -0.204 F 
HETATM   28  C15 UNL     1      26.277   5.261  49.027  1.00  0.00     0.074 A 
HETATM   29 CL1  UNL     1      26.829   3.829  49.853  1.00  0.00    -0.081 Cl
HETATM   30  C16 UNL     1      27.201   6.135  48.492  1.00  0.00     0.056 A 
ENDBRANCH  21  23
ENDBRANCH  17  21
ENDBRANCH   6   8
ENDBRANCH   3   4
TORSDOF 4
ENDMDL
MODEL 5
REMARK VINA RESULT:      -7.3      4.334      6.145
REMARK  4 active torsions:
REMARK  status: ('A' for Active; 'I' for Inactive)
REMARK    1  A    between atoms: C3_3  and  C4_4 
REMARK       I    between atoms: C4_4  and  N1_6 
REMARK    2  A    between atoms: N1_6  and  P1_7 
REMARK    3  A    between atoms: C10_16  and  N5_17 
REMARK    4  A    between atoms: N5_17  and  C11_18 
ROOT
HETATM    1  C1  UNL     1      21.255   3.888  44.957  1.00  0.00     0.112 C 
HETATM    2  C2  UNL     1      21.812   3.727  46.316  1.00  0.00    -0.101 C 
HETATM    3  C3  UNL     1      22.269   3.614  47.426  1.00  0.00    -0.006 C 
ENDROOT
BRANCH   3   4
HETATM    4  C4  UNL     1      22.835   3.481  48.741  1.00  0.00     0.299 C 
HETATM    5  O1  UNL     1      23.128   2.311  49.109  1.00  0.00    -0.258 OA
HETATM    6  N1  UNL     1      23.056   4.603  49.586  1.00  0.00    -0.325 N 
HETATM    7  H4  UNL     1      22.801   5.548  49.242  1.00  0.00     0.168 HD
BRANCH   6   8
HETATM    8  P1  UNL     1      23.753   4.230  51.144  1.00  0.00    -0.004 P 
HETATM    9  C5  UNL     1      25.242   3.611  51.039  1.00  0.00     0.142 A 
HETATM   10  N2  UNL     1      25.543   2.346  51.597  1.00  0.00    -0.239 NA
HETATM   11  C6  UNL     1      24.730   1.575  52.218  1.00  0.00     0.161 A 
HETATM   12  N3  UNL     1      25.247   0.417  52.660  1.00  0.00    -0.239 NA
HETATM   13  C17 UNL     1      23.416   1.923  52.411  1.00  0.00     0.042 A 
HETATM   14  C7  UNL     1      24.524  -0.498  53.329  1.00  0.00     0.144 A 
HETATM   15  C8  UNL     1      23.192  -0.234  53.571  1.00  0.00     0.089 A 
HETATM   16  C9  UNL     1      22.398  -1.184  54.277  1.00  0.00     0.103 C 
HETATM   17  C10 UNL     1      22.702   0.965  53.100  1.00  0.00     0.069 A 
HETATM   18  N4  UNL     1      21.740  -1.948  54.856  1.00  0.00    -0.191 NA
HETATM   19  C18 UNL     1      22.791   3.020  52.030  1.00  0.00     0.042 A 
HETATM   20  H5  UNL     1      23.876   5.417  51.922  1.00  0.00     0.084 HD
BRANCH  17  21
HETATM   21  N5  UNL     1      21.306   1.174  53.387  1.00  0.00    -0.354 N 
HETATM   22  H8  UNL     1      21.178   1.669  54.293  1.00  0.00     0.166 HD
BRANCH  21  23
HETATM   23  C11 UNL     1      20.270   0.756  52.541  1.00  0.00     0.034 A 
HETATM   24  C12 UNL     1      20.253   1.213  51.240  1.00  0.00     0.032 A 
HETATM   25  C13 UNL     1      19.200   0.763  50.449  1.00  0.00     0.046 A 
HETATM   26  C14 UNL     1      18.243  -0.093  50.970  1.00  0.00     0.138 A 
HETATM   27  F1  UNL     1      17.208  -0.552  50.238  1.00  0.00    -0.204 F 
HETATM   28  C15 UNL     1      18.292  -0.534  52.290  1.00  0.00     0.074 A 
HETATM   29 CL1  UNL     1      17.095  -1.611  52.957  1.00  0.00    -0.081 Cl
HETATM   30  C16 UNL     1      19.331  -0.096  53.085  1.00  0.00     0.056 A 
ENDBRANCH  21  23
ENDBRANCH  17  21
ENDBRANCH   6   8
ENDBRANCH   3   4
TORSDOF 4
ENDMDL
MODEL 6
REMARK VINA RESULT:      -6.9      7.126     11.307
REMARK  4 active torsions:
REMARK  status: ('A' for Active; 'I' for Inactive)
REMARK    1  A    between atoms: C3_3  and  C4_4 
REMARK       I    between atoms: C4_4  and  N1_6 
REMARK    2  A    between atoms: N1_6  and  P1_7 
REMARK    3  A    between atoms: C10_16  and  N5_17 
REMARK    4  A    between atoms: N5_17  and  C11_18 
ROOT
HETATM    1  C1  UNL     1      26.294   3.219  49.298  1.00  0.00     0.112 C 
HETATM    2  C2  UNL     1      26.887   4.544  49.024  1.00  0.00    -0.101 C 
HETATM    3  C3  UNL     1      27.362   5.627  48.785  1.00  0.00    -0.006 C 
ENDROOT
BRANCH   3   4
HETATM    4  C4  UNL     1      27.943   6.907  48.484  1.00  0.00     0.299 C 
HETATM    5  O1  UNL     1      28.309   7.090  47.291  1.00  0.00    -0.258 OA
HETATM    6  N1  UNL     1      28.099   7.917  49.472  1.00  0.00    -0.325 N 
HETATM    7  H4  UNL     1      27.784   7.724  50.441  1.00  0.00     0.168 HD
BRANCH   6   8
HETATM    8  P1  UNL     1      28.826   9.400  48.905  1.00  0.00    -0.004 P 
HETATM    9  C5  UNL     1      28.171   9.941  47.530  1.00  0.00     0.142 A 
HETATM   10  N2  UNL     1      28.968  10.156  46.381  1.00  0.00    -0.239 NA
HETATM   11  C6  UNL     1      30.231   9.964  46.284  1.00  0.00     0.161 A 
HETATM   12  N3  UNL     1      30.771  10.239  45.086  1.00  0.00    -0.239 NA
HETATM   13  C17 UNL     1      30.971   9.506  47.345  1.00  0.00     0.042 A 
HETATM   14  C7  UNL     1      32.082  10.090  44.824  1.00  0.00     0.144 A 
HETATM   15  C8  UNL     1      32.905   9.634  45.833  1.00  0.00     0.089 A 
HETATM   16  C9  UNL     1      34.300   9.465  45.587  1.00  0.00     0.103 C 
HETATM   17  C10 UNL     1      32.309   9.364  47.045  1.00  0.00     0.069 A 
HETATM   18  N4  UNL     1      35.438   9.327  45.402  1.00  0.00    -0.191 NA
HETATM   19  C18 UNL     1      30.564   9.202  48.562  1.00  0.00     0.042 A 
HETATM   20  H5  UNL     1      28.636  10.437  49.863  1.00  0.00     0.084 HD
BRANCH  17  21
HETATM   21  N5  UNL     1      33.228   8.892  48.050  1.00  0.00    -0.354 N 
HETATM   22  H8  UNL     1      33.496   9.656  48.704  1.00  0.00     0.166 HD
BRANCH  21  23
HETATM   23  C11 UNL     1      33.688   7.571  48.120  1.00  0.00     0.034 A 
HETATM   24  C12 UNL     1      34.952   7.336  48.618  1.00  0.00     0.032 A 
HETATM   25  C13 UNL     1      35.354   6.004  48.662  1.00  0.00     0.046 A 
HETATM   26  C14 UNL     1      34.506   4.999  48.223  1.00  0.00     0.138 A 
HETATM   27  F1  UNL     1      34.855   3.697  48.248  1.00  0.00    -0.204 F 
HETATM   28  C15 UNL     1      33.236   5.274  47.725  1.00  0.00     0.074 A 
HETATM   29 CL1  UNL     1      32.161   4.018  47.171  1.00  0.00    -0.081 Cl
HETATM   30  C16 UNL     1      32.825   6.590  47.677  1.00  0.00     0.056 A 
ENDBRANCH  21  23
ENDBRANCH  17  21
ENDBRANCH   6   8
ENDBRANCH   3   4
TORSDOF 4
ENDMDL
MODEL 7
REMARK VINA RESULT:      -6.9      4.946      7.300
REMARK  4 active torsions:
REMARK  status: ('A' for Active; 'I' for Inactive)
REMARK    1  A    between atoms: C3_3  and  C4_4 
REMARK       I    between atoms: C4_4  and  N1_6 
REMARK    2  A    between atoms: N1_6  and  P1_7 
REMARK    3  A    between atoms: C10_16  and  N5_17 
REMARK    4  A    between atoms: N5_17  and  C11_18 
ROOT
HETATM    1  C1  UNL     1      13.834   4.708  49.847  1.00  0.00     0.112 C 
HETATM    2  C2  UNL     1      14.762   3.569  50.003  1.00  0.00    -0.101 C 
HETATM    3  C3  UNL     1      15.524   2.645  50.146  1.00  0.00    -0.006 C 
ENDROOT
BRANCH   3   4
HETATM    4  C4  UNL     1      16.451   1.558  50.312  1.00  0.00     0.299 C 
HETATM    5  O1  UNL     1      16.557   0.760  49.340  1.00  0.00    -0.258 OA
HETATM    6  N1  UNL     1      17.209   1.385  51.502  1.00  0.00    -0.325 N 
HETATM    7  H4  UNL     1      17.090   2.066  52.276  1.00  0.00     0.168 HD
BRANCH   6   8
HETATM    8  P1  UNL     1      18.277   0.003  51.504  1.00  0.00    -0.004 P 
HETATM    9  C5  UNL     1      18.193  -0.860  52.868  1.00  0.00     0.142 A 
HETATM   10  N2  UNL     1      19.347  -1.089  53.654  1.00  0.00    -0.239 NA
HETATM   11  C6  UNL     1      20.533  -0.672  53.406  1.00  0.00     0.161 A 
HETATM   12  N3  UNL     1      21.471  -1.017  54.302  1.00  0.00    -0.239 NA
HETATM   13  C17 UNL     1      20.811   0.080  52.291  1.00  0.00     0.042 A 
HETATM   14  C7  UNL     1      22.761  -0.657  54.184  1.00  0.00     0.144 A 
HETATM   15  C8  UNL     1      23.135   0.101  53.093  1.00  0.00     0.089 A 
HETATM   16  C9  UNL     1      24.495   0.499  52.939  1.00  0.00     0.103 C 
HETATM   17  C10 UNL     1      22.140   0.432  52.199  1.00  0.00     0.069 A 
HETATM   18  N4  UNL     1      25.601   0.826  52.799  1.00  0.00    -0.191 NA
HETATM   19  C18 UNL     1      19.986   0.482  51.344  1.00  0.00     0.042 A 
HETATM   20  H5  UNL     1      17.923  -0.891  50.452  1.00  0.00     0.084 HD
BRANCH  17  21
HETATM   21  N5  UNL     1      22.601   1.223  51.086  1.00  0.00    -0.354 N 
HETATM   22  H8  UNL     1      22.769   0.631  50.247  1.00  0.00     0.166 HD
BRANCH  21  23
HETATM   23  C11 UNL     1      22.793   2.610  51.148  1.00  0.00     0.034 A 
HETATM   24  C12 UNL     1      22.193   3.315  52.170  1.00  0.00     0.032 A 
HETATM   25  C13 UNL     1      22.419   4.689  52.179  1.00  0.00     0.046 A 
HETATM   26  C14 UNL     1      23.206   5.279  51.203  1.00  0.00     0.138 A 
HETATM   27  F1  UNL     1      23.451   6.604  51.175  1.00  0.00    -0.204 F 
HETATM   28  C15 UNL     1      23.796   4.534  50.185  1.00  0.00     0.074 A 
HETATM   29 CL1  UNL     1      24.788   5.265  48.952  1.00  0.00    -0.081 Cl
HETATM   30  C16 UNL     1      23.580   3.172  50.165  1.00  0.00     0.056 A 
ENDBRANCH  21  23
ENDBRANCH  17  21
ENDBRANCH   6   8
ENDBRANCH   3   4
TORSDOF 4
ENDMDL
MODEL 8
REMARK VINA RESULT:      -6.9      3.904      8.183
REMARK  4 active torsions:
REMARK  status: ('A' for Active; 'I' for Inactive)
REMARK    1  A    between atoms: C3_3  and  C4_4 
REMARK       I    between atoms: C4_4  and  N1_6 
REMARK    2  A    between atoms: N1_6  and  P1_7 
REMARK    3  A    between atoms: C10_16  and  N5_17 
REMARK    4  A    between atoms: N5_17  and  C11_18 
ROOT
HETATM    1  C1  UNL     1      27.677  -0.762  53.139  1.00  0.00     0.112 C 
HETATM    2  C2  UNL     1      26.787   0.365  52.794  1.00  0.00    -0.101 C 
HETATM    3  C3  UNL     1      26.047   1.274  52.508  1.00  0.00    -0.006 C 
ENDROOT
BRANCH   3   4
HETATM    4  C4  UNL     1      25.169   2.353  52.144  1.00  0.00     0.299 C 
HETATM    5  O1  UNL     1      24.625   2.977  53.095  1.00  0.00    -0.258 OA
HETATM    6  N1  UNL     1      24.924   2.703  50.788  1.00  0.00    -0.325 N 
HETATM    7  H4  UNL     1      25.393   2.163  50.037  1.00  0.00     0.168 HD
BRANCH   6   8
HETATM    8  P1  UNL     1      23.827   4.043  50.558  1.00  0.00    -0.004 P 
HETATM    9  C5  UNL     1      22.688   3.746  49.450  1.00  0.00     0.142 A 
HETATM   10  N2  UNL     1      22.537   4.585  48.322  1.00  0.00    -0.239 NA
HETATM   11  C6  UNL     1      23.235   5.623  48.045  1.00  0.00     0.161 A 
HETATM   12  N3  UNL     1      22.904   6.263  46.912  1.00  0.00    -0.239 NA
HETATM   13  C17 UNL     1      24.253   6.042  48.865  1.00  0.00     0.042 A 
HETATM   14  C7  UNL     1      23.541   7.368  46.485  1.00  0.00     0.144 A 
HETATM   15  C8  UNL     1      24.579   7.863  47.246  1.00  0.00     0.089 A 
HETATM   16  C9  UNL     1      25.275   9.033  46.819  1.00  0.00     0.103 C 
HETATM   17  C10 UNL     1      24.885   7.176  48.400  1.00  0.00     0.069 A 
HETATM   18  N4  UNL     1      25.847   9.988  46.486  1.00  0.00    -0.191 NA
HETATM   19  C18 UNL     1      24.673   5.507  49.995  1.00  0.00     0.042 A 
HETATM   20  H5  UNL     1      23.131   4.321  51.770  1.00  0.00     0.084 HD
BRANCH  17  21
HETATM   21  N5  UNL     1      25.978   7.749  49.144  1.00  0.00    -0.354 N 
HETATM   22  H8  UNL     1      25.632   8.360  49.911  1.00  0.00     0.166 HD
BRANCH  21  23
HETATM   23  C11 UNL     1      27.326   7.501  48.853  1.00  0.00     0.034 A 
HETATM   24  C12 UNL     1      27.671   6.286  48.299  1.00  0.00     0.032 A 
HETATM   25  C13 UNL     1      29.024   6.099  48.033  1.00  0.00     0.046 A 
HETATM   26  C14 UNL     1      29.943   7.096  48.320  1.00  0.00     0.138 A 
HETATM   27  F1  UNL     1      31.262   6.955  48.078  1.00  0.00    -0.204 F 
HETATM   28  C15 UNL     1      29.558   8.311  48.879  1.00  0.00     0.074 A 
HETATM   29 CL1  UNL     1      30.704   9.573  49.244  1.00  0.00    -0.081 Cl
HETATM   30  C16 UNL     1      28.220   8.510  49.148  1.00  0.00     0.056 A 
ENDBRANCH  21  23
ENDBRANCH  17  21
ENDBRANCH   6   8
ENDBRANCH   3   4
TORSDOF 4
ENDMDL
MODEL 9
REMARK VINA RESULT:      -6.9      4.164      7.576
REMARK  4 active torsions:
REMARK  status: ('A' for Active; 'I' for Inactive)
REMARK    1  A    between atoms: C3_3  and  C4_4 
REMARK       I    between atoms: C4_4  and  N1_6 
REMARK    2  A    between atoms: N1_6  and  P1_7 
REMARK    3  A    between atoms: C10_16  and  N5_17 
REMARK    4  A    between atoms: N5_17  and  C11_18 
ROOT
HETATM    1  C1  UNL     1      16.784  -4.840  53.866  1.00  0.00     0.112 C 
HETATM    2  C2  UNL     1      17.002  -3.444  53.435  1.00  0.00    -0.101 C 
HETATM    3  C3  UNL     1      17.163  -2.300  53.088  1.00  0.00    -0.006 C 
ENDROOT
BRANCH   3   4
HETATM    4  C4  UNL     1      17.345  -0.942  52.653  1.00  0.00     0.299 C 
HETATM    5  O1  UNL     1      16.391  -0.148  52.881  1.00  0.00    -0.258 OA
HETATM    6  N1  UNL     1      18.531  -0.508  52.001  1.00  0.00    -0.325 N 
HETATM    7  H4  UNL     1      19.291  -1.195  51.834  1.00  0.00     0.168 HD
BRANCH   6   8
HETATM    8  P1  UNL     1      18.554   1.180  51.552  1.00  0.00    -0.004 P 
HETATM    9  C5  UNL     1      18.215   1.425  49.991  1.00  0.00     0.142 A 
HETATM   10  N2  UNL     1      19.124   2.108  49.149  1.00  0.00    -0.239 NA
HETATM   11  C6  UNL     1      20.261   2.590  49.489  1.00  0.00     0.161 A 
HETATM   12  N3  UNL     1      20.951   3.199  48.511  1.00  0.00    -0.239 NA
HETATM   13  C17 UNL     1      20.731   2.485  50.775  1.00  0.00     0.042 A 
HETATM   14  C7  UNL     1      22.159   3.756  48.707  1.00  0.00     0.144 A 
HETATM   15  C8  UNL     1      22.712   3.698  49.970  1.00  0.00     0.089 A 
HETATM   16  C9  UNL     1      23.991   4.280  50.211  1.00  0.00     0.103 C 
HETATM   17  C10 UNL     1      21.969   3.066  50.944  1.00  0.00     0.069 A 
HETATM   18  N4  UNL     1      25.031   4.753  50.422  1.00  0.00    -0.191 NA
HETATM   19  C18 UNL     1      20.155   1.917  51.817  1.00  0.00     0.042 A 
HETATM   20  H5  UNL     1      17.564   1.895  52.285  1.00  0.00     0.084 HD
BRANCH  17  21
HETATM   21  N5  UNL     1      22.607   3.043  52.236  1.00  0.00    -0.354 N 
HETATM   22  H8  UNL     1      22.443   3.932  52.752  1.00  0.00     0.166 HD
BRANCH  21  23
HETATM   23  C11 UNL     1      23.347   1.954  52.715  1.00  0.00     0.034 A 
HETATM   24  C12 UNL     1      24.721   1.989  52.606  1.00  0.00     0.032 A 
HETATM   25  C13 UNL     1      25.401   0.879  53.100  1.00  0.00     0.046 A 
HETATM   26  C14 UNL     1      24.706  -0.180  53.662  1.00  0.00     0.138 A 
HETATM   27  F1  UNL     1      25.325  -1.272  54.151  1.00  0.00    -0.204 F 
HETATM   28  C15 UNL     1      23.317  -0.180  53.755  1.00  0.00     0.074 A 
HETATM   29 CL1  UNL     1      22.431  -1.506  54.459  1.00  0.00    -0.081 Cl
HETATM   30  C16 UNL     1      22.630   0.914  53.270  1.00  0.00     0.056 A 
ENDBRANCH  21  23
ENDBRANCH  17  21
ENDBRANCH   6   8
ENDBRANCH   3   4
TORSDOF 4
ENDMDL
