MODEL 1
REMARK VINA RESULT:      -7.6      0.000      0.000
REMARK  7 active torsions:
REMARK  status: ('A' for Active; 'I' for Inactive)
REMARK    1  A    between atoms: C2_2  and  C3_3 
REMARK       I    between atoms: C3_3  and  N1_5 
REMARK    2  A    between atoms: N1_5  and  C4_6 
REMARK    3  A    between atoms: N2_8  and  O2_9 
REMARK    4  A    between atoms: O2_9  and  C6_10 
REMARK    5  A    between atoms: C14_21  and  N6_22 
REMARK    6  A    between atoms: N6_22  and  N7_24 
REMARK    7  A    between atoms: N7_24  and  C17_26 
ROOT
HETATM    1  C4  UNL     1      25.174   1.307  52.167  1.00  0.00     0.082 A 
HETATM    2  C5  UNL     1      24.559   1.967  51.126  1.00  0.00     0.155 A 
HETATM    3  N2  UNL     1      25.400   2.851  50.560  1.00  0.00    -0.233 N 
HETATM    4  C13 UNL     1      26.560   2.752  51.246  1.00  0.00     0.156 A 
HETATM    5  C14 UNL     1      26.452   1.815  52.237  1.00  0.00     0.091 A 
ENDROOT
BRANCH   3   6
HETATM    6  O2  UNL     1      25.308   3.746  49.516  1.00  0.00    -0.213 OA
BRANCH   6   7
HETATM    7  C6  UNL     1      25.625   5.069  49.615  1.00  0.00     0.208 A 
HETATM    8  N3  UNL     1      26.675   5.386  48.906  1.00  0.00    -0.141 NA
HETATM    9  N4  UNL     1      27.098   6.716  48.927  1.00  0.00    -0.222 N 
HETATM   10  C7  UNL     1      28.098   7.554  48.389  1.00  0.00     0.031 A 
HETATM   11  C11 UNL     1      26.295   7.555  49.746  1.00  0.00     0.126 A 
HETATM   12  C8  UNL     1      29.138   7.018  47.470  1.00  0.00     0.070 C 
HETATM   13  C9  UNL     1      28.001   8.812  48.784  1.00  0.00     0.008 A 
HETATM   14  C10 UNL     1      26.842   8.944  49.690  1.00  0.00     0.109 A 
HETATM   15  N5  UNL     1      25.260   7.261  50.450  1.00  0.00    -0.266 NA
HETATM   16  C12 UNL     1      24.761   5.909  50.479  1.00  0.00     0.241 A 
ENDBRANCH   6   7
ENDBRANCH   3   6
BRANCH   1  17
HETATM   17  N1  UNL     1      24.621   0.314  53.003  1.00  0.00    -0.320 N 
HETATM   18  C3  UNL     1      23.270   0.204  53.353  1.00  0.00     0.245 C 
HETATM   19  O1  UNL     1      22.436   1.032  52.917  1.00  0.00    -0.268 OA
HETATM   20  H4  UNL     1      25.254  -0.423  53.416  1.00  0.00     0.169 HD
BRANCH  18  21
HETATM   21  C2  UNL     1      22.795  -0.848  54.215  1.00  0.00     0.064 C 
HETATM   22  C1  UNL     1      21.653  -0.692  54.860  1.00  0.00     0.017 C 
ENDBRANCH  18  21
ENDBRANCH   1  17
BRANCH   5  23
HETATM   23  N6  UNL     1      27.436   1.392  53.189  1.00  0.00    -0.312 N 
HETATM   24  C15 UNL     1      28.470   2.350  53.529  1.00  0.00     0.172 C 
BRANCH  23  25
HETATM   25  N7  UNL     1      27.436   0.126  53.776  1.00  0.00    -0.234 NA
HETATM   26  C16 UNL     1      28.182   0.099  55.029  1.00  0.00     0.136 C 
BRANCH  25  27
HETATM   27  C17 UNL     1      28.049  -0.817  52.883  1.00  0.00     0.109 C 
HETATM   28  C18 UNL     1      29.332  -1.395  53.452  1.00  0.00     0.022 C 
ENDBRANCH  25  27
ENDBRANCH  23  25
ENDBRANCH   5  23
TORSDOF 7
ENDMDL
MODEL 2
REMARK VINA RESULT:      -7.5      3.182      5.871
REMARK  7 active torsions:
REMARK  status: ('A' for Active; 'I' for Inactive)
REMARK    1  A    between atoms: C2_2  and  C3_3 
REMARK       I    between atoms: C3_3  and  N1_5 
REMARK    2  A    between atoms: N1_5  and  C4_6 
REMARK    3  A    between atoms: N2_8  and  O2_9 
REMARK    4  A    between atoms: O2_9  and  C6_10 
REMARK    5  A    between atoms: C14_21  and  N6_22 
REMARK    6  A    between atoms: N6_22  and  N7_24 
REMARK    7  A    between atoms: N7_24  and  C17_26 
ROOT
HETATM    1  C4  UNL     1      26.277   4.140  49.707  1.00  0.00     0.082 A 
HETATM    2  C5  UNL     1      27.428   4.271  48.962  1.00  0.00     0.155 A 
HETATM    3  N2  UNL     1      27.591   5.543  48.557  1.00  0.00    -0.233 N 
HETATM    4  C13 UNL     1      26.534   6.227  49.048  1.00  0.00     0.156 A 
HETATM    5  C14 UNL     1      25.711   5.395  49.757  1.00  0.00     0.091 A 
ENDROOT
BRANCH   3   6
HETATM    6  O2  UNL     1      28.538   6.210  47.810  1.00  0.00    -0.213 OA
BRANCH   6   7
HETATM    7  C6  UNL     1      29.880   6.143  48.044  1.00  0.00     0.208 A 
HETATM    8  N3  UNL     1      30.406   5.025  47.621  1.00  0.00    -0.141 NA
HETATM    9  N4  UNL     1      31.777   4.840  47.804  1.00  0.00    -0.222 N 
HETATM   10  C7  UNL     1      32.795   3.894  47.560  1.00  0.00     0.031 A 
HETATM   11  C11 UNL     1      32.417   5.934  48.446  1.00  0.00     0.126 A 
HETATM   12  C8  UNL     1      32.496   2.598  46.891  1.00  0.00     0.070 C 
HETATM   13  C9  UNL     1      33.988   4.282  47.978  1.00  0.00     0.008 A 
HETATM   14  C10 UNL     1      33.872   5.622  48.587  1.00  0.00     0.109 A 
HETATM   15  N5  UNL     1      31.917   7.041  48.868  1.00  0.00    -0.266 NA
HETATM   16  C12 UNL     1      30.508   7.306  48.715  1.00  0.00     0.241 A 
ENDBRANCH   6   7
ENDBRANCH   3   6
BRANCH   1  17
HETATM   17  N1  UNL     1      25.765   2.967  50.302  1.00  0.00    -0.320 N 
HETATM   18  C3  UNL     1      26.382   2.237  51.325  1.00  0.00     0.245 C 
HETATM   19  O1  UNL     1      27.485   2.612  51.790  1.00  0.00    -0.268 OA
HETATM   20  H4  UNL     1      24.841   2.581  49.968  1.00  0.00     0.169 HD
BRANCH  18  21
HETATM   21  C2  UNL     1      25.784   1.048  51.872  1.00  0.00     0.064 C 
HETATM   22  C1  UNL     1      26.535  -0.018  52.084  1.00  0.00     0.017 C 
ENDBRANCH  18  21
ENDBRANCH   1  17
BRANCH   5  23
HETATM   23  N6  UNL     1      24.493   5.703  50.445  1.00  0.00    -0.312 N 
HETATM   24  C15 UNL     1      24.351   7.056  50.948  1.00  0.00     0.172 C 
BRANCH  23  25
HETATM   25  N7  UNL     1      23.473   4.772  50.646  1.00  0.00    -0.234 NA
HETATM   26  C16 UNL     1      22.379   4.938  49.695  1.00  0.00     0.136 C 
BRANCH  25  27
HETATM   27  C17 UNL     1      22.931   4.931  51.966  1.00  0.00     0.109 C 
HETATM   28  C18 UNL     1      23.636   4.054  52.984  1.00  0.00     0.022 C 
ENDBRANCH  25  27
ENDBRANCH  23  25
ENDBRANCH   5  23
TORSDOF 7
ENDMDL
MODEL 3
REMARK VINA RESULT:      -7.5      2.129      3.514
REMARK  7 active torsions:
REMARK  status: ('A' for Active; 'I' for Inactive)
REMARK    1  A    between atoms: C2_2  and  C3_3 
REMARK       I    between atoms: C3_3  and  N1_5 
REMARK    2  A    between atoms: N1_5  and  C4_6 
REMARK    3  A    between atoms: N2_8  and  O2_9 
REMARK    4  A    between atoms: O2_9  and  C6_10 
REMARK    5  A    between atoms: C14_21  and  N6_22 
REMARK    6  A    between atoms: N6_22  and  N7_24 
REMARK    7  A    between atoms: N7_24  and  C17_26 
ROOT
HETATM    1  C4  UNL     1      25.257   0.755  53.120  1.00  0.00     0.082 A 
HETATM    2  C5  UNL     1      25.035   1.977  52.523  1.00  0.00     0.155 A 
HETATM    3  N2  UNL     1      26.053   2.299  51.705  1.00  0.00    -0.233 N 
HETATM    4  C13 UNL     1      26.929   1.274  51.781  1.00  0.00     0.156 A 
HETATM    5  C14 UNL     1      26.470   0.313  52.640  1.00  0.00     0.091 A 
ENDROOT
BRANCH   3   6
HETATM    6  O2  UNL     1      26.338   3.371  50.887  1.00  0.00    -0.213 OA
BRANCH   6   7
HETATM    7  C6  UNL     1      25.421   3.988  50.088  1.00  0.00     0.208 A 
HETATM    8  N3  UNL     1      24.549   3.152  49.591  1.00  0.00    -0.141 NA
HETATM    9  N4  UNL     1      23.556   3.667  48.756  1.00  0.00    -0.222 N 
HETATM   10  C7  UNL     1      22.440   3.251  47.999  1.00  0.00     0.031 A 
HETATM   11  C11 UNL     1      23.646   5.072  48.565  1.00  0.00     0.126 A 
HETATM   12  C8  UNL     1      22.031   1.820  47.955  1.00  0.00     0.070 C 
HETATM   13  C9  UNL     1      21.834   4.240  47.364  1.00  0.00     0.008 A 
HETATM   14  C10 UNL     1      22.539   5.503  47.659  1.00  0.00     0.109 A 
HETATM   15  N5  UNL     1      24.495   5.909  49.046  1.00  0.00    -0.266 NA
HETATM   16  C12 UNL     1      25.550   5.455  49.917  1.00  0.00     0.241 A 
ENDBRANCH   6   7
ENDBRANCH   3   6
BRANCH   1  17
HETATM   17  N1  UNL     1      24.424   0.082  54.038  1.00  0.00    -0.320 N 
HETATM   18  C3  UNL     1      23.196  -0.519  53.735  1.00  0.00     0.245 C 
HETATM   19  O1  UNL     1      22.750  -0.486  52.563  1.00  0.00    -0.268 OA
HETATM   20  H4  UNL     1      24.723   0.009  55.047  1.00  0.00     0.169 HD
BRANCH  18  21
HETATM   21  C2  UNL     1      22.412  -1.186  54.741  1.00  0.00     0.064 C 
HETATM   22  C1  UNL     1      21.174  -1.554  54.461  1.00  0.00     0.017 C 
ENDBRANCH  18  21
ENDBRANCH   1  17
BRANCH   5  23
HETATM   23  N6  UNL     1      27.076  -0.932  53.007  1.00  0.00    -0.312 N 
HETATM   24  C15 UNL     1      26.678  -2.102  52.247  1.00  0.00     0.172 C 
BRANCH  23  25
HETATM   25  N7  UNL     1      28.002  -1.054  54.043  1.00  0.00    -0.234 NA
HETATM   26  C16 UNL     1      28.157   0.186  54.795  1.00  0.00     0.136 C 
BRANCH  25  27
HETATM   27  C17 UNL     1      29.286  -1.399  53.500  1.00  0.00     0.109 C 
HETATM   28  C18 UNL     1      30.236  -0.215  53.478  1.00  0.00     0.022 C 
ENDBRANCH  25  27
ENDBRANCH  23  25
ENDBRANCH   5  23
TORSDOF 7
ENDMDL
MODEL 4
REMARK VINA RESULT:      -7.5      4.097      7.776
REMARK  7 active torsions:
REMARK  status: ('A' for Active; 'I' for Inactive)
REMARK    1  A    between atoms: C2_2  and  C3_3 
REMARK       I    between atoms: C3_3  and  N1_5 
REMARK    2  A    between atoms: N1_5  and  C4_6 
REMARK    3  A    between atoms: N2_8  and  O2_9 
REMARK    4  A    between atoms: O2_9  and  C6_10 
REMARK    5  A    between atoms: C14_21  and  N6_22 
REMARK    6  A    between atoms: N6_22  and  N7_24 
REMARK    7  A    between atoms: N7_24  and  C17_26 
ROOT
HETATM    1  C4  UNL     1      22.517   2.149  50.634  1.00  0.00     0.082 A 
HETATM    2  C5  UNL     1      23.671   1.643  51.191  1.00  0.00     0.155 A 
HETATM    3  N2  UNL     1      23.412   1.065  52.378  1.00  0.00    -0.233 N 
HETATM    4  C13 UNL     1      22.083   1.204  52.577  1.00  0.00     0.156 A 
HETATM    5  C14 UNL     1      21.507   1.864  51.525  1.00  0.00     0.091 A 
ENDROOT
BRANCH   3   6
HETATM    6  O2  UNL     1      24.173   0.424  53.332  1.00  0.00    -0.213 OA
BRANCH   6   7
HETATM    7  C6  UNL     1      25.510   0.629  53.506  1.00  0.00     0.208 A 
HETATM    8  N3  UNL     1      26.213  -0.452  53.299  1.00  0.00    -0.141 NA
HETATM    9  N4  UNL     1      27.599  -0.366  53.447  1.00  0.00    -0.222 N 
HETATM   10  C7  UNL     1      28.760  -1.162  53.355  1.00  0.00     0.031 A 
HETATM   11  C11 UNL     1      28.052   0.931  53.814  1.00  0.00     0.126 A 
HETATM   12  C8  UNL     1      28.677  -2.602  52.987  1.00  0.00     0.070 C 
HETATM   13  C9  UNL     1      29.875  -0.503  53.622  1.00  0.00     0.008 A 
HETATM   14  C10 UNL     1      29.540   0.898  53.943  1.00  0.00     0.109 A 
HETATM   15  N5  UNL     1      27.376   2.004  54.021  1.00  0.00    -0.266 NA
HETATM   16  C12 UNL     1      25.940   1.996  53.887  1.00  0.00     0.241 A 
ENDBRANCH   6   7
ENDBRANCH   3   6
BRANCH   1  17
HETATM   17  N1  UNL     1      22.381   2.824  49.402  1.00  0.00    -0.320 N 
HETATM   18  C3  UNL     1      22.030   2.233  48.183  1.00  0.00     0.245 C 
HETATM   19  O1  UNL     1      21.807   1.001  48.121  1.00  0.00    -0.268 OA
HETATM   20  H4  UNL     1      22.553   3.865  49.364  1.00  0.00     0.169 HD
BRANCH  18  21
HETATM   21  C2  UNL     1      21.915   3.006  46.973  1.00  0.00     0.064 C 
HETATM   22  C1  UNL     1      22.214   4.292  46.995  1.00  0.00     0.017 C 
ENDBRANCH  18  21
ENDBRANCH   1  17
BRANCH   5  23
HETATM   23  N6  UNL     1      20.133   2.215  51.325  1.00  0.00    -0.312 N 
HETATM   24  C15 UNL     1      19.711   3.512  51.819  1.00  0.00     0.172 C 
BRANCH  23  25
HETATM   25  N7  UNL     1      19.214   1.375  50.695  1.00  0.00    -0.234 NA
HETATM   26  C16 UNL     1      18.590   2.007  49.538  1.00  0.00     0.136 C 
BRANCH  25  27
HETATM   27  C17 UNL     1      18.170   1.028  51.618  1.00  0.00     0.109 C 
HETATM   28  C18 UNL     1      18.071  -0.471  51.834  1.00  0.00     0.022 C 
ENDBRANCH  25  27
ENDBRANCH  23  25
ENDBRANCH   5  23
TORSDOF 7
ENDMDL
MODEL 5
REMARK VINA RESULT:      -7.2      1.958      3.885
REMARK  7 active torsions:
REMARK  status: ('A' for Active; 'I' for Inactive)
REMARK    1  A    between atoms: C2_2  and  C3_3 
REMARK       I    between atoms: C3_3  and  N1_5 
REMARK    2  A    between atoms: N1_5  and  C4_6 
REMARK    3  A    between atoms: N2_8  and  O2_9 
REMARK    4  A    between atoms: O2_9  and  C6_10 
REMARK    5  A    between atoms: C14_21  and  N6_22 
REMARK    6  A    between atoms: N6_22  and  N7_24 
REMARK    7  A    between atoms: N7_24  and  C17_26 
ROOT
HETATM    1  C4  UNL     1      26.102   2.848  50.531  1.00  0.00     0.082 A 
HETATM    2  C5  UNL     1      26.727   3.726  49.672  1.00  0.00     0.155 A 
HETATM    3  N2  UNL     1      25.927   4.770  49.393  1.00  0.00    -0.233 N 
HETATM    4  C13 UNL     1      24.783   4.555  50.079  1.00  0.00     0.156 A 
HETATM    5  C14 UNL     1      24.860   3.385  50.786  1.00  0.00     0.091 A 
ENDROOT
BRANCH   3   6
HETATM    6  O2  UNL     1      26.045   5.903  48.616  1.00  0.00    -0.213 OA
BRANCH   6   7
HETATM    7  C6  UNL     1      26.938   6.904  48.857  1.00  0.00     0.208 A 
HETATM    8  N3  UNL     1      28.059   6.741  48.207  1.00  0.00    -0.141 NA
HETATM    9  N4  UNL     1      29.055   7.706  48.373  1.00  0.00    -0.222 N 
HETATM   10  C7  UNL     1      30.365   8.010  47.946  1.00  0.00     0.031 A 
HETATM   11  C11 UNL     1      28.687   8.756  49.256  1.00  0.00     0.126 A 
HETATM   12  C8  UNL     1      31.090   7.120  46.999  1.00  0.00     0.070 C 
HETATM   13  C9  UNL     1      30.844   9.127  48.465  1.00  0.00     0.008 A 
HETATM   14  C10 UNL     1      29.825   9.719  49.355  1.00  0.00     0.109 A 
HETATM   15  N5  UNL     1      27.590   8.933  49.904  1.00  0.00    -0.266 NA
HETATM   16  C12 UNL     1      26.514   7.980  49.784  1.00  0.00     0.241 A 
ENDBRANCH   6   7
ENDBRANCH   3   6
BRANCH   1  17
HETATM   17  N1  UNL     1      26.614   1.641  51.050  1.00  0.00    -0.320 N 
HETATM   18  C3  UNL     1      27.078   1.447  52.357  1.00  0.00     0.245 C 
HETATM   19  O1  UNL     1      27.060   2.395  53.178  1.00  0.00    -0.268 OA
HETATM   20  H4  UNL     1      26.667   0.792  50.424  1.00  0.00     0.169 HD
BRANCH  18  21
HETATM   21  C2  UNL     1      27.586   0.174  52.799  1.00  0.00     0.064 C 
HETATM   22  C1  UNL     1      26.849  -0.910  52.635  1.00  0.00     0.017 C 
ENDBRANCH  18  21
ENDBRANCH   1  17
BRANCH   5  23
HETATM   23  N6  UNL     1      23.883   2.785  51.644  1.00  0.00    -0.312 N 
HETATM   24  C15 UNL     1      23.236   3.655  52.608  1.00  0.00     0.172 C 
BRANCH  23  25
HETATM   25  N7  UNL     1      23.547   1.432  51.590  1.00  0.00    -0.234 NA
HETATM   26  C16 UNL     1      22.245   1.210  50.971  1.00  0.00     0.136 C 
BRANCH  25  27
HETATM   27  C17 UNL     1      23.494   0.897  52.921  1.00  0.00     0.109 C 
HETATM   28  C18 UNL     1      22.634  -0.351  53.004  1.00  0.00     0.022 C 
ENDBRANCH  25  27
ENDBRANCH  23  25
ENDBRANCH   5  23
TORSDOF 7
ENDMDL
MODEL 6
REMARK VINA RESULT:      -7.2      2.620      7.745
REMARK  7 active torsions:
REMARK  status: ('A' for Active; 'I' for Inactive)
REMARK    1  A    between atoms: C2_2  and  C3_3 
REMARK       I    between atoms: C3_3  and  N1_5 
REMARK    2  A    between atoms: N1_5  and  C4_6 
REMARK    3  A    between atoms: N2_8  and  O2_9 
REMARK    4  A    between atoms: O2_9  and  C6_10 
REMARK    5  A    between atoms: C14_21  and  N6_22 
REMARK    6  A    between atoms: N6_22  and  N7_24 
REMARK    7  A    between atoms: N7_24  and  C17_26 
ROOT
HETATM    1  C4  UNL     1      23.764   3.965  52.121  1.00  0.00     0.082 A 
HETATM    2  C5  UNL     1      24.517   3.143  52.931  1.00  0.00     0.155 A 
HETATM    3  N2  UNL     1      23.995   1.904  52.969  1.00  0.00    -0.233 N 
HETATM    4  C13 UNL     1      22.901   1.938  52.177  1.00  0.00     0.156 A 
HETATM    5  C14 UNL     1      22.733   3.187  51.643  1.00  0.00     0.091 A 
ENDROOT
BRANCH   3   6
HETATM    6  O2  UNL     1      24.334   0.727  53.601  1.00  0.00    -0.213 OA
BRANCH   6   7
HETATM    7  C6  UNL     1      25.549   0.119  53.481  1.00  0.00     0.208 A 
HETATM    8  N3  UNL     1      26.538   0.910  53.803  1.00  0.00    -0.141 NA
HETATM    9  N4  UNL     1      27.834   0.398  53.720  1.00  0.00    -0.222 N 
HETATM   10  C7  UNL     1      29.176   0.780  53.932  1.00  0.00     0.031 A 
HETATM   11  C11 UNL     1      27.885  -0.953  53.282  1.00  0.00     0.126 A 
HETATM   12  C8  UNL     1      29.520   2.150  54.401  1.00  0.00     0.070 C 
HETATM   13  C9  UNL     1      30.046  -0.182  53.673  1.00  0.00     0.008 A 
HETATM   14  C10 UNL     1      29.314  -1.386  53.232  1.00  0.00     0.109 A 
HETATM   15  N5  UNL     1      26.924  -1.745  52.962  1.00  0.00    -0.266 NA
HETATM   16  C12 UNL     1      25.557  -1.290  53.022  1.00  0.00     0.241 A 
ENDBRANCH   6   7
ENDBRANCH   3   6
BRANCH   1  17
HETATM   17  N1  UNL     1      23.987   5.328  51.832  1.00  0.00    -0.320 N 
HETATM   18  C3  UNL     1      24.796   5.819  50.800  1.00  0.00     0.245 C 
HETATM   19  O1  UNL     1      25.396   5.026  50.037  1.00  0.00    -0.268 OA
HETATM   20  H4  UNL     1      23.521   6.064  52.427  1.00  0.00     0.169 HD
BRANCH  18  21
HETATM   21  C2  UNL     1      24.965   7.232  50.580  1.00  0.00     0.064 C 
HETATM   22  C1  UNL     1      23.907   8.023  50.597  1.00  0.00     0.017 C 
ENDBRANCH  18  21
ENDBRANCH   1  17
BRANCH   5  23
HETATM   23  N6  UNL     1      21.714   3.657  50.753  1.00  0.00    -0.312 N 
HETATM   24  C15 UNL     1      20.345   3.309  51.085  1.00  0.00     0.172 C 
BRANCH  23  25
HETATM   25  N7  UNL     1      21.986   4.411  49.611  1.00  0.00    -0.234 NA
HETATM   26  C16 UNL     1      20.811   5.131  49.131  1.00  0.00     0.136 C 
BRANCH  25  27
HETATM   27  C17 UNL     1      22.425   3.541  48.556  1.00  0.00     0.109 C 
HETATM   28  C18 UNL     1      21.503   3.590  47.351  1.00  0.00     0.022 C 
ENDBRANCH  25  27
ENDBRANCH  23  25
ENDBRANCH   5  23
TORSDOF 7
ENDMDL
MODEL 7
REMARK VINA RESULT:      -7.1      1.678      2.452
REMARK  7 active torsions:
REMARK  status: ('A' for Active; 'I' for Inactive)
REMARK    1  A    between atoms: C2_2  and  C3_3 
REMARK       I    between atoms: C3_3  and  N1_5 
REMARK    2  A    between atoms: N1_5  and  C4_6 
REMARK    3  A    between atoms: N2_8  and  O2_9 
REMARK    4  A    between atoms: O2_9  and  C6_10 
REMARK    5  A    between atoms: C14_21  and  N6_22 
REMARK    6  A    between atoms: N6_22  and  N7_24 
REMARK    7  A    between atoms: N7_24  and  C17_26 
ROOT
HETATM    1  C4  UNL     1      25.027   0.433  52.811  1.00  0.00     0.082 A 
HETATM    2  C5  UNL     1      24.707   1.556  52.080  1.00  0.00     0.155 A 
HETATM    3  N2  UNL     1      25.711   1.886  51.249  1.00  0.00    -0.233 N 
HETATM    4  C13 UNL     1      26.680   0.966  51.453  1.00  0.00     0.156 A 
HETATM    5  C14 UNL     1      26.290   0.062  52.404  1.00  0.00     0.091 A 
ENDROOT
BRANCH   3   6
HETATM    6  O2  UNL     1      25.916   2.887  50.324  1.00  0.00    -0.213 OA
BRANCH   6   7
HETATM    7  C6  UNL     1      25.078   3.949  50.150  1.00  0.00     0.208 A 
HETATM    8  N3  UNL     1      25.700   5.095  50.227  1.00  0.00    -0.141 NA
HETATM    9  N4  UNL     1      24.945   6.258  50.064  1.00  0.00    -0.222 N 
HETATM   10  C7  UNL     1      25.089   7.662  50.052  1.00  0.00     0.031 A 
HETATM   11  C11 UNL     1      23.566   6.012  49.831  1.00  0.00     0.126 A 
HETATM   12  C8  UNL     1      26.416   8.300  50.266  1.00  0.00     0.070 C 
HETATM   13  C9  UNL     1      23.954   8.306  49.838  1.00  0.00     0.008 A 
HETATM   14  C10 UNL     1      22.866   7.322  49.675  1.00  0.00     0.109 A 
HETATM   15  N5  UNL     1      22.937   4.893  49.751  1.00  0.00    -0.266 NA
HETATM   16  C12 UNL     1      23.647   3.648  49.908  1.00  0.00     0.241 A 
ENDBRANCH   6   7
ENDBRANCH   3   6
BRANCH   1  17
HETATM   17  N1  UNL     1      24.236  -0.216  53.782  1.00  0.00    -0.320 N 
HETATM   18  C3  UNL     1      22.936  -0.696  53.586  1.00  0.00     0.245 C 
HETATM   19  O1  UNL     1      22.376  -0.563  52.472  1.00  0.00    -0.268 OA
HETATM   20  H4  UNL     1      24.631  -0.368  54.750  1.00  0.00     0.169 HD
BRANCH  18  21
HETATM   21  C2  UNL     1      22.203  -1.347  54.641  1.00  0.00     0.064 C 
HETATM   22  C1  UNL     1      20.936  -1.667  54.448  1.00  0.00     0.017 C 
ENDBRANCH  18  21
ENDBRANCH   1  17
BRANCH   5  23
HETATM   23  N6  UNL     1      27.001  -1.071  52.916  1.00  0.00    -0.312 N 
HETATM   24  C15 UNL     1      26.777  -2.339  52.249  1.00  0.00     0.172 C 
BRANCH  23  25
HETATM   25  N7  UNL     1      27.871  -0.999  54.005  1.00  0.00    -0.234 NA
HETATM   26  C16 UNL     1      27.763   0.271  54.715  1.00  0.00     0.136 C 
BRANCH  25  27
HETATM   27  C17 UNL     1      29.225  -1.128  53.546  1.00  0.00     0.109 C 
HETATM   28  C18 UNL     1      29.981   0.187  53.611  1.00  0.00     0.022 C 
ENDBRANCH  25  27
ENDBRANCH  23  25
ENDBRANCH   5  23
TORSDOF 7
ENDMDL
MODEL 8
REMARK VINA RESULT:      -6.9      1.829      3.678
REMARK  7 active torsions:
REMARK  status: ('A' for Active; 'I' for Inactive)
REMARK    1  A    between atoms: C2_2  and  C3_3 
REMARK       I    between atoms: C3_3  and  N1_5 
REMARK    2  A    between atoms: N1_5  and  C4_6 
REMARK    3  A    between atoms: N2_8  and  O2_9 
REMARK    4  A    between atoms: O2_9  and  C6_10 
REMARK    5  A    between atoms: C14_21  and  N6_22 
REMARK    6  A    between atoms: N6_22  and  N7_24 
REMARK    7  A    between atoms: N7_24  and  C17_26 
ROOT
HETATM    1  C4  UNL     1      24.925   2.454  51.719  1.00  0.00     0.082 A 
HETATM    2  C5  UNL     1      25.770   3.197  50.924  1.00  0.00     0.155 A 
HETATM    3  N2  UNL     1      25.073   3.890  50.006  1.00  0.00    -0.233 N 
HETATM    4  C13 UNL     1      23.774   3.587  50.219  1.00  0.00     0.156 A 
HETATM    5  C14 UNL     1      23.651   2.709  51.262  1.00  0.00     0.091 A 
ENDROOT
BRANCH   3   6
HETATM    6  O2  UNL     1      25.404   4.763  48.992  1.00  0.00    -0.213 OA
BRANCH   6   7
HETATM    7  C6  UNL     1      26.053   5.947  49.186  1.00  0.00     0.208 A 
HETATM    8  N3  UNL     1      27.177   6.015  48.525  1.00  0.00    -0.141 NA
HETATM    9  N4  UNL     1      27.933   7.183  48.643  1.00  0.00    -0.222 N 
HETATM   10  C7  UNL     1      29.139   7.756  48.186  1.00  0.00     0.031 A 
HETATM   11  C11 UNL     1      27.345   8.156  49.496  1.00  0.00     0.126 A 
HETATM   12  C8  UNL     1      30.039   7.016  47.260  1.00  0.00     0.070 C 
HETATM   13  C9  UNL     1      29.359   8.970  48.660  1.00  0.00     0.008 A 
HETATM   14  C10 UNL     1      28.240   9.352  49.544  1.00  0.00     0.109 A 
HETATM   15  N5  UNL     1      26.241   8.107  50.153  1.00  0.00    -0.266 NA
HETATM   16  C12 UNL     1      25.405   6.935  50.081  1.00  0.00     0.241 A 
ENDBRANCH   6   7
ENDBRANCH   3   6
BRANCH   1  17
HETATM   17  N1  UNL     1      25.276   1.601  52.787  1.00  0.00    -0.320 N 
HETATM   18  C3  UNL     1      26.076   0.457  52.685  1.00  0.00     0.245 C 
HETATM   19  O1  UNL     1      26.548   0.114  51.575  1.00  0.00    -0.268 OA
HETATM   20  H4  UNL     1      24.920   1.816  53.757  1.00  0.00     0.169 HD
BRANCH  18  21
HETATM   21  C2  UNL     1      26.383  -0.356  53.834  1.00  0.00     0.064 C 
HETATM   22  C1  UNL     1      26.457   0.208  55.026  1.00  0.00     0.017 C 
ENDBRANCH  18  21
ENDBRANCH   1  17
BRANCH   5  23
HETATM   23  N6  UNL     1      22.464   2.136  51.823  1.00  0.00    -0.312 N 
HETATM   24  C15 UNL     1      21.405   3.056  52.191  1.00  0.00     0.172 C 
BRANCH  23  25
HETATM   25  N7  UNL     1      22.300   0.765  52.026  1.00  0.00    -0.234 NA
HETATM   26  C16 UNL     1      21.289   0.193  51.143  1.00  0.00     0.136 C 
BRANCH  25  27
HETATM   27  C17 UNL     1      21.883   0.527  53.379  1.00  0.00     0.109 C 
HETATM   28  C18 UNL     1      22.639  -0.624  54.018  1.00  0.00     0.022 C 
ENDBRANCH  25  27
ENDBRANCH  23  25
ENDBRANCH   5  23
TORSDOF 7
ENDMDL
MODEL 9
REMARK VINA RESULT:      -6.9      2.832      7.320
REMARK  7 active torsions:
REMARK  status: ('A' for Active; 'I' for Inactive)
REMARK    1  A    between atoms: C2_2  and  C3_3 
REMARK       I    between atoms: C3_3  and  N1_5 
REMARK    2  A    between atoms: N1_5  and  C4_6 
REMARK    3  A    between atoms: N2_8  and  O2_9 
REMARK    4  A    between atoms: O2_9  and  C6_10 
REMARK    5  A    between atoms: C14_21  and  N6_22 
REMARK    6  A    between atoms: N6_22  and  N7_24 
REMARK    7  A    between atoms: N7_24  and  C17_26 
ROOT
HETATM    1  C4  UNL     1      22.534   2.448  51.059  1.00  0.00     0.082 A 
HETATM    2  C5  UNL     1      22.603   1.517  52.072  1.00  0.00     0.155 A 
HETATM    3  N2  UNL     1      23.832   1.499  52.618  1.00  0.00    -0.233 N 
HETATM    4  C13 UNL     1      24.551   2.426  51.947  1.00  0.00     0.156 A 
HETATM    5  C14 UNL     1      23.782   3.024  50.986  1.00  0.00     0.091 A 
ENDROOT
BRANCH   3   6
HETATM    6  O2  UNL     1      24.434   0.783  53.631  1.00  0.00    -0.213 OA
BRANCH   6   7
HETATM    7  C6  UNL     1      25.641   0.161  53.513  1.00  0.00     0.208 A 
HETATM    8  N3  UNL     1      26.638   0.934  53.851  1.00  0.00    -0.141 NA
HETATM    9  N4  UNL     1      27.928   0.407  53.771  1.00  0.00    -0.222 N 
HETATM   10  C7  UNL     1      29.273   0.769  53.997  1.00  0.00     0.031 A 
HETATM   11  C11 UNL     1      27.965  -0.939  53.318  1.00  0.00     0.126 A 
HETATM   12  C8  UNL     1      29.632   2.129  54.484  1.00  0.00     0.070 C 
HETATM   13  C9  UNL     1      30.132  -0.201  53.734  1.00  0.00     0.008 A 
HETATM   14  C10 UNL     1      29.388  -1.390  53.274  1.00  0.00     0.109 A 
HETATM   15  N5  UNL     1      26.996  -1.715  52.982  1.00  0.00    -0.266 NA
HETATM   16  C12 UNL     1      25.635  -1.244  53.038  1.00  0.00     0.241 A 
ENDBRANCH   6   7
ENDBRANCH   3   6
BRANCH   1  17
HETATM   17  N1  UNL     1      21.420   2.758  50.251  1.00  0.00    -0.320 N 
HETATM   18  C3  UNL     1      21.150   2.212  48.990  1.00  0.00     0.245 C 
HETATM   19  O1  UNL     1      21.933   1.371  48.487  1.00  0.00    -0.268 OA
HETATM   20  H4  UNL     1      20.711   3.459  50.598  1.00  0.00     0.169 HD
BRANCH  18  21
HETATM   21  C2  UNL     1      19.984   2.591  48.235  1.00  0.00     0.064 C 
HETATM   22  C1  UNL     1      19.880   3.826  47.778  1.00  0.00     0.017 C 
ENDBRANCH  18  21
ENDBRANCH   1  17
BRANCH   5  23
HETATM   23  N6  UNL     1      24.140   4.056  50.059  1.00  0.00    -0.312 N 
HETATM   24  C15 UNL     1      25.465   3.977  49.473  1.00  0.00     0.172 C 
BRANCH  23  25
HETATM   25  N7  UNL     1      23.286   5.105  49.716  1.00  0.00    -0.234 NA
HETATM   26  C16 UNL     1      23.806   5.902  48.610  1.00  0.00     0.136 C 
BRANCH  25  27
HETATM   27  C17 UNL     1      23.121   5.978  50.844  1.00  0.00     0.109 C 
HETATM   28  C18 UNL     1      21.696   6.484  50.974  1.00  0.00     0.022 C 
ENDBRANCH  25  27
ENDBRANCH  23  25
ENDBRANCH   5  23
TORSDOF 7
ENDMDL
