MODEL 1
REMARK VINA RESULT:      -9.7      0.000      0.000
REMARK  3 active torsions:
REMARK  status: ('A' for Active; 'I' for Inactive)
REMARK    1  A    between atoms: C5_7  and  C6_8 
REMARK    2  A    between atoms: C6_8  and  C7_9 
REMARK    3  A    between atoms: C7_9  and  N2_10 
ROOT
HETATM    1  N2  UNL     1      24.079  -0.309  54.155  1.00  0.00    -0.317 N 
HETATM    2  S1  UNL     1      23.209  -1.283  55.348  1.00  0.00    -0.026 SA
HETATM    3  C8  UNL     1      21.520  -1.510  54.670  1.00  0.00     0.273 C 
HETATM    4  O2  UNL     1      21.494  -1.343  53.260  1.00  0.00    -0.335 OA
HETATM    5  C9  UNL     1      22.173  -0.318  52.645  1.00  0.00     0.129 A 
HETATM    6  C10 UNL     1      23.388   0.190  53.042  1.00  0.00     0.077 A 
HETATM    7  C11 UNL     1      23.972   1.252  52.326  1.00  0.00     0.040 A 
HETATM    8  C12 UNL     1      23.145   1.541  51.324  1.00  0.00    -0.020 A 
HETATM    9  C13 UNL     1      23.205   2.487  50.428  1.00  0.00     0.061 A 
HETATM   10  C14 UNL     1      23.000   3.354  49.385  1.00  0.00     0.014 A 
HETATM   11  C15 UNL     1      21.773   2.878  48.829  1.00  0.00     0.110 A 
HETATM   12  N3  UNL     1      21.423   1.853  49.602  1.00  0.00    -0.278 NA
HETATM   13  C16 UNL     1      21.997   1.316  50.636  1.00  0.00     0.147 A 
HETATM   14  C17 UNL     1      21.803   0.366  51.578  1.00  0.00     0.118 A 
HETATM   15  O3  UNL     1      20.498   0.278  50.931  1.00  0.00    -0.346 OA
HETATM   16  C18 UNL     1      19.653   1.145  51.867  1.00  0.00     0.203 C 
HETATM   17  C19 UNL     1      20.391   2.348  52.256  1.00  0.00    -0.000 C 
HETATM   18  C20 UNL     1      21.290   3.346  52.427  1.00  0.00    -0.002 C 
HETATM   19  C21 UNL     1      22.632   3.964  52.091  1.00  0.00    -0.003 C 
HETATM   20  C22 UNL     1      23.723   3.736  51.209  1.00  0.00    -0.005 C 
ENDROOT
BRANCH   1  21
HETATM   21  C7  UNL     1      25.491  -0.033  54.332  1.00  0.00     0.139 C 
BRANCH  21  22
HETATM   22  C6  UNL     1      26.201  -0.913  53.322  1.00  0.00     0.057 C 
BRANCH  22  23
HETATM   23  C5  UNL     1      27.529  -0.338  52.858  1.00  0.00     0.230 C 
HETATM   24  C2  UNL     1      28.572  -0.361  53.936  1.00  0.00     0.039 C 
HETATM   25  C1  UNL     1      29.782  -1.209  53.593  1.00  0.00     0.014 C 
HETATM   26  C3  UNL     1      29.081   1.010  54.292  1.00  0.00     0.176 C 
HETATM   27  O1  UNL     1      28.068   1.944  54.172  1.00  0.00    -0.362 OA
HETATM   28  C4  UNL     1      27.588   2.077  52.889  1.00  0.00     0.438 C 
HETATM   29  N1  UNL     1      27.409   0.897  52.154  1.00  0.00     0.111 N 
HETATM   30  H9  UNL     1      26.519   0.877  51.611  1.00  0.00     0.319 HD
ENDBRANCH  22  23
ENDBRANCH  21  22
ENDBRANCH   1  21
TORSDOF 3
ENDMDL
MODEL 2
REMARK VINA RESULT:      -9.5      1.308      1.899
REMARK  3 active torsions:
REMARK  status: ('A' for Active; 'I' for Inactive)
REMARK    1  A    between atoms: C5_7  and  C6_8 
REMARK    2  A    between atoms: C6_8  and  C7_9 
REMARK    3  A    between atoms: C7_9  and  N2_10 
ROOT
HETATM    1  N2  UNL     1      23.460  -0.372  53.276  1.00  0.00    -0.317 N 
HETATM    2  S1  UNL     1      22.534  -0.948  54.669  1.00  0.00    -0.026 SA
HETATM    3  C8  UNL     1      20.817  -0.364  54.402  1.00  0.00     0.273 C 
HETATM    4  O2  UNL     1      20.559  -0.102  53.031  1.00  0.00    -0.335 OA
HETATM    5  C9  UNL     1      21.467   0.562  52.242  1.00  0.00     0.129 A 
HETATM    6  C10 UNL     1      22.835   0.456  52.333  1.00  0.00     0.077 A 
HETATM    7  C11 UNL     1      23.655   1.204  51.466  1.00  0.00     0.040 A 
HETATM    8  C12 UNL     1      22.844   1.895  50.670  1.00  0.00    -0.020 A 
HETATM    9  C13 UNL     1      23.118   2.780  49.752  1.00  0.00     0.061 A 
HETATM   10  C14 UNL     1      23.094   3.721  48.754  1.00  0.00     0.014 A 
HETATM   11  C15 UNL     1      21.695   3.872  48.510  1.00  0.00     0.110 A 
HETATM   12  N3  UNL     1      21.107   3.051  49.377  1.00  0.00    -0.278 NA
HETATM   13  C16 UNL     1      21.595   2.245  50.271  1.00  0.00     0.147 A 
HETATM   14  C17 UNL     1      21.214   1.413  51.264  1.00  0.00     0.118 A 
HETATM   15  O3  UNL     1      19.898   1.951  50.936  1.00  0.00    -0.346 OA
HETATM   16  C18 UNL     1      19.753   3.032  52.009  1.00  0.00     0.203 C 
HETATM   17  C19 UNL     1      21.012   3.759  52.178  1.00  0.00    -0.000 C 
HETATM   18  C20 UNL     1      22.272   4.247  52.104  1.00  0.00    -0.002 C 
HETATM   19  C21 UNL     1      23.639   4.237  51.450  1.00  0.00    -0.003 C 
HETATM   20  C22 UNL     1      24.292   3.617  50.351  1.00  0.00    -0.005 C 
ENDROOT
BRANCH   1  21
HETATM   21  C7  UNL     1      24.849  -0.756  53.116  1.00  0.00     0.139 C 
BRANCH  21  22
HETATM   22  C6  UNL     1      25.434  -0.732  54.514  1.00  0.00     0.057 C 
BRANCH  22  23
HETATM   23  C5  UNL     1      26.375   0.438  54.748  1.00  0.00     0.230 C 
HETATM   24  C2  UNL     1      26.513   1.314  53.538  1.00  0.00     0.039 C 
HETATM   25  C1  UNL     1      26.043   2.739  53.763  1.00  0.00     0.014 C 
HETATM   26  C3  UNL     1      27.925   1.391  53.024  1.00  0.00     0.176 C 
HETATM   27  O1  UNL     1      28.574   0.186  53.223  1.00  0.00    -0.362 OA
HETATM   28  C4  UNL     1      28.709  -0.157  54.548  1.00  0.00     0.438 C 
HETATM   29  N1  UNL     1      27.602   0.076  55.378  1.00  0.00     0.111 N 
HETATM   30  H9  UNL     1      27.410  -0.706  56.042  1.00  0.00     0.319 HD
ENDBRANCH  22  23
ENDBRANCH  21  22
ENDBRANCH   1  21
TORSDOF 3
ENDMDL
MODEL 3
REMARK VINA RESULT:      -9.2      2.208      3.165
REMARK  3 active torsions:
REMARK  status: ('A' for Active; 'I' for Inactive)
REMARK    1  A    between atoms: C5_7  and  C6_8 
REMARK    2  A    between atoms: C6_8  and  C7_9 
REMARK    3  A    between atoms: C7_9  and  N2_10 
ROOT
HETATM    1  N2  UNL     1      24.772   1.401  51.890  1.00  0.00    -0.317 N 
HETATM    2  S1  UNL     1      23.687   0.312  52.764  1.00  0.00    -0.026 SA
HETATM    3  C8  UNL     1      22.023   0.581  52.042  1.00  0.00     0.273 C 
HETATM    4  O2  UNL     1      22.101   1.126  50.734  1.00  0.00    -0.335 OA
HETATM    5  C9  UNL     1      22.975   2.141  50.428  1.00  0.00     0.129 A 
HETATM    6  C10 UNL     1      24.236   2.298  50.955  1.00  0.00     0.077 A 
HETATM    7  C11 UNL     1      25.029   3.393  50.563  1.00  0.00     0.040 A 
HETATM    8  C12 UNL     1      24.318   4.085  49.676  1.00  0.00    -0.020 A 
HETATM    9  C13 UNL     1      24.585   5.212  49.077  1.00  0.00     0.061 A 
HETATM   10  C14 UNL     1      24.586   6.352  48.312  1.00  0.00     0.014 A 
HETATM   11  C15 UNL     1      23.328   6.270  47.642  1.00  0.00     0.110 A 
HETATM   12  N3  UNL     1      22.768   5.153  48.099  1.00  0.00    -0.278 NA
HETATM   13  C16 UNL     1      23.186   4.262  48.948  1.00  0.00     0.147 A 
HETATM   14  C17 UNL     1      22.784   3.143  49.590  1.00  0.00     0.118 A 
HETATM   15  O3  UNL     1      21.520   3.467  48.938  1.00  0.00    -0.346 OA
HETATM   16  C18 UNL     1      20.786   4.184  50.073  1.00  0.00     0.203 C 
HETATM   17  C19 UNL     1      21.695   5.085  50.783  1.00  0.00    -0.000 C 
HETATM   18  C20 UNL     1      22.740   5.823  51.227  1.00  0.00    -0.002 C 
HETATM   19  C21 UNL     1      24.183   6.260  51.080  1.00  0.00    -0.003 C 
HETATM   20  C22 UNL     1      25.265   6.089  50.174  1.00  0.00    -0.005 C 
ENDROOT
BRANCH   1  21
HETATM   21  C7  UNL     1      26.199   1.364  52.143  1.00  0.00     0.139 C 
BRANCH  21  22
HETATM   22  C6  UNL     1      26.598  -0.089  51.970  1.00  0.00     0.057 C 
BRANCH  22  23
HETATM   23  C5  UNL     1      27.027  -0.748  53.271  1.00  0.00     0.230 C 
HETATM   24  C2  UNL     1      27.213   0.241  54.382  1.00  0.00     0.039 C 
HETATM   25  C1  UNL     1      26.282   0.017  55.558  1.00  0.00     0.014 C 
HETATM   26  C3  UNL     1      28.615   0.258  54.927  1.00  0.00     0.176 C 
HETATM   27  O1  UNL     1      29.525   0.001  53.918  1.00  0.00    -0.362 OA
HETATM   28  C4  UNL     1      29.390  -1.248  53.356  1.00  0.00     0.438 C 
HETATM   29  N1  UNL     1      28.082  -1.696  53.117  1.00  0.00     0.111 N 
HETATM   30  H9  UNL     1      27.967  -2.166  52.193  1.00  0.00     0.319 HD
ENDBRANCH  22  23
ENDBRANCH  21  22
ENDBRANCH   1  21
TORSDOF 3
ENDMDL
MODEL 4
REMARK VINA RESULT:      -9.2      2.615      4.251
REMARK  3 active torsions:
REMARK  status: ('A' for Active; 'I' for Inactive)
REMARK    1  A    between atoms: C5_7  and  C6_8 
REMARK    2  A    between atoms: C6_8  and  C7_9 
REMARK    3  A    between atoms: C7_9  and  N2_10 
ROOT
HETATM    1  N2  UNL     1      25.983   2.660  50.879  1.00  0.00    -0.317 N 
HETATM    2  S1  UNL     1      26.844   3.722  49.756  1.00  0.00    -0.026 SA
HETATM    3  C8  UNL     1      25.641   5.020  49.277  1.00  0.00     0.273 C 
HETATM    4  O2  UNL     1      24.609   5.161  50.242  1.00  0.00    -0.335 OA
HETATM    5  C9  UNL     1      24.001   4.067  50.810  1.00  0.00     0.129 A 
HETATM    6  C10 UNL     1      24.620   2.878  51.120  1.00  0.00     0.077 A 
HETATM    7  C11 UNL     1      23.876   1.828  51.692  1.00  0.00     0.040 A 
HETATM    8  C12 UNL     1      22.629   2.272  51.830  1.00  0.00    -0.020 A 
HETATM    9  C13 UNL     1      21.557   1.655  52.244  1.00  0.00     0.061 A 
HETATM   10  C14 UNL     1      20.292   1.285  52.626  1.00  0.00     0.014 A 
HETATM   11  C15 UNL     1      19.546   2.484  52.415  1.00  0.00     0.110 A 
HETATM   12  N3  UNL     1      20.428   3.356  51.935  1.00  0.00    -0.278 NA
HETATM   13  C16 UNL     1      21.700   3.251  51.691  1.00  0.00     0.147 A 
HETATM   14  C17 UNL     1      22.735   3.941  51.161  1.00  0.00     0.118 A 
HETATM   15  O3  UNL     1      21.676   4.898  50.855  1.00  0.00    -0.346 OA
HETATM   16  C18 UNL     1      21.380   4.544  49.396  1.00  0.00     0.203 C 
HETATM   17  C19 UNL     1      21.368   3.091  49.214  1.00  0.00    -0.000 C 
HETATM   18  C20 UNL     1      21.406   1.745  49.351  1.00  0.00    -0.002 C 
HETATM   19  C21 UNL     1      21.549   0.528  50.243  1.00  0.00    -0.003 C 
HETATM   20  C22 UNL     1      21.662   0.225  51.627  1.00  0.00    -0.005 C 
ENDROOT
BRANCH   1  21
HETATM   21  C7  UNL     1      26.686   1.577  51.540  1.00  0.00     0.139 C 
BRANCH  21  22
HETATM   22  C6  UNL     1      27.252   2.183  52.809  1.00  0.00     0.057 C 
BRANCH  22  23
HETATM   23  C5  UNL     1      27.712   1.140  53.814  1.00  0.00     0.230 C 
HETATM   24  C2  UNL     1      28.303  -0.071  53.156  1.00  0.00     0.039 C 
HETATM   25  C1  UNL     1      29.758  -0.309  53.514  1.00  0.00     0.014 C 
HETATM   26  C3  UNL     1      27.557  -1.338  53.475  1.00  0.00     0.176 C 
HETATM   27  O1  UNL     1      26.206  -1.076  53.616  1.00  0.00    -0.362 OA
HETATM   28  C4  UNL     1      25.912  -0.231  54.661  1.00  0.00     0.438 C 
HETATM   29  N1  UNL     1      26.761   0.870  54.842  1.00  0.00     0.111 N 
HETATM   30  H9  UNL     1      26.252   1.755  55.057  1.00  0.00     0.319 HD
ENDBRANCH  22  23
ENDBRANCH  21  22
ENDBRANCH   1  21
TORSDOF 3
ENDMDL
MODEL 5
REMARK VINA RESULT:      -9.0      3.451      4.769
REMARK  3 active torsions:
REMARK  status: ('A' for Active; 'I' for Inactive)
REMARK    1  A    between atoms: C5_7  and  C6_8 
REMARK    2  A    between atoms: C6_8  and  C7_9 
REMARK    3  A    between atoms: C7_9  and  N2_10 
ROOT
HETATM    1  N2  UNL     1      25.077   2.669  50.830  1.00  0.00    -0.317 N 
HETATM    2  S1  UNL     1      23.809   1.755  51.657  1.00  0.00    -0.026 SA
HETATM    3  C8  UNL     1      22.222   2.427  51.031  1.00  0.00     0.273 C 
HETATM    4  O2  UNL     1      22.381   3.058  49.769  1.00  0.00    -0.335 OA
HETATM    5  C9  UNL     1      23.442   3.893  49.510  1.00  0.00     0.129 A 
HETATM    6  C10 UNL     1      24.720   3.736  49.995  1.00  0.00     0.077 A 
HETATM    7  C11 UNL     1      25.716   4.674  49.660  1.00  0.00     0.040 A 
HETATM    8  C12 UNL     1      25.145   5.574  48.863  1.00  0.00    -0.020 A 
HETATM    9  C13 UNL     1      25.629   6.669  48.347  1.00  0.00     0.061 A 
HETATM   10  C14 UNL     1      25.851   7.847  47.679  1.00  0.00     0.014 A 
HETATM   11  C15 UNL     1      24.588   8.089  47.058  1.00  0.00     0.110 A 
HETATM   12  N3  UNL     1      23.817   7.076  47.446  1.00  0.00    -0.278 NA
HETATM   13  C16 UNL     1      24.059   6.046  48.201  1.00  0.00     0.147 A 
HETATM   14  C17 UNL     1      23.446   4.983  48.766  1.00  0.00     0.118 A 
HETATM   15  O3  UNL     1      22.262   5.619  48.197  1.00  0.00    -0.346 OA
HETATM   16  C18 UNL     1      21.724   6.369  49.417  1.00  0.00     0.203 C 
HETATM   17  C19 UNL     1      22.820   6.995  50.159  1.00  0.00    -0.000 C 
HETATM   18  C20 UNL     1      24.007   7.457  50.616  1.00  0.00    -0.002 C 
HETATM   19  C21 UNL     1      25.506   7.597  50.445  1.00  0.00    -0.003 C 
HETATM   20  C22 UNL     1      26.505   7.285  49.483  1.00  0.00    -0.005 C 
ENDROOT
BRANCH   1  21
HETATM   21  C7  UNL     1      26.470   2.313  51.017  1.00  0.00     0.139 C 
BRANCH  21  22
HETATM   22  C6  UNL     1      26.463   1.191  52.037  1.00  0.00     0.057 C 
BRANCH  22  23
HETATM   23  C5  UNL     1      26.999   1.616  53.394  1.00  0.00     0.230 C 
HETATM   24  C2  UNL     1      28.450   1.279  53.569  1.00  0.00     0.039 C 
HETATM   25  C1  UNL     1      29.335   2.493  53.782  1.00  0.00     0.014 C 
HETATM   26  C3  UNL     1      28.703   0.342  54.719  1.00  0.00     0.176 C 
HETATM   27  O1  UNL     1      27.649  -0.543  54.857  1.00  0.00    -0.362 OA
HETATM   28  C4  UNL     1      26.454   0.064  55.165  1.00  0.00     0.438 C 
HETATM   29  N1  UNL     1      26.156   1.255  54.487  1.00  0.00     0.111 N 
HETATM   30  H9  UNL     1      25.165   1.313  54.167  1.00  0.00     0.319 HD
ENDBRANCH  22  23
ENDBRANCH  21  22
ENDBRANCH   1  21
TORSDOF 3
ENDMDL
MODEL 6
REMARK VINA RESULT:      -8.9      2.107      5.994
REMARK  3 active torsions:
REMARK  status: ('A' for Active; 'I' for Inactive)
REMARK    1  A    between atoms: C5_7  and  C6_8 
REMARK    2  A    between atoms: C6_8  and  C7_9 
REMARK    3  A    between atoms: C7_9  and  N2_10 
ROOT
HETATM    1  N2  UNL     1      22.190   1.368  52.787  1.00  0.00    -0.317 N 
HETATM    2  S1  UNL     1      21.039   0.026  52.719  1.00  0.00    -0.026 SA
HETATM    3  C8  UNL     1      21.904  -1.410  53.463  1.00  0.00     0.273 C 
HETATM    4  O2  UNL     1      22.960  -1.001  54.318  1.00  0.00    -0.335 OA
HETATM    5  C9  UNL     1      23.826   0.005  53.962  1.00  0.00     0.129 A 
HETATM    6  C10 UNL     1      23.494   1.130  53.242  1.00  0.00     0.077 A 
HETATM    7  C11 UNL     1      24.484   2.083  52.934  1.00  0.00     0.040 A 
HETATM    8  C12 UNL     1      25.619   1.646  53.474  1.00  0.00    -0.020 A 
HETATM    9  C13 UNL     1      26.826   2.136  53.408  1.00  0.00     0.061 A 
HETATM   10  C14 UNL     1      28.167   2.404  53.519  1.00  0.00     0.014 A 
HETATM   11  C15 UNL     1      28.629   1.320  54.326  1.00  0.00     0.110 A 
HETATM   12  N3  UNL     1      27.549   0.577  54.553  1.00  0.00    -0.278 NA
HETATM   13  C16 UNL     1      26.310   0.721  54.186  1.00  0.00     0.147 A 
HETATM   14  C17 UNL     1      25.116   0.091  54.231  1.00  0.00     0.118 A 
HETATM   15  O3  UNL     1      25.924  -0.967  54.828  1.00  0.00    -0.346 OA
HETATM   16  C18 UNL     1      26.165  -1.865  53.612  1.00  0.00     0.203 C 
HETATM   17  C19 UNL     1      26.463  -1.056  52.429  1.00  0.00    -0.000 C 
HETATM   18  C20 UNL     1      26.715  -0.072  51.534  1.00  0.00    -0.002 C 
HETATM   19  C21 UNL     1      26.902   1.401  51.233  1.00  0.00    -0.003 C 
HETATM   20  C22 UNL     1      26.969   2.635  51.936  1.00  0.00    -0.005 C 
ENDROOT
BRANCH   1  21
HETATM   21  C7  UNL     1      21.784   2.697  52.373  1.00  0.00     0.139 C 
BRANCH  21  22
HETATM   22  C6  UNL     1      21.308   2.542  50.942  1.00  0.00     0.057 C 
BRANCH  22  23
HETATM   23  C5  UNL     1      21.872   3.601  50.008  1.00  0.00     0.230 C 
HETATM   24  C2  UNL     1      23.225   4.084  50.439  1.00  0.00     0.039 C 
HETATM   25  C1  UNL     1      24.319   3.813  49.424  1.00  0.00     0.014 C 
HETATM   26  C3  UNL     1      23.256   5.559  50.738  1.00  0.00     0.176 C 
HETATM   27  O1  UNL     1      22.048   5.965  51.275  1.00  0.00    -0.362 OA
HETATM   28  C4  UNL     1      20.982   5.810  50.418  1.00  0.00     0.438 C 
HETATM   29  N1  UNL     1      20.940   4.626  49.667  1.00  0.00     0.111 N 
HETATM   30  H9  UNL     1      19.990   4.200  49.618  1.00  0.00     0.319 HD
ENDBRANCH  22  23
ENDBRANCH  21  22
ENDBRANCH   1  21
TORSDOF 3
ENDMDL
MODEL 7
REMARK VINA RESULT:      -8.5      9.629     12.691
REMARK  3 active torsions:
REMARK  status: ('A' for Active; 'I' for Inactive)
REMARK    1  A    between atoms: C5_7  and  C6_8 
REMARK    2  A    between atoms: C6_8  and  C7_9 
REMARK    3  A    between atoms: C7_9  and  N2_10 
ROOT
HETATM    1  N2  UNL     1      29.521   8.364  48.871  1.00  0.00    -0.317 N 
HETATM    2  S1  UNL     1      27.952   7.673  48.434  1.00  0.00    -0.026 SA
HETATM    3  C8  UNL     1      28.259   5.892  48.127  1.00  0.00     0.273 C 
HETATM    4  O2  UNL     1      29.436   5.442  48.782  1.00  0.00    -0.335 OA
HETATM    5  C9  UNL     1      30.593   6.184  48.770  1.00  0.00     0.129 A 
HETATM    6  C10 UNL     1      30.665   7.557  48.810  1.00  0.00     0.077 A 
HETATM    7  C11 UNL     1      31.920   8.194  48.782  1.00  0.00     0.040 A 
HETATM    8  C12 UNL     1      32.839   7.233  48.734  1.00  0.00    -0.020 A 
HETATM    9  C13 UNL     1      34.136   7.312  48.625  1.00  0.00     0.061 A 
HETATM   10  C14 UNL     1      35.485   7.082  48.519  1.00  0.00     0.014 A 
HETATM   11  C15 UNL     1      35.553   5.656  48.539  1.00  0.00     0.110 A 
HETATM   12  N3  UNL     1      34.288   5.254  48.627  1.00  0.00    -0.278 NA
HETATM   13  C16 UNL     1      33.174   5.918  48.699  1.00  0.00     0.147 A 
HETATM   14  C17 UNL     1      31.835   5.738  48.719  1.00  0.00     0.118 A 
HETATM   15  O3  UNL     1      32.223   4.349  48.492  1.00  0.00    -0.346 OA
HETATM   16  C18 UNL     1      32.048   4.246  46.975  1.00  0.00     0.203 C 
HETATM   17  C19 UNL     1      32.561   5.449  46.317  1.00  0.00    -0.000 C 
HETATM   18  C20 UNL     1      33.113   6.643  45.997  1.00  0.00    -0.002 C 
HETATM   19  C21 UNL     1      33.817   7.913  46.431  1.00  0.00    -0.003 C 
HETATM   20  C22 UNL     1      34.375   8.475  47.611  1.00  0.00    -0.005 C 
ENDROOT
BRANCH   1  21
HETATM   21  C7  UNL     1      29.616   9.750  49.285  1.00  0.00     0.139 C 
BRANCH  21  22
HETATM   22  C6  UNL     1      28.975  10.547  48.166  1.00  0.00     0.057 C 
BRANCH  22  23
HETATM   23  C5  UNL     1      29.832  10.609  46.912  1.00  0.00     0.230 C 
HETATM   24  C2  UNL     1      30.744  11.800  46.899  1.00  0.00     0.039 C 
HETATM   25  C1  UNL     1      32.217  11.437  46.867  1.00  0.00     0.014 C 
HETATM   26  C3  UNL     1      30.492  12.722  45.737  1.00  0.00     0.176 C 
HETATM   27  O1  UNL     1      29.146  12.735  45.418  1.00  0.00    -0.362 OA
HETATM   28  C4  UNL     1      28.664  11.516  45.000  1.00  0.00     0.438 C 
HETATM   29  N1  UNL     1      29.105  10.387  45.704  1.00  0.00     0.111 N 
HETATM   30  H9  UNL     1      28.346   9.699  45.902  1.00  0.00     0.319 HD
ENDBRANCH  22  23
ENDBRANCH  21  22
ENDBRANCH   1  21
TORSDOF 3
ENDMDL
MODEL 8
REMARK VINA RESULT:      -8.4      9.076     12.386
REMARK  3 active torsions:
REMARK  status: ('A' for Active; 'I' for Inactive)
REMARK    1  A    between atoms: C5_7  and  C6_8 
REMARK    2  A    between atoms: C6_8  and  C7_9 
REMARK    3  A    between atoms: C7_9  and  N2_10 
ROOT
HETATM    1  N2  UNL     1      29.591   9.370  47.336  1.00  0.00    -0.317 N 
HETATM    2  S1  UNL     1      29.813  11.009  47.962  1.00  0.00    -0.026 SA
HETATM    3  C8  UNL     1      31.610  11.351  47.836  1.00  0.00     0.273 C 
HETATM    4  O2  UNL     1      32.234  10.527  46.864  1.00  0.00    -0.335 OA
HETATM    5  C9  UNL     1      31.948   9.186  46.767  1.00  0.00     0.129 A 
HETATM    6  C10 UNL     1      30.716   8.612  46.983  1.00  0.00     0.077 A 
HETATM    7  C11 UNL     1      30.561   7.218  46.860  1.00  0.00     0.040 A 
HETATM    8  C12 UNL     1      31.748   6.728  46.514  1.00  0.00    -0.020 A 
HETATM    9  C13 UNL     1      32.134   5.493  46.349  1.00  0.00     0.061 A 
HETATM   10  C14 UNL     1      32.816   4.327  46.109  1.00  0.00     0.014 A 
HETATM   11  C15 UNL     1      34.126   4.799  45.793  1.00  0.00     0.110 A 
HETATM   12  N3  UNL     1      34.049   6.123  45.908  1.00  0.00    -0.278 NA
HETATM   13  C16 UNL     1      33.060   6.907  46.216  1.00  0.00     0.147 A 
HETATM   14  C17 UNL     1      32.776   8.206  46.455  1.00  0.00     0.118 A 
HETATM   15  O3  UNL     1      34.222   8.338  46.313  1.00  0.00    -0.346 OA
HETATM   16  C18 UNL     1      34.657   8.334  47.780  1.00  0.00     0.203 C 
HETATM   17  C19 UNL     1      33.909   7.325  48.533  1.00  0.00    -0.000 C 
HETATM   18  C20 UNL     1      33.093   6.330  48.953  1.00  0.00    -0.002 C 
HETATM   19  C21 UNL     1      32.061   5.267  48.634  1.00  0.00    -0.003 C 
HETATM   20  C22 UNL     1      31.425   4.703  47.495  1.00  0.00    -0.005 C 
ENDROOT
BRANCH   1  21
HETATM   21  C7  UNL     1      28.257   8.820  47.192  1.00  0.00     0.139 C 
BRANCH  21  22
HETATM   22  C6  UNL     1      27.581   9.055  48.529  1.00  0.00     0.057 C 
BRANCH  22  23
HETATM   23  C5  UNL     1      27.327   7.771  49.303  1.00  0.00     0.230 C 
HETATM   24  C2  UNL     1      26.917   6.636  48.413  1.00  0.00     0.039 C 
HETATM   25  C1  UNL     1      27.880   5.465  48.438  1.00  0.00     0.014 C 
HETATM   26  C3  UNL     1      25.553   6.093  48.742  1.00  0.00     0.176 C 
HETATM   27  O1  UNL     1      24.725   7.109  49.184  1.00  0.00    -0.362 OA
HETATM   28  C4  UNL     1      25.151   7.701  50.351  1.00  0.00     0.438 C 
HETATM   29  N1  UNL     1      26.526   7.949  50.470  1.00  0.00     0.111 N 
HETATM   30  H9  UNL     1      26.745   8.885  50.876  1.00  0.00     0.319 HD
ENDBRANCH  22  23
ENDBRANCH  21  22
ENDBRANCH   1  21
TORSDOF 3
ENDMDL
MODEL 9
REMARK VINA RESULT:      -8.3      7.076      9.925
REMARK  3 active torsions:
REMARK  status: ('A' for Active; 'I' for Inactive)
REMARK    1  A    between atoms: C5_7  and  C6_8 
REMARK    2  A    between atoms: C6_8  and  C7_9 
REMARK    3  A    between atoms: C7_9  and  N2_10 
ROOT
HETATM    1  N2  UNL     1      27.164   6.019  48.803  1.00  0.00    -0.317 N 
HETATM    2  S1  UNL     1      25.952   7.175  49.370  1.00  0.00    -0.026 SA
HETATM    3  C8  UNL     1      26.553   8.825  48.843  1.00  0.00     0.273 C 
HETATM    4  O2  UNL     1      27.455   8.731  47.751  1.00  0.00    -0.335 OA
HETATM    5  C9  UNL     1      28.444   7.777  47.715  1.00  0.00     0.129 A 
HETATM    6  C10 UNL     1      28.337   6.495  48.202  1.00  0.00     0.077 A 
HETATM    7  C11 UNL     1      29.435   5.617  48.110  1.00  0.00     0.040 A 
HETATM    8  C12 UNL     1      30.412   6.285  47.503  1.00  0.00    -0.020 A 
HETATM    9  C13 UNL     1      31.642   5.933  47.250  1.00  0.00     0.061 A 
HETATM   10  C14 UNL     1      32.954   5.849  46.857  1.00  0.00     0.014 A 
HETATM   11  C15 UNL     1      33.174   7.125  46.256  1.00  0.00     0.110 A 
HETATM   12  N3  UNL     1      32.019   7.771  46.391  1.00  0.00    -0.278 NA
HETATM   13  C16 UNL     1      30.886   7.413  46.917  1.00  0.00     0.147 A 
HETATM   14  C17 UNL     1      29.662   7.898  47.220  1.00  0.00     0.118 A 
HETATM   15  O3  UNL     1      30.263   9.144  46.757  1.00  0.00    -0.346 OA
HETATM   16  C18 UNL     1      30.665   9.783  48.088  1.00  0.00     0.203 C 
HETATM   17  C19 UNL     1      31.239   8.780  48.986  1.00  0.00    -0.000 C 
HETATM   18  C20 UNL     1      31.727   7.663  49.574  1.00  0.00    -0.002 C 
HETATM   19  C21 UNL     1      32.074   6.190  49.491  1.00  0.00    -0.003 C 
HETATM   20  C22 UNL     1      32.097   5.150  48.522  1.00  0.00    -0.005 C 
ENDROOT
BRANCH   1  21
HETATM   21  C7  UNL     1      26.941   4.595  48.961  1.00  0.00     0.139 C 
BRANCH  21  22
HETATM   22  C6  UNL     1      25.520   4.466  49.471  1.00  0.00     0.057 C 
BRANCH  22  23
HETATM   23  C5  UNL     1      25.438   3.866  50.866  1.00  0.00     0.230 C 
HETATM   24  C2  UNL     1      25.404   2.367  50.845  1.00  0.00     0.039 C 
HETATM   25  C1  UNL     1      26.580   1.722  51.553  1.00  0.00     0.014 C 
HETATM   26  C3  UNL     1      24.153   1.798  51.458  1.00  0.00     0.176 C 
HETATM   27  O1  UNL     1      23.077   2.631  51.214  1.00  0.00    -0.362 OA
HETATM   28  C4  UNL     1      23.202   3.878  51.782  1.00  0.00     0.438 C 
HETATM   29  N1  UNL     1      24.464   4.485  51.704  1.00  0.00     0.111 N 
HETATM   30  H9  UNL     1      24.422   5.499  51.463  1.00  0.00     0.319 HD
ENDBRANCH  22  23
ENDBRANCH  21  22
ENDBRANCH   1  21
TORSDOF 3
ENDMDL
