MODEL 1
REMARK VINA RESULT:      -8.8      0.000      0.000
REMARK  6 active torsions:
REMARK  status: ('A' for Active; 'I' for Inactive)
REMARK    1  A    between atoms: O1_2  and  C2_3 
REMARK    2  A    between atoms: C7_10  and  N3_11 
REMARK    3  A    between atoms: N3_11  and  C8_12 
REMARK    4  A    between atoms: C12_17  and  P1_18 
REMARK    5  A    between atoms: C15_22  and  O2_23 
REMARK    6  A    between atoms: O2_23  and  C16_24 
ROOT
HETATM    1  C2  UNL     1      23.258   0.063  53.278  1.00  0.00     0.149 C 
HETATM    2  C3  UNL     1      23.463   0.989  52.357  1.00  0.00     0.040 A 
HETATM    3  C4  UNL     1      22.665   1.110  51.142  1.00  0.00     0.047 A 
HETATM    4  C5  UNL     1      22.989   2.086  50.311  1.00  0.00     0.069 A 
HETATM    5  N1  UNL     1      22.180   2.182  49.147  1.00  0.00    -0.244 NA
HETATM    6  C6  UNL     1      22.255   3.322  48.496  1.00  0.00     0.235 C 
HETATM    7  N2  UNL     1      23.094   4.395  48.886  1.00  0.00    -0.226 NA
HETATM    8  C7  UNL     1      23.888   4.373  49.881  1.00  0.00     0.137 C 
HETATM    9  C14 UNL     1      24.064   3.047  50.449  1.00  0.00     0.232 A 
HETATM   10  N4  UNL     1      24.825   2.921  51.661  1.00  0.00    -0.247 NA
HETATM   11  C15 UNL     1      24.530   1.985  52.489  1.00  0.00     0.173 A 
ENDROOT
BRANCH   8  12
HETATM   12  N3  UNL     1      24.682   5.478  50.238  1.00  0.00    -0.342 N 
HETATM   13  H7  UNL     1      24.351   6.033  51.052  1.00  0.00     0.167 HD
BRANCH  12  14
HETATM   14  C8  UNL     1      25.861   5.834  49.552  1.00  0.00     0.034 A 
HETATM   15  C9  UNL     1      26.737   4.817  49.207  1.00  0.00     0.031 A 
HETATM   16  C10 UNL     1      27.926   4.993  48.533  1.00  0.00     0.027 A 
HETATM   17  C11 UNL     1      28.301   6.247  48.161  1.00  0.00     0.044 A 
HETATM   18 CL1  UNL     1      29.786   6.594  47.302  1.00  0.00    -0.083 Cl
HETATM   19  C12 UNL     1      27.473   7.304  48.474  1.00  0.00    -0.013 A 
HETATM   20  C13 UNL     1      26.302   7.066  49.147  1.00  0.00     0.043 A 
BRANCH  19  21
HETATM   21  P1  UNL     1      27.911   9.021  48.009  1.00  0.00    -0.105 P 
HETATM   22  H10 UNL     1      27.250   9.340  46.745  1.00  0.00     0.059 HD
HETATM   23  H11 UNL     1      27.387   9.932  49.005  1.00  0.00     0.059 HD
ENDBRANCH  19  21
ENDBRANCH  12  14
ENDBRANCH   8  12
BRANCH  11  24
HETATM   24  O2  UNL     1      25.339   1.950  53.623  1.00  0.00    -0.328 OA
BRANCH  24  25
HETATM   25  C16 UNL     1      26.582   1.272  53.588  1.00  0.00     0.133 C 
HETATM   26  C17 UNL     1      26.794   0.557  54.902  1.00  0.00     0.052 C 
HETATM   27  C18 UNL     1      28.099  -0.187  54.878  1.00  0.00     0.119 C 
HETATM   28  N5  UNL     1      29.187   0.542  54.325  1.00  0.00    -0.416 N 
HETATM   29  C19 UNL     1      30.010  -0.152  53.389  1.00  0.00     0.143 C 
HETATM   30  C20 UNL     1      28.977   1.914  54.072  1.00  0.00     0.119 C 
HETATM   31  C21 UNL     1      27.659   2.304  53.472  1.00  0.00     0.052 C 
ENDBRANCH  24  25
ENDBRANCH  11  24
BRANCH   1  32
HETATM   32  O1  UNL     1      22.238  -0.851  53.103  1.00  0.00    -0.367 OA
HETATM   33  C1  UNL     1      21.515  -1.308  54.231  1.00  0.00     0.208 C 
ENDBRANCH   1  32
TORSDOF 6
ENDMDL
MODEL 2
REMARK VINA RESULT:      -8.3      2.078      5.585
REMARK  6 active torsions:
REMARK  status: ('A' for Active; 'I' for Inactive)
REMARK    1  A    between atoms: O1_2  and  C2_3 
REMARK    2  A    between atoms: C7_10  and  N3_11 
REMARK    3  A    between atoms: N3_11  and  C8_12 
REMARK    4  A    between atoms: C12_17  and  P1_18 
REMARK    5  A    between atoms: C15_22  and  O2_23 
REMARK    6  A    between atoms: O2_23  and  C16_24 
ROOT
HETATM    1  C2  UNL     1      21.949  -0.144  52.738  1.00  0.00     0.149 C 
HETATM    2  C3  UNL     1      22.995   0.610  52.447  1.00  0.00     0.040 A 
HETATM    3  C4  UNL     1      24.191   0.685  53.278  1.00  0.00     0.047 A 
HETATM    4  C5  UNL     1      25.158   1.485  52.860  1.00  0.00     0.069 A 
HETATM    5  N1  UNL     1      26.313   1.521  53.686  1.00  0.00    -0.244 NA
HETATM    6  C6  UNL     1      27.394   2.023  53.130  1.00  0.00     0.235 C 
HETATM    7  N2  UNL     1      27.434   2.526  51.806  1.00  0.00    -0.226 NA
HETATM    8  C7  UNL     1      26.435   2.581  51.018  1.00  0.00     0.137 C 
HETATM    9  C14 UNL     1      25.166   2.321  51.677  1.00  0.00     0.232 A 
HETATM   10  N4  UNL     1      23.987   2.218  50.864  1.00  0.00    -0.247 NA
HETATM   11  C15 UNL     1      23.033   1.445  51.243  1.00  0.00     0.173 A 
ENDROOT
BRANCH   8  12
HETATM   12  N3  UNL     1      26.538   3.069  49.703  1.00  0.00    -0.342 N 
HETATM   13  H7  UNL     1      26.543   2.352  48.951  1.00  0.00     0.167 HD
BRANCH  12  14
HETATM   14  C8  UNL     1      26.628   4.442  49.395  1.00  0.00     0.034 A 
HETATM   15  C9  UNL     1      27.700   4.859  48.622  1.00  0.00     0.031 A 
HETATM   16  C10 UNL     1      27.932   6.160  48.229  1.00  0.00     0.027 A 
HETATM   17  C11 UNL     1      27.063   7.136  48.611  1.00  0.00     0.044 A 
HETATM   18 CL1  UNL     1      27.253   8.820  48.174  1.00  0.00    -0.083 Cl
HETATM   19  C12 UNL     1      25.974   6.786  49.382  1.00  0.00    -0.013 A 
HETATM   20  C13 UNL     1      25.797   5.475  49.741  1.00  0.00     0.043 A 
BRANCH  19  21
HETATM   21  P1  UNL     1      24.762   8.043  49.935  1.00  0.00    -0.105 P 
HETATM   22  H10 UNL     1      25.453   9.007  50.788  1.00  0.00     0.059 HD
HETATM   23  H11 UNL     1      24.270   8.770  48.783  1.00  0.00     0.059 HD
ENDBRANCH  19  21
ENDBRANCH  12  14
ENDBRANCH   8  12
BRANCH  11  24
HETATM   24  O2  UNL     1      21.935   1.430  50.386  1.00  0.00    -0.328 OA
BRANCH  24  25
HETATM   25  C16 UNL     1      21.693   2.526  49.522  1.00  0.00     0.133 C 
HETATM   26  C17 UNL     1      20.605   3.392  50.114  1.00  0.00     0.052 C 
HETATM   27  C18 UNL     1      20.347   4.574  49.224  1.00  0.00     0.119 C 
HETATM   28  N5  UNL     1      20.286   4.268  47.836  1.00  0.00    -0.416 N 
HETATM   29  C19 UNL     1      21.010   5.132  46.960  1.00  0.00     0.143 C 
HETATM   30  C20 UNL     1      20.255   2.904  47.480  1.00  0.00     0.119 C 
HETATM   31  C21 UNL     1      21.166   1.981  48.232  1.00  0.00     0.052 C 
ENDBRANCH  24  25
ENDBRANCH  11  24
BRANCH   1  32
HETATM   32  O1  UNL     1      21.967  -0.912  53.885  1.00  0.00    -0.367 OA
HETATM   33  C1  UNL     1      20.796  -1.608  54.271  1.00  0.00     0.208 C 
ENDBRANCH   1  32
TORSDOF 6
ENDMDL
MODEL 3
REMARK VINA RESULT:      -8.2      3.441      6.994
REMARK  6 active torsions:
REMARK  status: ('A' for Active; 'I' for Inactive)
REMARK    1  A    between atoms: O1_2  and  C2_3 
REMARK    2  A    between atoms: C7_10  and  N3_11 
REMARK    3  A    between atoms: N3_11  and  C8_12 
REMARK    4  A    between atoms: C12_17  and  P1_18 
REMARK    5  A    between atoms: C15_22  and  O2_23 
REMARK    6  A    between atoms: O2_23  and  C16_24 
ROOT
HETATM    1  C2  UNL     1      27.783   2.255  53.267  1.00  0.00     0.149 C 
HETATM    2  C3  UNL     1      26.780   1.398  53.346  1.00  0.00     0.040 A 
HETATM    3  C4  UNL     1      26.442   0.661  54.559  1.00  0.00     0.047 A 
HETATM    4  C5  UNL     1      25.411  -0.164  54.487  1.00  0.00     0.069 A 
HETATM    5  N1  UNL     1      25.104  -0.854  55.691  1.00  0.00    -0.244 NA
HETATM    6  C6  UNL     1      23.908  -1.398  55.744  1.00  0.00     0.235 C 
HETATM    7  N2  UNL     1      22.973  -1.343  54.681  1.00  0.00    -0.226 NA
HETATM    8  C7  UNL     1      23.186  -0.795  53.552  1.00  0.00     0.137 C 
HETATM    9  C14 UNL     1      24.580  -0.446  53.335  1.00  0.00     0.232 A 
HETATM   10  N4  UNL     1      24.918   0.305  52.157  1.00  0.00    -0.247 NA
HETATM   11  C15 UNL     1      25.912   1.117  52.199  1.00  0.00     0.173 A 
ENDROOT
BRANCH   8  12
HETATM   12  N3  UNL     1      22.211  -0.748  52.539  1.00  0.00    -0.342 N 
HETATM   13  H7  UNL     1      21.869  -1.667  52.193  1.00  0.00     0.167 HD
BRANCH  12  14
HETATM   14  C8  UNL     1      21.709   0.457  52.008  1.00  0.00     0.034 A 
HETATM   15  C9  UNL     1      21.368   1.461  52.899  1.00  0.00     0.031 A 
HETATM   16  C10 UNL     1      20.869   2.696  52.546  1.00  0.00     0.027 A 
HETATM   17  C11 UNL     1      20.685   2.988  51.229  1.00  0.00     0.044 A 
HETATM   18 CL1  UNL     1      20.059   4.520  50.660  1.00  0.00    -0.083 Cl
HETATM   19  C12 UNL     1      21.005   2.030  50.290  1.00  0.00    -0.013 A 
HETATM   20  C13 UNL     1      21.497   0.819  50.704  1.00  0.00     0.043 A 
BRANCH  19  21
HETATM   21  P1  UNL     1      20.782   2.348  48.499  1.00  0.00    -0.105 P 
HETATM   22  H10 UNL     1      21.453   1.284  47.755  1.00  0.00     0.059 HD
HETATM   23  H11 UNL     1      19.373   2.272  48.174  1.00  0.00     0.059 HD
ENDBRANCH  19  21
ENDBRANCH  12  14
ENDBRANCH   8  12
BRANCH  11  24
HETATM   24  O2  UNL     1      26.156   1.783  51.000  1.00  0.00    -0.328 OA
BRANCH  24  25
HETATM   25  C16 UNL     1      25.768   3.137  50.848  1.00  0.00     0.133 C 
HETATM   26  C17 UNL     1      24.399   3.192  50.212  1.00  0.00     0.052 C 
HETATM   27  C18 UNL     1      23.957   4.620  50.061  1.00  0.00     0.119 C 
HETATM   28  N5  UNL     1      24.962   5.501  49.576  1.00  0.00    -0.416 N 
HETATM   29  C19 UNL     1      25.102   6.747  50.259  1.00  0.00     0.143 C 
HETATM   30  C20 UNL     1      26.153   4.916  49.097  1.00  0.00     0.119 C 
HETATM   31  C21 UNL     1      26.721   3.779  49.890  1.00  0.00     0.052 C 
ENDBRANCH  24  25
ENDBRANCH  11  24
BRANCH   1  32
HETATM   32  O1  UNL     1      28.568   2.482  54.379  1.00  0.00    -0.367 OA
HETATM   33  C1  UNL     1      29.736   1.705  54.574  1.00  0.00     0.208 C 
ENDBRANCH   1  32
TORSDOF 6
ENDMDL
MODEL 4
REMARK VINA RESULT:      -7.8      4.833      7.946
REMARK  6 active torsions:
REMARK  status: ('A' for Active; 'I' for Inactive)
REMARK    1  A    between atoms: O1_2  and  C2_3 
REMARK    2  A    between atoms: C7_10  and  N3_11 
REMARK    3  A    between atoms: N3_11  and  C8_12 
REMARK    4  A    between atoms: C12_17  and  P1_18 
REMARK    5  A    between atoms: C15_22  and  O2_23 
REMARK    6  A    between atoms: O2_23  and  C16_24 
ROOT
HETATM    1  C2  UNL     1      27.423   0.480  52.820  1.00  0.00     0.149 C 
HETATM    2  C3  UNL     1      26.119   0.316  52.963  1.00  0.00     0.040 A 
HETATM    3  C4  UNL     1      25.516  -0.451  54.047  1.00  0.00     0.047 A 
HETATM    4  C5  UNL     1      24.196  -0.529  54.059  1.00  0.00     0.069 A 
HETATM    5  N1  UNL     1      23.644  -1.271  55.137  1.00  0.00    -0.244 NA
HETATM    6  C6  UNL     1      22.363  -1.076  55.363  1.00  0.00     0.235 C 
HETATM    7  N2  UNL     1      21.551  -0.213  54.587  1.00  0.00    -0.226 NA
HETATM    8  C7  UNL     1      21.951   0.446  53.574  1.00  0.00     0.137 C 
HETATM    9  C14 UNL     1      23.266   0.041  53.106  1.00  0.00     0.232 A 
HETATM   10  N4  UNL     1      23.880   0.808  52.057  1.00  0.00    -0.247 NA
HETATM   11  C15 UNL     1      25.160   0.904  52.023  1.00  0.00     0.173 A 
ENDROOT
BRANCH   8  12
HETATM   12  N3  UNL     1      21.106   1.310  52.853  1.00  0.00    -0.342 N 
HETATM   13  H7  UNL     1      21.355   2.318  52.882  1.00  0.00     0.167 HD
BRANCH  12  14
HETATM   14  C8  UNL     1      19.984   0.862  52.127  1.00  0.00     0.034 A 
HETATM   15  C9  UNL     1      19.895   1.221  50.792  1.00  0.00     0.031 A 
HETATM   16  C10 UNL     1      18.870   0.863  49.943  1.00  0.00     0.027 A 
HETATM   17  C11 UNL     1      17.850   0.098  50.418  1.00  0.00     0.044 A 
HETATM   18 CL1  UNL     1      16.496  -0.418  49.437  1.00  0.00    -0.083 Cl
HETATM   19  C12 UNL     1      17.877  -0.294  51.739  1.00  0.00    -0.013 A 
HETATM   20  C13 UNL     1      18.925   0.094  52.535  1.00  0.00     0.043 A 
BRANCH  19  21
HETATM   21  P1  UNL     1      16.540  -1.323  52.451  1.00  0.00    -0.105 P 
HETATM   22  H10 UNL     1      16.317  -2.466  51.569  1.00  0.00     0.059 HD
HETATM   23  H11 UNL     1      16.973  -1.850  53.729  1.00  0.00     0.059 HD
ENDBRANCH  19  21
ENDBRANCH  12  14
ENDBRANCH   8  12
BRANCH  11  24
HETATM   24  O2  UNL     1      25.648   1.660  50.959  1.00  0.00    -0.328 OA
BRANCH  24  25
HETATM   25  C16 UNL     1      25.357   3.044  50.880  1.00  0.00     0.133 C 
HETATM   26  C17 UNL     1      24.141   3.247  50.007  1.00  0.00     0.052 C 
HETATM   27  C18 UNL     1      23.801   4.708  49.927  1.00  0.00     0.119 C 
HETATM   28  N5  UNL     1      24.919   5.566  49.735  1.00  0.00    -0.416 N 
HETATM   29  C19 UNL     1      24.980   6.729  50.559  1.00  0.00     0.143 C 
HETATM   30  C20 UNL     1      26.153   4.954  49.430  1.00  0.00     0.119 C 
HETATM   31  C21 UNL     1      26.506   3.712  50.192  1.00  0.00     0.052 C 
ENDBRANCH  24  25
ENDBRANCH  11  24
BRANCH   1  32
HETATM   32  O1  UNL     1      28.281  -0.096  53.735  1.00  0.00    -0.367 OA
HETATM   33  C1  UNL     1      29.084  -1.192  53.339  1.00  0.00     0.208 C 
ENDBRANCH   1  32
TORSDOF 6
ENDMDL
MODEL 5
REMARK VINA RESULT:      -7.7      4.303      7.005
REMARK  6 active torsions:
REMARK  status: ('A' for Active; 'I' for Inactive)
REMARK    1  A    between atoms: O1_2  and  C2_3 
REMARK    2  A    between atoms: C7_10  and  N3_11 
REMARK    3  A    between atoms: N3_11  and  C8_12 
REMARK    4  A    between atoms: C12_17  and  P1_18 
REMARK    5  A    between atoms: C15_22  and  O2_23 
REMARK    6  A    between atoms: O2_23  and  C16_24 
ROOT
HETATM    1  C2  UNL     1      26.977   4.960  49.310  1.00  0.00     0.149 C 
HETATM    2  C3  UNL     1      25.728   4.535  49.376  1.00  0.00     0.040 A 
HETATM    3  C4  UNL     1      24.582   5.327  48.943  1.00  0.00     0.047 A 
HETATM    4  C5  UNL     1      23.390   4.769  49.071  1.00  0.00     0.069 A 
HETATM    5  N1  UNL     1      22.300   5.565  48.625  1.00  0.00    -0.244 NA
HETATM    6  C6  UNL     1      21.172   4.920  48.422  1.00  0.00     0.235 C 
HETATM    7  N2  UNL     1      21.011   3.530  48.645  1.00  0.00    -0.226 NA
HETATM    8  C7  UNL     1      21.917   2.756  49.093  1.00  0.00     0.137 C 
HETATM    9  C14 UNL     1      23.075   3.463  49.612  1.00  0.00     0.232 A 
HETATM   10  N4  UNL     1      24.219   2.693  50.014  1.00  0.00    -0.247 NA
HETATM   11  C15 UNL     1      25.390   3.208  49.898  1.00  0.00     0.173 A 
ENDROOT
BRANCH   8  12
HETATM   12  N3  UNL     1      21.710   1.376  49.273  1.00  0.00    -0.342 N 
HETATM   13  H7  UNL     1      22.173   0.752  48.582  1.00  0.00     0.167 HD
BRANCH  12  14
HETATM   14  C8  UNL     1      20.927   0.844  50.317  1.00  0.00     0.034 A 
HETATM   15  C9  UNL     1      19.565   0.714  50.100  1.00  0.00     0.031 A 
HETATM   16  C10 UNL     1      18.663   0.210  51.013  1.00  0.00     0.027 A 
HETATM   17  C11 UNL     1      19.109  -0.202  52.230  1.00  0.00     0.044 A 
HETATM   18 CL1  UNL     1      18.061  -0.859  53.468  1.00  0.00    -0.083 Cl
HETATM   19  C12 UNL     1      20.455  -0.101  52.510  1.00  0.00    -0.013 A 
HETATM   20  C13 UNL     1      21.304   0.410  51.561  1.00  0.00     0.043 A 
BRANCH  19  21
HETATM   21  P1  UNL     1      21.130  -0.634  54.128  1.00  0.00    -0.105 P 
HETATM   22  H10 UNL     1      22.289  -1.491  53.885  1.00  0.00     0.059 HD
HETATM   23  H11 UNL     1      21.604   0.528  54.852  1.00  0.00     0.059 HD
ENDBRANCH  19  21
ENDBRANCH  12  14
ENDBRANCH   8  12
BRANCH  11  24
HETATM   24  O2  UNL     1      26.424   2.378  50.327  1.00  0.00    -0.328 OA
BRANCH  24  25
HETATM   25  C16 UNL     1      26.428   1.875  51.651  1.00  0.00     0.133 C 
HETATM   26  C17 UNL     1      27.648   2.395  52.375  1.00  0.00     0.052 C 
HETATM   27  C18 UNL     1      27.661   1.891  53.790  1.00  0.00     0.119 C 
HETATM   28  N5  UNL     1      27.327   0.516  53.932  1.00  0.00    -0.416 N 
HETATM   29  C19 UNL     1      26.398   0.188  54.964  1.00  0.00     0.143 C 
HETATM   30  C20 UNL     1      27.241  -0.249  52.750  1.00  0.00     0.119 C 
HETATM   31  C21 UNL     1      26.566   0.388  51.573  1.00  0.00     0.052 C 
ENDBRANCH  24  25
ENDBRANCH  11  24
BRANCH   1  32
HETATM   32  O1  UNL     1      27.238   6.219  48.809  1.00  0.00    -0.367 OA
HETATM   33  C1  UNL     1      28.433   6.444  48.085  1.00  0.00     0.208 C 
ENDBRANCH   1  32
TORSDOF 6
ENDMDL
MODEL 6
REMARK VINA RESULT:      -7.7      4.349      6.773
REMARK  6 active torsions:
REMARK  status: ('A' for Active; 'I' for Inactive)
REMARK    1  A    between atoms: O1_2  and  C2_3 
REMARK    2  A    between atoms: C7_10  and  N3_11 
REMARK    3  A    between atoms: N3_11  and  C8_12 
REMARK    4  A    between atoms: C12_17  and  P1_18 
REMARK    5  A    between atoms: C15_22  and  O2_23 
REMARK    6  A    between atoms: O2_23  and  C16_24 
ROOT
HETATM    1  C2  UNL     1      27.171   4.588  49.016  1.00  0.00     0.149 C 
HETATM    2  C3  UNL     1      26.072   4.740  49.734  1.00  0.00     0.040 A 
HETATM    3  C4  UNL     1      25.190   5.896  49.624  1.00  0.00     0.047 A 
HETATM    4  C5  UNL     1      24.126   5.910  50.409  1.00  0.00     0.069 A 
HETATM    5  N1  UNL     1      23.282   7.044  50.263  1.00  0.00    -0.244 NA
HETATM    6  C6  UNL     1      22.072   6.920  50.764  1.00  0.00     0.235 C 
HETATM    7  N2  UNL     1      21.615   5.758  51.432  1.00  0.00    -0.226 NA
HETATM    8  C7  UNL     1      22.319   4.720  51.652  1.00  0.00     0.137 C 
HETATM    9  C14 UNL     1      23.735   4.919  51.390  1.00  0.00     0.232 A 
HETATM   10  N4  UNL     1      24.607   3.780  51.468  1.00  0.00    -0.247 NA
HETATM   11  C15 UNL     1      25.646   3.737  50.714  1.00  0.00     0.173 A 
ENDROOT
BRANCH   8  12
HETATM   12  N3  UNL     1      21.805   3.582  52.301  1.00  0.00    -0.342 N 
HETATM   13  H7  UNL     1      22.267   3.320  53.194  1.00  0.00     0.167 HD
BRANCH  12  14
HETATM   14  C8  UNL     1      20.729   2.826  51.793  1.00  0.00     0.034 A 
HETATM   15  C9  UNL     1      21.005   1.557  51.310  1.00  0.00     0.031 A 
HETATM   16  C10 UNL     1      20.071   0.690  50.786  1.00  0.00     0.027 A 
HETATM   17  C11 UNL     1      18.767   1.076  50.722  1.00  0.00     0.044 A 
HETATM   18 CL1  UNL     1      17.493   0.064  50.078  1.00  0.00    -0.083 Cl
HETATM   19  C12 UNL     1      18.425   2.329  51.186  1.00  0.00    -0.013 A 
HETATM   20  C13 UNL     1      19.401   3.147  51.697  1.00  0.00     0.043 A 
BRANCH  19  21
HETATM   21  P1  UNL     1      16.692   2.920  51.132  1.00  0.00    -0.105 P 
HETATM   22  H10 UNL     1      15.924   2.193  52.140  1.00  0.00     0.059 HD
HETATM   23  H11 UNL     1      16.656   4.321  51.497  1.00  0.00     0.059 HD
ENDBRANCH  19  21
ENDBRANCH  12  14
ENDBRANCH   8  12
BRANCH  11  24
HETATM   24  O2  UNL     1      26.425   2.594  50.880  1.00  0.00    -0.328 OA
BRANCH  24  25
HETATM   25  C16 UNL     1      26.428   1.910  52.121  1.00  0.00     0.133 C 
HETATM   26  C17 UNL     1      27.741   2.162  52.824  1.00  0.00     0.052 C 
HETATM   27  C18 UNL     1      27.756   1.463  54.153  1.00  0.00     0.119 C 
HETATM   28  N5  UNL     1      27.248   0.135  54.129  1.00  0.00    -0.416 N 
HETATM   29  C19 UNL     1      26.336  -0.218  55.168  1.00  0.00     0.143 C 
HETATM   30  C20 UNL     1      27.001  -0.435  52.863  1.00  0.00     0.119 C 
HETATM   31  C21 UNL     1      26.360   0.444  51.832  1.00  0.00     0.052 C 
ENDBRANCH  24  25
ENDBRANCH  11  24
BRANCH   1  32
HETATM   32  O1  UNL     1      27.525   5.563  48.106  1.00  0.00    -0.367 OA
HETATM   33  C1  UNL     1      28.859   6.035  48.077  1.00  0.00     0.208 C 
ENDBRANCH   1  32
TORSDOF 6
ENDMDL
MODEL 7
REMARK VINA RESULT:      -7.7      4.578      8.839
REMARK  6 active torsions:
REMARK  status: ('A' for Active; 'I' for Inactive)
REMARK    1  A    between atoms: O1_2  and  C2_3 
REMARK    2  A    between atoms: C7_10  and  N3_11 
REMARK    3  A    between atoms: N3_11  and  C8_12 
REMARK    4  A    between atoms: C12_17  and  P1_18 
REMARK    5  A    between atoms: C15_22  and  O2_23 
REMARK    6  A    between atoms: O2_23  and  C16_24 
ROOT
HETATM    1  C2  UNL     1      26.557   4.603  49.210  1.00  0.00     0.149 C 
HETATM    2  C3  UNL     1      25.976   3.686  49.965  1.00  0.00     0.040 A 
HETATM    3  C4  UNL     1      26.674   2.524  50.504  1.00  0.00     0.047 A 
HETATM    4  C5  UNL     1      25.960   1.691  51.242  1.00  0.00     0.069 A 
HETATM    5  N1  UNL     1      26.677   0.579  51.761  1.00  0.00    -0.244 NA
HETATM    6  C6  UNL     1      26.095  -0.057  52.755  1.00  0.00     0.235 C 
HETATM    7  N2  UNL     1      24.829   0.299  53.281  1.00  0.00    -0.226 NA
HETATM    8  C7  UNL     1      24.098   1.245  52.842  1.00  0.00     0.137 C 
HETATM    9  C14 UNL     1      24.552   1.779  51.569  1.00  0.00     0.232 A 
HETATM   10  N4  UNL     1      23.889   2.941  51.044  1.00  0.00    -0.247 NA
HETATM   11  C15 UNL     1      24.559   3.770  50.326  1.00  0.00     0.173 A 
ENDROOT
BRANCH   8  12
HETATM   12  N3  UNL     1      22.858   1.571  53.419  1.00  0.00    -0.342 N 
HETATM   13  H7  UNL     1      22.805   2.495  53.893  1.00  0.00     0.167 HD
BRANCH  12  14
HETATM   14  C8  UNL     1      21.737   0.717  53.372  1.00  0.00     0.034 A 
HETATM   15  C9  UNL     1      21.682  -0.324  54.285  1.00  0.00     0.031 A 
HETATM   16  C10 UNL     1      20.659  -1.242  54.375  1.00  0.00     0.027 A 
HETATM   17  C11 UNL     1      19.604  -1.151  53.520  1.00  0.00     0.044 A 
HETATM   18 CL1  UNL     1      18.248  -2.257  53.540  1.00  0.00    -0.083 Cl
HETATM   19  C12 UNL     1      19.597  -0.136  52.587  1.00  0.00    -0.013 A 
HETATM   20  C13 UNL     1      20.646   0.748  52.545  1.00  0.00     0.043 A 
BRANCH  19  21
HETATM   21  P1  UNL     1      18.214   0.052  51.400  1.00  0.00    -0.105 P 
HETATM   22  H10 UNL     1      17.515   1.300  51.699  1.00  0.00     0.059 HD
HETATM   23  H11 UNL     1      18.750   0.174  50.060  1.00  0.00     0.059 HD
ENDBRANCH  19  21
ENDBRANCH  12  14
ENDBRANCH   8  12
BRANCH  11  24
HETATM   24  O2  UNL     1      23.815   4.853  49.862  1.00  0.00    -0.328 OA
BRANCH  24  25
HETATM   25  C16 UNL     1      22.893   4.679  48.801  1.00  0.00     0.133 C 
HETATM   26  C17 UNL     1      23.144   5.733  47.748  1.00  0.00     0.052 C 
HETATM   27  C18 UNL     1      22.191   5.554  46.601  1.00  0.00     0.119 C 
HETATM   28  N5  UNL     1      20.847   5.290  46.984  1.00  0.00    -0.416 N 
HETATM   29  C19 UNL     1      20.184   4.231  46.295  1.00  0.00     0.143 C 
HETATM   30  C20 UNL     1      20.528   5.441  48.349  1.00  0.00     0.119 C 
HETATM   31  C21 UNL     1      21.521   4.922  49.345  1.00  0.00     0.052 C 
ENDBRANCH  24  25
ENDBRANCH  11  24
BRANCH   1  32
HETATM   32  O1  UNL     1      27.896   4.474  48.900  1.00  0.00    -0.367 OA
HETATM   33  C1  UNL     1      28.577   5.562  48.302  1.00  0.00     0.208 C 
ENDBRANCH   1  32
TORSDOF 6
ENDMDL
MODEL 8
REMARK VINA RESULT:      -7.3      7.062     10.026
REMARK  6 active torsions:
REMARK  status: ('A' for Active; 'I' for Inactive)
REMARK    1  A    between atoms: O1_2  and  C2_3 
REMARK    2  A    between atoms: C7_10  and  N3_11 
REMARK    3  A    between atoms: N3_11  and  C8_12 
REMARK    4  A    between atoms: C12_17  and  P1_18 
REMARK    5  A    between atoms: C15_22  and  O2_23 
REMARK    6  A    between atoms: O2_23  and  C16_24 
ROOT
HETATM    1  C2  UNL     1      21.549  -0.236  54.467  1.00  0.00     0.149 C 
HETATM    2  C3  UNL     1      20.414  -0.355  53.801  1.00  0.00     0.040 A 
HETATM    3  C4  UNL     1      19.537  -1.517  53.902  1.00  0.00     0.047 A 
HETATM    4  C5  UNL     1      18.434  -1.496  53.173  1.00  0.00     0.069 A 
HETATM    5  N1  UNL     1      17.598  -2.637  53.309  1.00  0.00    -0.244 NA
HETATM    6  C6  UNL     1      16.364  -2.491  52.878  1.00  0.00     0.235 C 
HETATM    7  N2  UNL     1      15.873  -1.299  52.289  1.00  0.00    -0.226 NA
HETATM    8  C7  UNL     1      16.567  -0.252  52.081  1.00  0.00     0.137 C 
HETATM    9  C14 UNL     1      17.994  -0.460  52.261  1.00  0.00     0.232 A 
HETATM   10  N4  UNL     1      18.862   0.682  52.191  1.00  0.00    -0.247 NA
HETATM   11  C15 UNL     1      19.939   0.691  52.891  1.00  0.00     0.173 A 
ENDROOT
BRANCH   8  12
HETATM   12  N3  UNL     1      16.021   0.914  51.514  1.00  0.00    -0.342 N 
HETATM   13  H7  UNL     1      16.371   1.167  50.569  1.00  0.00     0.167 HD
BRANCH  12  14
HETATM   14  C8  UNL     1      15.057   1.709  52.166  1.00  0.00     0.034 A 
HETATM   15  C9  UNL     1      15.390   3.024  52.449  1.00  0.00     0.031 A 
HETATM   16  C10 UNL     1      14.563   3.932  53.075  1.00  0.00     0.027 A 
HETATM   17  C11 UNL     1      13.316   3.543  53.457  1.00  0.00     0.044 A 
HETATM   18 CL1  UNL     1      12.180   4.606  54.258  1.00  0.00    -0.083 Cl
HETATM   19  C12 UNL     1      12.922   2.247  53.204  1.00  0.00    -0.013 A 
HETATM   20  C13 UNL     1      13.790   1.389  52.578  1.00  0.00     0.043 A 
BRANCH  19  21
HETATM   21  P1  UNL     1      11.260   1.650  53.690  1.00  0.00    -0.105 P 
HETATM   22  H10 UNL     1      10.593   2.705  54.449  1.00  0.00     0.059 HD
HETATM   23  H11 UNL     1      10.470   1.419  52.497  1.00  0.00     0.059 HD
ENDBRANCH  19  21
ENDBRANCH  12  14
ENDBRANCH   8  12
BRANCH  11  24
HETATM   24  O2  UNL     1      20.710   1.842  52.738  1.00  0.00    -0.328 OA
BRANCH  24  25
HETATM   25  C16 UNL     1      21.023   2.320  51.442  1.00  0.00     0.133 C 
HETATM   26  C17 UNL     1      22.171   1.515  50.881  1.00  0.00     0.052 C 
HETATM   27  C18 UNL     1      22.506   1.992  49.496  1.00  0.00     0.119 C 
HETATM   28  N5  UNL     1      22.538   3.406  49.348  1.00  0.00    -0.416 N 
HETATM   29  C19 UNL     1      21.871   3.943  48.207  1.00  0.00     0.143 C 
HETATM   30  C20 UNL     1      22.472   4.176  50.528  1.00  0.00     0.119 C 
HETATM   31  C21 UNL     1      21.503   3.730  51.581  1.00  0.00     0.052 C 
ENDBRANCH  24  25
ENDBRANCH  11  24
BRANCH   1  32
HETATM   32  O1  UNL     1      21.948  -1.252  55.311  1.00  0.00    -0.367 OA
HETATM   33  C1  UNL     1      23.329  -1.463  55.539  1.00  0.00     0.208 C 
ENDBRANCH   1  32
TORSDOF 6
ENDMDL
MODEL 9
REMARK VINA RESULT:      -7.3      4.285      6.856
REMARK  6 active torsions:
REMARK  status: ('A' for Active; 'I' for Inactive)
REMARK    1  A    between atoms: O1_2  and  C2_3 
REMARK    2  A    between atoms: C7_10  and  N3_11 
REMARK    3  A    between atoms: N3_11  and  C8_12 
REMARK    4  A    between atoms: C12_17  and  P1_18 
REMARK    5  A    between atoms: C15_22  and  O2_23 
REMARK    6  A    between atoms: O2_23  and  C16_24 
ROOT
HETATM    1  C2  UNL     1      25.592   6.432  50.058  1.00  0.00     0.149 C 
HETATM    2  C3  UNL     1      24.632   5.659  49.582  1.00  0.00     0.040 A 
HETATM    3  C4  UNL     1      23.859   5.976  48.386  1.00  0.00     0.047 A 
HETATM    4  C5  UNL     1      22.928   5.107  48.031  1.00  0.00     0.069 A 
HETATM    5  N1  UNL     1      22.206   5.442  46.854  1.00  0.00    -0.244 NA
HETATM    6  C6  UNL     1      21.535   4.456  46.299  1.00  0.00     0.235 C 
HETATM    7  N2  UNL     1      21.492   3.142  46.826  1.00  0.00    -0.226 NA
HETATM    8  C7  UNL     1      22.064   2.770  47.902  1.00  0.00     0.137 C 
HETATM    9  C14 UNL     1      22.562   3.876  48.701  1.00  0.00     0.232 A 
HETATM   10  N4  UNL     1      23.348   3.574  49.866  1.00  0.00    -0.247 NA
HETATM   11  C15 UNL     1      24.262   4.398  50.232  1.00  0.00     0.173 A 
ENDROOT
BRANCH   8  12
HETATM   12  N3  UNL     1      22.008   1.443  48.366  1.00  0.00    -0.342 N 
HETATM   13  H7  UNL     1      22.578   0.752  47.839  1.00  0.00     0.167 HD
BRANCH  12  14
HETATM   14  C8  UNL     1      21.236   1.048  49.477  1.00  0.00     0.034 A 
HETATM   15  C9  UNL     1      21.909   0.616  50.609  1.00  0.00     0.031 A 
HETATM   16  C10 UNL     1      21.306   0.201  51.776  1.00  0.00     0.027 A 
HETATM   17  C11 UNL     1      19.948   0.202  51.862  1.00  0.00     0.044 A 
HETATM   18 CL1  UNL     1      19.072  -0.303  53.290  1.00  0.00    -0.083 Cl
HETATM   19  C12 UNL     1      19.218   0.621  50.770  1.00  0.00    -0.013 A 
HETATM   20  C13 UNL     1      19.875   1.023  49.635  1.00  0.00     0.043 A 
BRANCH  19  21
HETATM   21  P1  UNL     1      17.387   0.650  50.808  1.00  0.00    -0.105 P 
HETATM   22  H10 UNL     1      16.889  -0.296  49.812  1.00  0.00     0.059 HD
HETATM   23  H11 UNL     1      16.931   0.185  52.102  1.00  0.00     0.059 HD
ENDBRANCH  19  21
ENDBRANCH  12  14
ENDBRANCH   8  12
BRANCH  11  24
HETATM   24  O2  UNL     1      24.955   4.011  51.377  1.00  0.00    -0.328 OA
BRANCH  24  25
HETATM   25  C16 UNL     1      25.253   2.644  51.598  1.00  0.00     0.133 C 
HETATM   26  C17 UNL     1      24.701   2.227  52.941  1.00  0.00     0.052 C 
HETATM   27  C18 UNL     1      24.988   0.773  53.187  1.00  0.00     0.119 C 
HETATM   28  N5  UNL     1      26.305   0.363  52.843  1.00  0.00    -0.416 N 
HETATM   29  C19 UNL     1      26.423  -0.849  52.099  1.00  0.00     0.143 C 
HETATM   30  C20 UNL     1      27.232   1.379  52.528  1.00  0.00     0.119 C 
HETATM   31  C21 UNL     1      26.741   2.510  51.676  1.00  0.00     0.052 C 
ENDBRANCH  24  25
ENDBRANCH  11  24
BRANCH   1  32
HETATM   32  O1  UNL     1      25.899   7.609  49.406  1.00  0.00    -0.367 OA
HETATM   33  C1  UNL     1      26.795   8.524  50.009  1.00  0.00     0.208 C 
ENDBRANCH   1  32
TORSDOF 6
ENDMDL
