MODEL 1
REMARK VINA RESULT:      -8.4      0.000      0.000
REMARK  7 active torsions:
REMARK  status: ('A' for Active; 'I' for Inactive)
REMARK    1  A    between atoms: O1_2  and  C2_3 
REMARK    2  A    between atoms: C6_9  and  N3_10 
REMARK    3  A    between atoms: N3_10  and  C7_11 
REMARK    4  A    between atoms: C8_12  and  C9_13 
REMARK    5  A    between atoms: C10_14  and  C12_16 
REMARK    6  A    between atoms: C15_20  and  N4_21 
REMARK       I    between atoms: N4_21  and  C16_22 
REMARK    7  A    between atoms: C16_22  and  C17_24 
ROOT
HETATM    1  C2  UNL     1      21.788   3.580  52.029  1.00  0.00     0.097 A 
HETATM    2  C3  UNL     1      21.012   2.436  52.248  1.00  0.00     0.071 A 
HETATM    3  C4  UNL     1      21.652   1.306  52.733  1.00  0.00     0.075 A 
HETATM    4  N1  UNL     1      20.865   0.229  52.929  1.00  0.00    -0.241 NA
HETATM    5  C5  UNL     1      21.380  -0.913  53.393  1.00  0.00     0.236 A 
HETATM    6  N2  UNL     1      22.709  -0.967  53.663  1.00  0.00    -0.224 NA
HETATM    7  C6  UNL     1      23.477   0.115  53.463  1.00  0.00     0.141 A 
HETATM    8  C13 UNL     1      22.991   1.311  52.987  1.00  0.00     0.041 A 
HETATM    9  C14 UNL     1      23.793   2.405  52.789  1.00  0.00     0.050 A 
HETATM   10  C15 UNL     1      23.137   3.526  52.304  1.00  0.00     0.069 A 
ENDROOT
BRANCH  10  11
HETATM   11  N4  UNL     1      23.958   4.691  52.086  1.00  0.00    -0.323 N 
HETATM   12  C16 UNL     1      24.563   4.562  50.813  1.00  0.00     0.247 C 
HETATM   13  O2  UNL     1      24.336   3.538  50.085  1.00  0.00    -0.271 OA
HETATM   14  H16 UNL     1      24.250   5.578  52.543  1.00  0.00     0.169 HD
BRANCH  12  15
HETATM   15  C17 UNL     1      25.490   5.427  50.066  1.00  0.00     0.203 C 
HETATM   16  C18 UNL     1      24.945   5.916  48.748  1.00  0.00     0.215 C 
HETATM   17  O3  UNL     1      26.139   6.469  48.173  1.00  0.00    -0.301 OA
HETATM   18  C19 UNL     1      27.186   5.657  48.625  1.00  0.00     0.361 C 
HETATM   19  O4  UNL     1      28.339   5.799  48.094  1.00  0.00    -0.238 OA
HETATM   20  N5  UNL     1      26.716   4.773  49.663  1.00  0.00    -0.321 N 
HETATM   21  H20 UNL     1      27.267   3.942  49.899  1.00  0.00     0.165 HD
ENDBRANCH  12  15
ENDBRANCH  10  11
BRANCH   1  22
HETATM   22  O1  UNL     1      21.284   4.765  51.554  1.00  0.00    -0.354 OA
HETATM   23  C1  UNL     1      20.808   4.923  50.243  1.00  0.00     0.210 C 
ENDBRANCH   1  22
BRANCH   7  24
HETATM   24  N3  UNL     1      24.859  -0.037  53.775  1.00  0.00    -0.350 N 
HETATM   25  H6  UNL     1      25.456   0.407  54.477  1.00  0.00     0.166 HD
BRANCH  24  26
HETATM   26  C7  UNL     1      25.654  -0.952  53.033  1.00  0.00     0.090 C 
HETATM   27  C8  UNL     1      26.797  -0.610  52.475  1.00  0.00     0.017 C 
BRANCH  27  28
HETATM   28  C9  UNL     1      27.284   0.747  52.608  1.00  0.00     0.006 C 
HETATM   29  C10 UNL     1      28.191   1.126  53.493  1.00  0.00    -0.056 C 
HETATM   30  C11 UNL     1      28.701   2.510  53.644  1.00  0.00     0.046 C 
BRANCH  29  31
HETATM   31  C12 UNL     1      28.864   0.260  54.488  1.00  0.00     0.256 C 
HETATM   32  F1  UNL     1      29.917  -0.430  53.870  1.00  0.00    -0.251 F 
ENDBRANCH  29  31
ENDBRANCH  27  28
ENDBRANCH  24  26
ENDBRANCH   7  24
TORSDOF 7
ENDMDL
MODEL 2
REMARK VINA RESULT:      -8.1      1.604      1.712
REMARK  7 active torsions:
REMARK  status: ('A' for Active; 'I' for Inactive)
REMARK    1  A    between atoms: O1_2  and  C2_3 
REMARK    2  A    between atoms: C6_9  and  N3_10 
REMARK    3  A    between atoms: N3_10  and  C7_11 
REMARK    4  A    between atoms: C8_12  and  C9_13 
REMARK    5  A    between atoms: C10_14  and  C12_16 
REMARK    6  A    between atoms: C15_20  and  N4_21 
REMARK       I    between atoms: N4_21  and  C16_22 
REMARK    7  A    between atoms: C16_22  and  C17_24 
ROOT
HETATM    1  C2  UNL     1      21.043   2.634  51.712  1.00  0.00     0.097 A 
HETATM    2  C3  UNL     1      20.469   1.616  52.482  1.00  0.00     0.071 A 
HETATM    3  C4  UNL     1      21.323   0.759  53.157  1.00  0.00     0.075 A 
HETATM    4  N1  UNL     1      20.725  -0.205  53.886  1.00  0.00    -0.241 NA
HETATM    5  C5  UNL     1      21.457  -1.086  54.577  1.00  0.00     0.236 A 
HETATM    6  N2  UNL     1      22.809  -0.990  54.530  1.00  0.00    -0.224 NA
HETATM    7  C6  UNL     1      23.387  -0.023  53.799  1.00  0.00     0.141 A 
HETATM    8  C13 UNL     1      22.676   0.904  53.074  1.00  0.00     0.041 A 
HETATM    9  C14 UNL     1      23.285   1.884  52.333  1.00  0.00     0.050 A 
HETATM   10  C15 UNL     1      22.416   2.732  51.664  1.00  0.00     0.069 A 
ENDROOT
BRANCH  10  11
HETATM   11  N4  UNL     1      23.033   3.772  50.878  1.00  0.00    -0.323 N 
HETATM   12  C16 UNL     1      23.400   4.818  51.758  1.00  0.00     0.247 C 
HETATM   13  O2  UNL     1      23.168   4.729  53.010  1.00  0.00    -0.271 OA
HETATM   14  H16 UNL     1      23.292   4.007  49.900  1.00  0.00     0.169 HD
BRANCH  12  15
HETATM   15  C17 UNL     1      24.054   6.117  51.532  1.00  0.00     0.203 C 
HETATM   16  C18 UNL     1      23.248   7.072  50.688  1.00  0.00     0.215 C 
HETATM   17  O3  UNL     1      24.240   8.080  50.435  1.00  0.00    -0.301 OA
HETATM   18  C19 UNL     1      25.459   7.398  50.352  1.00  0.00     0.361 C 
HETATM   19  O4  UNL     1      26.482   8.031  49.923  1.00  0.00    -0.238 OA
HETATM   20  N5  UNL     1      25.296   6.034  50.795  1.00  0.00    -0.321 N 
HETATM   21  H20 UNL     1      26.002   5.338  50.538  1.00  0.00     0.165 HD
ENDBRANCH  12  15
ENDBRANCH  10  11
BRANCH   1  22
HETATM   22  O1  UNL     1      20.316   3.551  50.994  1.00  0.00    -0.354 OA
HETATM   23  C1  UNL     1      19.129   3.227  50.319  1.00  0.00     0.210 C 
ENDBRANCH   1  22
BRANCH   7  24
HETATM   24  N3  UNL     1      24.811  -0.002  53.812  1.00  0.00    -0.350 N 
HETATM   25  H6  UNL     1      25.484   0.528  54.371  1.00  0.00     0.166 HD
BRANCH  24  26
HETATM   26  C7  UNL     1      25.538  -0.837  52.920  1.00  0.00     0.090 C 
HETATM   27  C8  UNL     1      26.651  -0.449  52.331  1.00  0.00     0.017 C 
BRANCH  27  28
HETATM   28  C9  UNL     1      27.174   0.877  52.587  1.00  0.00     0.006 C 
HETATM   29  C10 UNL     1      28.231   1.124  53.343  1.00  0.00    -0.056 C 
HETATM   30  C11 UNL     1      28.780   2.474  53.617  1.00  0.00     0.046 C 
BRANCH  29  31
HETATM   31  C12 UNL     1      29.057   0.120  54.052  1.00  0.00     0.256 C 
HETATM   32  F1  UNL     1      30.291  -0.012  53.400  1.00  0.00    -0.251 F 
ENDBRANCH  29  31
ENDBRANCH  27  28
ENDBRANCH  24  26
ENDBRANCH   7  24
TORSDOF 7
ENDMDL
MODEL 3
REMARK VINA RESULT:      -8.0      3.366      6.024
REMARK  7 active torsions:
REMARK  status: ('A' for Active; 'I' for Inactive)
REMARK    1  A    between atoms: O1_2  and  C2_3 
REMARK    2  A    between atoms: C6_9  and  N3_10 
REMARK    3  A    between atoms: N3_10  and  C7_11 
REMARK    4  A    between atoms: C8_12  and  C9_13 
REMARK    5  A    between atoms: C10_14  and  C12_16 
REMARK    6  A    between atoms: C15_20  and  N4_21 
REMARK       I    between atoms: N4_21  and  C16_22 
REMARK    7  A    between atoms: C16_22  and  C17_24 
ROOT
HETATM    1  C2  UNL     1      22.744   0.593  52.991  1.00  0.00     0.097 A 
HETATM    2  C3  UNL     1      21.455   1.135  53.051  1.00  0.00     0.071 A 
HETATM    3  C4  UNL     1      21.190   2.258  52.284  1.00  0.00     0.075 A 
HETATM    4  N1  UNL     1      19.935   2.744  52.374  1.00  0.00    -0.241 NA
HETATM    5  C5  UNL     1      19.574   3.824  51.676  1.00  0.00     0.236 A 
HETATM    6  N2  UNL     1      20.492   4.421  50.876  1.00  0.00    -0.224 NA
HETATM    7  C6  UNL     1      21.737   3.924  50.798  1.00  0.00     0.141 A 
HETATM    8  C13 UNL     1      22.154   2.815  51.497  1.00  0.00     0.041 A 
HETATM    9  C14 UNL     1      23.430   2.323  51.404  1.00  0.00     0.050 A 
HETATM   10  C15 UNL     1      23.677   1.199  52.178  1.00  0.00     0.069 A 
ENDROOT
BRANCH  10  11
HETATM   11  N4  UNL     1      25.013   0.662  52.098  1.00  0.00    -0.323 N 
HETATM   12  C16 UNL     1      25.824   1.381  53.009  1.00  0.00     0.247 C 
HETATM   13  O2  UNL     1      25.330   2.320  53.719  1.00  0.00    -0.271 OA
HETATM   14  H16 UNL     1      25.570  -0.063  51.605  1.00  0.00     0.169 HD
BRANCH  12  15
HETATM   15  C17 UNL     1      27.250   1.280  53.356  1.00  0.00     0.203 C 
HETATM   16  C18 UNL     1      27.560   0.219  54.382  1.00  0.00     0.215 C 
HETATM   17  O3  UNL     1      28.920   0.559  54.690  1.00  0.00    -0.301 OA
HETATM   18  C19 UNL     1      28.995   1.952  54.585  1.00  0.00     0.361 C 
HETATM   19  O4  UNL     1      30.045   2.540  55.014  1.00  0.00    -0.238 OA
HETATM   20  N5  UNL     1      27.793   2.469  53.976  1.00  0.00    -0.321 N 
HETATM   21  H20 UNL     1      27.569   3.463  54.080  1.00  0.00     0.165 HD
ENDBRANCH  12  15
ENDBRANCH  10  11
BRANCH   1  22
HETATM   22  O1  UNL     1      23.141  -0.514  53.697  1.00  0.00    -0.354 OA
HETATM   23  C1  UNL     1      22.385  -1.068  54.741  1.00  0.00     0.210 C 
ENDBRANCH   1  22
BRANCH   7  24
HETATM   24  N3  UNL     1      22.631   4.617  49.932  1.00  0.00    -0.350 N 
HETATM   25  H6  UNL     1      23.109   4.337  49.073  1.00  0.00     0.166 HD
BRANCH  24  26
HETATM   26  C7  UNL     1      22.996   5.960  50.222  1.00  0.00     0.090 C 
HETATM   27  C8  UNL     1      24.250   6.363  50.263  1.00  0.00     0.017 C 
BRANCH  27  28
HETATM   28  C9  UNL     1      25.316   5.417  50.006  1.00  0.00     0.006 C 
HETATM   29  C10 UNL     1      26.276   5.607  49.116  1.00  0.00    -0.056 C 
HETATM   30  C11 UNL     1      27.375   4.651  48.839  1.00  0.00     0.046 C 
BRANCH  29  31
HETATM   31  C12 UNL     1      26.440   6.788  48.238  1.00  0.00     0.256 C 
HETATM   32  F1  UNL     1      27.681   6.719  47.590  1.00  0.00    -0.251 F 
ENDBRANCH  29  31
ENDBRANCH  27  28
ENDBRANCH  24  26
ENDBRANCH   7  24
TORSDOF 7
ENDMDL
MODEL 4
REMARK VINA RESULT:      -8.0      3.751      6.288
REMARK  7 active torsions:
REMARK  status: ('A' for Active; 'I' for Inactive)
REMARK    1  A    between atoms: O1_2  and  C2_3 
REMARK    2  A    between atoms: C6_9  and  N3_10 
REMARK    3  A    between atoms: N3_10  and  C7_11 
REMARK    4  A    between atoms: C8_12  and  C9_13 
REMARK    5  A    between atoms: C10_14  and  C12_16 
REMARK    6  A    between atoms: C15_20  and  N4_21 
REMARK       I    between atoms: N4_21  and  C16_22 
REMARK    7  A    between atoms: C16_22  and  C17_24 
ROOT
HETATM    1  C2  UNL     1      22.712   0.275  52.973  1.00  0.00     0.097 A 
HETATM    2  C3  UNL     1      21.743   0.187  51.968  1.00  0.00     0.071 A 
HETATM    3  C4  UNL     1      21.932   0.943  50.822  1.00  0.00     0.075 A 
HETATM    4  N1  UNL     1      20.974   0.826  49.880  1.00  0.00    -0.241 NA
HETATM    5  C5  UNL     1      21.058   1.512  48.736  1.00  0.00     0.236 A 
HETATM    6  N2  UNL     1      22.125   2.326  48.541  1.00  0.00    -0.224 NA
HETATM    7  C6  UNL     1      23.070   2.430  49.489  1.00  0.00     0.141 A 
HETATM    8  C13 UNL     1      23.026   1.744  50.680  1.00  0.00     0.041 A 
HETATM    9  C14 UNL     1      24.002   1.864  51.636  1.00  0.00     0.050 A 
HETATM   10  C15 UNL     1      23.796   1.101  52.775  1.00  0.00     0.069 A 
ENDROOT
BRANCH  10  11
HETATM   11  N4  UNL     1      24.809   1.210  53.796  1.00  0.00    -0.323 N 
HETATM   12  C16 UNL     1      25.923   0.440  53.384  1.00  0.00     0.247 C 
HETATM   13  O2  UNL     1      25.902  -0.193  52.275  1.00  0.00    -0.271 OA
HETATM   14  H16 UNL     1      24.992   1.656  54.717  1.00  0.00     0.169 HD
BRANCH  12  15
HETATM   15  C17 UNL     1      27.229   0.177  54.007  1.00  0.00     0.203 C 
HETATM   16  C18 UNL     1      28.229   1.293  53.833  1.00  0.00     0.215 C 
HETATM   17  O3  UNL     1      29.421   0.633  54.287  1.00  0.00    -0.301 OA
HETATM   18  C19 UNL     1      29.282  -0.705  53.901  1.00  0.00     0.361 C 
HETATM   19  O4  UNL     1      30.298  -1.474  53.995  1.00  0.00    -0.238 OA
HETATM   20  N5  UNL     1      27.936  -0.954  53.447  1.00  0.00    -0.321 N 
HETATM   21  H20 UNL     1      27.746  -1.785  52.879  1.00  0.00     0.165 HD
ENDBRANCH  12  15
ENDBRANCH  10  11
BRANCH   1  22
HETATM   22  O1  UNL     1      22.650  -0.418  54.156  1.00  0.00    -0.354 OA
HETATM   23  C1  UNL     1      21.901  -1.594  54.316  1.00  0.00     0.210 C 
ENDBRANCH   1  22
BRANCH   7  24
HETATM   24  N3  UNL     1      24.152   3.308  49.194  1.00  0.00    -0.350 N 
HETATM   25  H6  UNL     1      25.104   3.136  48.861  1.00  0.00     0.166 HD
BRANCH  24  26
HETATM   26  C7  UNL     1      23.989   4.710  49.358  1.00  0.00     0.090 C 
HETATM   27  C8  UNL     1      24.991   5.560  49.255  1.00  0.00     0.017 C 
BRANCH  27  28
HETATM   28  C9  UNL     1      26.322   5.068  48.964  1.00  0.00     0.006 C 
HETATM   29  C10 UNL     1      27.330   5.837  48.588  1.00  0.00    -0.056 C 
HETATM   30  C11 UNL     1      28.699   5.351  48.286  1.00  0.00     0.046 C 
BRANCH  29  31
HETATM   31  C12 UNL     1      27.293   7.305  48.400  1.00  0.00     0.256 C 
HETATM   32  F1  UNL     1      27.117   7.596  47.039  1.00  0.00    -0.251 F 
ENDBRANCH  29  31
ENDBRANCH  27  28
ENDBRANCH  24  26
ENDBRANCH   7  24
TORSDOF 7
ENDMDL
MODEL 5
REMARK VINA RESULT:      -7.9      2.848      5.186
REMARK  7 active torsions:
REMARK  status: ('A' for Active; 'I' for Inactive)
REMARK    1  A    between atoms: O1_2  and  C2_3 
REMARK    2  A    between atoms: C6_9  and  N3_10 
REMARK    3  A    between atoms: N3_10  and  C7_11 
REMARK    4  A    between atoms: C8_12  and  C9_13 
REMARK    5  A    between atoms: C10_14  and  C12_16 
REMARK    6  A    between atoms: C15_20  and  N4_21 
REMARK       I    between atoms: N4_21  and  C16_22 
REMARK    7  A    between atoms: C16_22  and  C17_24 
ROOT
HETATM    1  C2  UNL     1      27.181   1.022  53.096  1.00  0.00     0.097 A 
HETATM    2  C3  UNL     1      26.851   0.340  54.273  1.00  0.00     0.071 A 
HETATM    3  C4  UNL     1      25.572  -0.182  54.379  1.00  0.00     0.075 A 
HETATM    4  N1  UNL     1      25.300  -0.831  55.530  1.00  0.00    -0.241 NA
HETATM    5  C5  UNL     1      24.095  -1.373  55.735  1.00  0.00     0.236 A 
HETATM    6  N2  UNL     1      23.155  -1.259  54.764  1.00  0.00    -0.224 NA
HETATM    7  C6  UNL     1      23.443  -0.610  53.625  1.00  0.00     0.141 A 
HETATM    8  C13 UNL     1      24.667  -0.037  53.370  1.00  0.00     0.041 A 
HETATM    9  C14 UNL     1      24.942   0.622  52.199  1.00  0.00     0.050 A 
HETATM   10  C15 UNL     1      26.226   1.138  52.111  1.00  0.00     0.069 A 
ENDROOT
BRANCH  10  11
HETATM   11  N4  UNL     1      26.540   1.836  50.888  1.00  0.00    -0.323 N 
HETATM   12  C16 UNL     1      25.827   3.058  50.893  1.00  0.00     0.247 C 
HETATM   13  O2  UNL     1      25.069   3.367  51.873  1.00  0.00    -0.271 OA
HETATM   14  H16 UNL     1      27.105   1.744  50.021  1.00  0.00     0.169 HD
BRANCH  12  15
HETATM   15  C17 UNL     1      25.752   4.164  49.925  1.00  0.00     0.203 C 
HETATM   16  C18 UNL     1      27.018   4.373  49.132  1.00  0.00     0.215 C 
HETATM   17  O3  UNL     1      26.722   5.637  48.519  1.00  0.00    -0.301 OA
HETATM   18  C19 UNL     1      25.957   6.342  49.454  1.00  0.00     0.361 C 
HETATM   19  O4  UNL     1      25.734   7.583  49.249  1.00  0.00    -0.238 OA
HETATM   20  N5  UNL     1      25.552   5.464  50.526  1.00  0.00    -0.321 N 
HETATM   21  H20 UNL     1      25.235   5.871  51.411  1.00  0.00     0.165 HD
ENDBRANCH  12  15
ENDBRANCH  10  11
BRANCH   1  22
HETATM   22  O1  UNL     1      28.409   1.587  52.860  1.00  0.00    -0.354 OA
HETATM   23  C1  UNL     1      29.029   2.471  53.756  1.00  0.00     0.210 C 
ENDBRANCH   1  22
BRANCH   7  24
HETATM   24  N3  UNL     1      22.393  -0.541  52.666  1.00  0.00    -0.350 N 
HETATM   25  H6  UNL     1      22.220  -1.058  51.799  1.00  0.00     0.166 HD
BRANCH  24  26
HETATM   26  C7  UNL     1      21.330   0.385  52.846  1.00  0.00     0.090 C 
HETATM   27  C8  UNL     1      20.954   1.227  51.905  1.00  0.00     0.017 C 
BRANCH  27  28
HETATM   28  C9  UNL     1      21.635   1.226  50.626  1.00  0.00     0.006 C 
HETATM   29  C10 UNL     1      22.028   2.320  49.996  1.00  0.00    -0.056 C 
HETATM   30  C11 UNL     1      22.726   2.339  48.687  1.00  0.00     0.046 C 
BRANCH  29  31
HETATM   31  C12 UNL     1      21.854   3.715  50.462  1.00  0.00     0.256 C 
HETATM   32  F1  UNL     1      20.646   4.225  49.965  1.00  0.00    -0.251 F 
ENDBRANCH  29  31
ENDBRANCH  27  28
ENDBRANCH  24  26
ENDBRANCH   7  24
TORSDOF 7
ENDMDL
MODEL 6
REMARK VINA RESULT:      -7.8      3.236      6.163
REMARK  7 active torsions:
REMARK  status: ('A' for Active; 'I' for Inactive)
REMARK    1  A    between atoms: O1_2  and  C2_3 
REMARK    2  A    between atoms: C6_9  and  N3_10 
REMARK    3  A    between atoms: N3_10  and  C7_11 
REMARK    4  A    between atoms: C8_12  and  C9_13 
REMARK    5  A    between atoms: C10_14  and  C12_16 
REMARK    6  A    between atoms: C15_20  and  N4_21 
REMARK       I    between atoms: N4_21  and  C16_22 
REMARK    7  A    between atoms: C16_22  and  C17_24 
ROOT
HETATM    1  C2  UNL     1      22.936   0.950  53.040  1.00  0.00     0.097 A 
HETATM    2  C3  UNL     1      21.788   1.532  52.491  1.00  0.00     0.071 A 
HETATM    3  C4  UNL     1      21.842   2.876  52.157  1.00  0.00     0.075 A 
HETATM    4  N1  UNL     1      20.713   3.392  51.631  1.00  0.00    -0.241 NA
HETATM    5  C5  UNL     1      20.658   4.679  51.274  1.00  0.00     0.236 A 
HETATM    6  N2  UNL     1      21.757   5.453  51.451  1.00  0.00    -0.224 NA
HETATM    7  C6  UNL     1      22.873   4.922  51.975  1.00  0.00     0.141 A 
HETATM    8  C13 UNL     1      22.977   3.605  52.357  1.00  0.00     0.041 A 
HETATM    9  C14 UNL     1      24.126   3.081  52.891  1.00  0.00     0.050 A 
HETATM   10  C15 UNL     1      24.053   1.736  53.219  1.00  0.00     0.069 A 
ENDROOT
BRANCH  10  11
HETATM   11  N4  UNL     1      25.250   1.161  53.783  1.00  0.00    -0.323 N 
HETATM   12  C16 UNL     1      26.001   0.599  52.723  1.00  0.00     0.247 C 
HETATM   13  O2  UNL     1      25.576   0.660  51.520  1.00  0.00    -0.271 OA
HETATM   14  H16 UNL     1      25.737   1.022  54.691  1.00  0.00     0.169 HD
BRANCH  12  15
HETATM   15  C17 UNL     1      27.288  -0.112  52.691  1.00  0.00     0.203 C 
HETATM   16  C18 UNL     1      27.175  -1.599  52.918  1.00  0.00     0.215 C 
HETATM   17  O3  UNL     1      28.560  -1.931  53.099  1.00  0.00    -0.301 OA
HETATM   18  C19 UNL     1      29.133  -0.825  53.737  1.00  0.00     0.361 C 
HETATM   19  O4  UNL     1      30.315  -0.938  54.208  1.00  0.00    -0.238 OA
HETATM   20  N5  UNL     1      28.210   0.284  53.732  1.00  0.00    -0.321 N 
HETATM   21  H20 UNL     1      28.355   1.058  54.388  1.00  0.00     0.165 HD
ENDBRANCH  12  15
ENDBRANCH  10  11
BRANCH   1  22
HETATM   22  O1  UNL     1      23.020  -0.367  53.414  1.00  0.00    -0.354 OA
HETATM   23  C1  UNL     1      22.363  -0.887  54.540  1.00  0.00     0.210 C 
ENDBRANCH   1  22
BRANCH   7  24
HETATM   24  N3  UNL     1      23.976   5.812  52.123  1.00  0.00    -0.350 N 
HETATM   25  H6  UNL     1      24.725   5.866  52.817  1.00  0.00     0.166 HD
BRANCH  24  26
HETATM   26  C7  UNL     1      24.167   6.861  51.183  1.00  0.00     0.090 C 
HETATM   27  C8  UNL     1      25.058   6.794  50.215  1.00  0.00     0.017 C 
BRANCH  27  28
HETATM   28  C9  UNL     1      25.888   5.614  50.082  1.00  0.00     0.006 C 
HETATM   29  C10 UNL     1      25.504   4.503  49.478  1.00  0.00    -0.056 C 
HETATM   30  C11 UNL     1      26.338   3.286  49.332  1.00  0.00     0.046 C 
BRANCH  29  31
HETATM   31  C12 UNL     1      24.190   4.258  48.838  1.00  0.00     0.256 C 
HETATM   32  F1  UNL     1      23.748   2.967  49.160  1.00  0.00    -0.251 F 
ENDBRANCH  29  31
ENDBRANCH  27  28
ENDBRANCH  24  26
ENDBRANCH   7  24
TORSDOF 7
ENDMDL
MODEL 7
REMARK VINA RESULT:      -7.5      1.682      2.251
REMARK  7 active torsions:
REMARK  status: ('A' for Active; 'I' for Inactive)
REMARK    1  A    between atoms: O1_2  and  C2_3 
REMARK    2  A    between atoms: C6_9  and  N3_10 
REMARK    3  A    between atoms: N3_10  and  C7_11 
REMARK    4  A    between atoms: C8_12  and  C9_13 
REMARK    5  A    between atoms: C10_14  and  C12_16 
REMARK    6  A    between atoms: C15_20  and  N4_21 
REMARK       I    between atoms: N4_21  and  C16_22 
REMARK    7  A    between atoms: C16_22  and  C17_24 
ROOT
HETATM    1  C2  UNL     1      22.217   5.865  51.247  1.00  0.00     0.097 A 
HETATM    2  C3  UNL     1      21.082   5.058  51.379  1.00  0.00     0.071 A 
HETATM    3  C4  UNL     1      21.260   3.767  51.850  1.00  0.00     0.075 A 
HETATM    4  N1  UNL     1      20.139   3.026  51.962  1.00  0.00    -0.241 NA
HETATM    5  C5  UNL     1      20.198   1.767  52.406  1.00  0.00     0.236 A 
HETATM    6  N2  UNL     1      21.406   1.250  52.742  1.00  0.00    -0.224 NA
HETATM    7  C6  UNL     1      22.512   2.002  52.625  1.00  0.00     0.141 A 
HETATM    8  C13 UNL     1      22.500   3.301  52.173  1.00  0.00     0.041 A 
HETATM    9  C14 UNL     1      23.641   4.052  52.061  1.00  0.00     0.050 A 
HETATM   10  C15 UNL     1      23.444   5.341  51.588  1.00  0.00     0.069 A 
ENDROOT
BRANCH  10  11
HETATM   11  N4  UNL     1      24.630   6.152  51.461  1.00  0.00    -0.323 N 
HETATM   12  C16 UNL     1      25.150   5.955  50.159  1.00  0.00     0.247 C 
HETATM   13  O2  UNL     1      24.571   5.167  49.338  1.00  0.00    -0.271 OA
HETATM   14  H16 UNL     1      25.220   6.820  51.994  1.00  0.00     0.169 HD
BRANCH  12  15
HETATM   15  C17 UNL     1      26.327   6.508  49.469  1.00  0.00     0.203 C 
HETATM   16  C18 UNL     1      26.040   7.023  48.081  1.00  0.00     0.215 C 
HETATM   17  O3  UNL     1      27.380   7.220  47.606  1.00  0.00    -0.301 OA
HETATM   18  C19 UNL     1      28.144   6.209  48.200  1.00  0.00     0.361 C 
HETATM   19  O4  UNL     1      29.337   6.023  47.782  1.00  0.00    -0.238 OA
HETATM   20  N5  UNL     1      27.377   5.545  49.225  1.00  0.00    -0.321 N 
HETATM   21  H20 UNL     1      27.677   4.622  49.554  1.00  0.00     0.165 HD
ENDBRANCH  12  15
ENDBRANCH  10  11
BRANCH   1  22
HETATM   22  O1  UNL     1      22.185   7.160  50.794  1.00  0.00    -0.354 OA
HETATM   23  C1  UNL     1      21.038   7.748  50.239  1.00  0.00     0.210 C 
ENDBRANCH   1  22
BRANCH   7  24
HETATM   24  N3  UNL     1      23.734   1.373  53.002  1.00  0.00    -0.350 N 
HETATM   25  H6  UNL     1      24.697   1.716  53.044  1.00  0.00     0.166 HD
BRANCH  24  26
HETATM   26  C7  UNL     1      23.731   0.013  53.414  1.00  0.00     0.090 C 
HETATM   27  C8  UNL     1      24.734  -0.533  54.071  1.00  0.00     0.017 C 
BRANCH  27  28
HETATM   28  C9  UNL     1      25.897   0.266  54.399  1.00  0.00     0.006 C 
HETATM   29  C10 UNL     1      27.068   0.153  53.794  1.00  0.00    -0.056 C 
HETATM   30  C11 UNL     1      28.269   0.961  54.116  1.00  0.00     0.046 C 
BRANCH  29  31
HETATM   31  C12 UNL     1      27.404  -0.784  52.698  1.00  0.00     0.256 C 
HETATM   32  F1  UNL     1      26.837  -0.324  51.501  1.00  0.00    -0.251 F 
ENDBRANCH  29  31
ENDBRANCH  27  28
ENDBRANCH  24  26
ENDBRANCH   7  24
TORSDOF 7
ENDMDL
MODEL 8
REMARK VINA RESULT:      -7.5      2.580      5.020
REMARK  7 active torsions:
REMARK  status: ('A' for Active; 'I' for Inactive)
REMARK    1  A    between atoms: O1_2  and  C2_3 
REMARK    2  A    between atoms: C6_9  and  N3_10 
REMARK    3  A    between atoms: N3_10  and  C7_11 
REMARK    4  A    between atoms: C8_12  and  C9_13 
REMARK    5  A    between atoms: C10_14  and  C12_16 
REMARK    6  A    between atoms: C15_20  and  N4_21 
REMARK       I    between atoms: N4_21  and  C16_22 
REMARK    7  A    between atoms: C16_22  and  C17_24 
ROOT
HETATM    1  C2  UNL     1      25.158   1.370  53.366  1.00  0.00     0.097 A 
HETATM    2  C3  UNL     1      24.669   0.149  53.844  1.00  0.00     0.071 A 
HETATM    3  C4  UNL     1      23.310  -0.095  53.722  1.00  0.00     0.075 A 
HETATM    4  N1  UNL     1      22.886  -1.284  54.195  1.00  0.00    -0.241 NA
HETATM    5  C5  UNL     1      21.594  -1.619  54.127  1.00  0.00     0.236 A 
HETATM    6  N2  UNL     1      20.720  -0.742  53.573  1.00  0.00    -0.224 NA
HETATM    7  C6  UNL     1      21.161   0.437  53.106  1.00  0.00     0.141 A 
HETATM    8  C13 UNL     1      22.479   0.825  53.154  1.00  0.00     0.041 A 
HETATM    9  C14 UNL     1      22.909   2.034  52.671  1.00  0.00     0.050 A 
HETATM   10  C15 UNL     1      24.271   2.261  52.802  1.00  0.00     0.069 A 
ENDROOT
BRANCH  10  11
HETATM   11  N4  UNL     1      24.748   3.526  52.302  1.00  0.00    -0.323 N 
HETATM   12  C16 UNL     1      24.956   3.389  50.908  1.00  0.00     0.247 C 
HETATM   13  O2  UNL     1      24.722   2.280  50.321  1.00  0.00    -0.271 OA
HETATM   14  H16 UNL     1      24.987   4.488  52.615  1.00  0.00     0.169 HD
BRANCH  12  15
HETATM   15  C17 UNL     1      25.430   4.331  49.881  1.00  0.00     0.203 C 
HETATM   16  C18 UNL     1      26.796   4.004  49.332  1.00  0.00     0.215 C 
HETATM   17  O3  UNL     1      27.067   5.210  48.601  1.00  0.00    -0.301 OA
HETATM   18  C19 UNL     1      26.462   6.238  49.333  1.00  0.00     0.361 C 
HETATM   19  O4  UNL     1      26.727   7.448  49.017  1.00  0.00    -0.238 OA
HETATM   20  N5  UNL     1      25.610   5.685  50.357  1.00  0.00    -0.321 N 
HETATM   21  H20 UNL     1      25.322   6.277  51.141  1.00  0.00     0.165 HD
ENDBRANCH  12  15
ENDBRANCH  10  11
BRANCH   1  22
HETATM   22  O1  UNL     1      26.478   1.739  53.423  1.00  0.00    -0.354 OA
HETATM   23  C1  UNL     1      27.510   0.983  52.847  1.00  0.00     0.210 C 
ENDBRANCH   1  22
BRANCH   7  24
HETATM   24  N3  UNL     1      20.170   1.291  52.541  1.00  0.00    -0.350 N 
HETATM   25  H6  UNL     1      19.936   2.273  52.708  1.00  0.00     0.166 HD
BRANCH  24  26
HETATM   26  C7  UNL     1      19.285   0.788  51.550  1.00  0.00     0.090 C 
HETATM   27  C8  UNL     1      19.175   1.331  50.354  1.00  0.00     0.017 C 
BRANCH  27  28
HETATM   28  C9  UNL     1      19.977   2.487  50.013  1.00  0.00     0.006 C 
HETATM   29  C10 UNL     1      21.021   2.452  49.203  1.00  0.00    -0.056 C 
HETATM   30  C11 UNL     1      21.854   3.624  48.843  1.00  0.00     0.046 C 
BRANCH  29  31
HETATM   31  C12 UNL     1      21.554   1.258  48.507  1.00  0.00     0.256 C 
HETATM   32  F1  UNL     1      22.628   1.635  47.688  1.00  0.00    -0.251 F 
ENDBRANCH  29  31
ENDBRANCH  27  28
ENDBRANCH  24  26
ENDBRANCH   7  24
TORSDOF 7
ENDMDL
MODEL 9
REMARK VINA RESULT:      -7.5      2.808      5.594
REMARK  7 active torsions:
REMARK  status: ('A' for Active; 'I' for Inactive)
REMARK    1  A    between atoms: O1_2  and  C2_3 
REMARK    2  A    between atoms: C6_9  and  N3_10 
REMARK    3  A    between atoms: N3_10  and  C7_11 
REMARK    4  A    between atoms: C8_12  and  C9_13 
REMARK    5  A    between atoms: C10_14  and  C12_16 
REMARK    6  A    between atoms: C15_20  and  N4_21 
REMARK       I    between atoms: N4_21  and  C16_22 
REMARK    7  A    between atoms: C16_22  and  C17_24 
ROOT
HETATM    1  C2  UNL     1      25.641   3.101  50.746  1.00  0.00     0.097 A 
HETATM    2  C3  UNL     1      26.663   2.401  51.398  1.00  0.00     0.071 A 
HETATM    3  C4  UNL     1      26.306   1.296  52.155  1.00  0.00     0.075 A 
HETATM    4  N1  UNL     1      27.323   0.653  52.763  1.00  0.00    -0.241 NA
HETATM    5  C5  UNL     1      27.090  -0.425  53.518  1.00  0.00     0.236 A 
HETATM    6  N2  UNL     1      25.813  -0.859  53.658  1.00  0.00    -0.224 NA
HETATM    7  C6  UNL     1      24.812  -0.207  53.044  1.00  0.00     0.141 A 
HETATM    8  C13 UNL     1      25.005   0.906  52.259  1.00  0.00     0.041 A 
HETATM    9  C14 UNL     1      23.969   1.558  51.640  1.00  0.00     0.050 A 
HETATM   10  C15 UNL     1      24.344   2.661  50.888  1.00  0.00     0.069 A 
ENDROOT
BRANCH  10  11
HETATM   11  N4  UNL     1      23.273   3.365  50.227  1.00  0.00    -0.323 N 
HETATM   12  C16 UNL     1      22.766   4.328  51.131  1.00  0.00     0.247 C 
HETATM   13  O2  UNL     1      23.263   4.448  52.301  1.00  0.00    -0.271 OA
HETATM   14  H16 UNL     1      22.757   3.401  49.326  1.00  0.00     0.169 HD
BRANCH  12  15
HETATM   15  C17 UNL     1      21.686   5.322  51.017  1.00  0.00     0.203 C 
HETATM   16  C18 UNL     1      20.760   5.090  49.850  1.00  0.00     0.215 C 
HETATM   17  O3  UNL     1      20.033   6.328  49.859  1.00  0.00    -0.301 OA
HETATM   18  C19 UNL     1      20.947   7.300  50.280  1.00  0.00     0.361 C 
HETATM   19  O4  UNL     1      20.619   8.531  50.176  1.00  0.00    -0.238 OA
HETATM   20  N5  UNL     1      22.147   6.671  50.776  1.00  0.00    -0.321 N 
HETATM   21  H20 UNL     1      23.004   7.226  50.857  1.00  0.00     0.165 HD
ENDBRANCH  12  15
ENDBRANCH  10  11
BRANCH   1  22
HETATM   22  O1  UNL     1      25.853   4.210  49.967  1.00  0.00    -0.354 OA
HETATM   23  C1  UNL     1      26.976   4.361  49.139  1.00  0.00     0.210 C 
ENDBRANCH   1  22
BRANCH   7  24
HETATM   24  N3  UNL     1      23.506  -0.737  53.250  1.00  0.00    -0.350 N 
HETATM   25  H6  UNL     1      22.891  -1.296  52.653  1.00  0.00     0.166 HD
BRANCH  24  26
HETATM   26  C7  UNL     1      22.836  -0.507  54.482  1.00  0.00     0.090 C 
HETATM   27  C8  UNL     1      21.524  -0.425  54.573  1.00  0.00     0.017 C 
BRANCH  27  28
HETATM   28  C9  UNL     1      20.711  -0.573  53.384  1.00  0.00     0.006 C 
HETATM   29  C10 UNL     1      20.275   0.440  52.654  1.00  0.00    -0.056 C 
HETATM   30  C11 UNL     1      19.442   0.308  51.434  1.00  0.00     0.046 C 
BRANCH  29  31
HETATM   31  C12 UNL     1      20.528   1.877  52.904  1.00  0.00     0.256 C 
HETATM   32  F1  UNL     1      19.627   2.647  52.156  1.00  0.00    -0.251 F 
ENDBRANCH  29  31
ENDBRANCH  27  28
ENDBRANCH  24  26
ENDBRANCH   7  24
TORSDOF 7
ENDMDL
