MODEL 1
REMARK VINA RESULT:      -8.5      0.000      0.000
REMARK  4 active torsions:
REMARK  status: ('A' for Active; 'I' for Inactive)
REMARK    1  A    between atoms: C7_7  and  C8_8 
REMARK    2  A    between atoms: C8_8  and  C9_9 
REMARK       I    between atoms: C9_9  and  N1_11 
REMARK    3  A    between atoms: N1_11  and  C10_12 
REMARK    4  A    between atoms: N4_20  and  C16_21 
ROOT
HETATM    1  C10 UNL     1      24.828   3.986  50.494  1.00  0.00     0.034 C 
HETATM    2  C11 UNL     1      25.952   3.762  49.857  1.00  0.00     0.025 C 
HETATM    3  C12 UNL     1      27.075   4.213  49.116  1.00  0.00     0.004 C 
HETATM    4  C13 UNL     1      27.796   5.142  48.553  1.00  0.00     0.155 C 
HETATM    5  N2  UNL     1      26.841   6.040  49.013  1.00  0.00    -0.288 N 
HETATM    6  C14 UNL     1      25.793   6.357  48.371  1.00  0.00     0.195 A 
HETATM    7  N3  UNL     1      25.975   6.974  49.638  1.00  0.00    -0.148 NA
HETATM    8  C15 UNL     1      25.073   6.921  50.595  1.00  0.00     0.178 C 
HETATM    9  N4  UNL     1      23.858   6.214  50.356  1.00  0.00    -0.357 N 
HETATM   10  C21 UNL     1      23.792   4.903  50.947  1.00  0.00     0.131 C 
HETATM   11  C22 UNL     1      22.405   4.299  50.778  1.00  0.00     0.039 C 
ENDROOT
BRANCH   1  12
HETATM   12  N1  UNL     1      24.339   2.705  50.991  1.00  0.00    -0.325 N 
HETATM   13  C9  UNL     1      24.701   1.943  52.135  1.00  0.00     0.246 C 
HETATM   14  O1  UNL     1      25.620   2.613  52.721  1.00  0.00    -0.268 OA
HETATM   15  H8  UNL     1      23.583   2.350  50.332  1.00  0.00     0.169 HD
BRANCH  13  16
HETATM   16  C8  UNL     1      24.088   0.676  52.473  1.00  0.00     0.086 C 
BRANCH  16  17
HETATM   17  C7  UNL     1      23.132  -0.026  53.041  1.00  0.00    -0.024 C 
HETATM   18  C2  UNL     1      21.756  -0.138  52.528  1.00  0.00    -0.052 C 
HETATM   19  C1  UNL     1      21.433   0.607  51.285  1.00  0.00     0.049 C 
HETATM   20  C3  UNL     1      20.973  -0.895  53.247  1.00  0.00     0.008 C 
HETATM   21  C4  UNL     1      21.324  -1.627  54.485  1.00  0.00     0.013 C 
HETATM   22  C5  UNL     1      22.355  -0.990  55.028  1.00  0.00    -0.025 C 
HETATM   23  C6  UNL     1      23.403  -0.768  54.252  1.00  0.00     0.024 C 
ENDBRANCH  16  17
ENDBRANCH  13  16
ENDBRANCH   1  12
BRANCH   9  24
HETATM   24  C16 UNL     1      23.166   7.228  49.590  1.00  0.00     0.153 A 
HETATM   25  C17 UNL     1      22.125   7.895  50.459  1.00  0.00     0.004 A 
HETATM   26  C18 UNL     1      20.916   7.784  49.931  1.00  0.00    -0.000 A 
HETATM   27  C19 UNL     1      21.045   7.039  48.671  1.00  0.00     0.021 A 
HETATM   28  C20 UNL     1      22.337   6.724  48.477  1.00  0.00     0.038 A 
HETATM   29 CL1  UNL     1      22.415   5.864  46.924  1.00  0.00    -0.086 Cl
ENDBRANCH   9  24
TORSDOF 4
ENDMDL
MODEL 2
REMARK VINA RESULT:      -8.3      4.101      6.940
REMARK  4 active torsions:
REMARK  status: ('A' for Active; 'I' for Inactive)
REMARK    1  A    between atoms: C7_7  and  C8_8 
REMARK    2  A    between atoms: C8_8  and  C9_9 
REMARK       I    between atoms: C9_9  and  N1_11 
REMARK    3  A    between atoms: N1_11  and  C10_12 
REMARK    4  A    between atoms: N4_20  and  C16_21 
ROOT
HETATM    1  C10 UNL     1      21.275   1.204  52.642  1.00  0.00     0.034 C 
HETATM    2  C11 UNL     1      20.864   2.446  52.559  1.00  0.00     0.025 C 
HETATM    3  C12 UNL     1      21.098   3.820  52.293  1.00  0.00     0.004 C 
HETATM    4  C13 UNL     1      21.855   4.821  51.940  1.00  0.00     0.155 C 
HETATM    5  N2  UNL     1      22.874   3.886  51.798  1.00  0.00    -0.288 N 
HETATM    6  C14 UNL     1      23.650   3.530  52.737  1.00  0.00     0.195 A 
HETATM    7  N3  UNL     1      23.858   2.918  51.471  1.00  0.00    -0.148 NA
HETATM    8  C15 UNL     1      23.868   1.613  51.302  1.00  0.00     0.178 C 
HETATM    9  N4  UNL     1      23.661   0.771  52.434  1.00  0.00    -0.357 N 
HETATM   10  C21 UNL     1      22.338   0.214  52.544  1.00  0.00     0.131 C 
HETATM   11  C22 UNL     1      22.264  -0.794  53.682  1.00  0.00     0.039 C 
ENDROOT
BRANCH   1  12
HETATM   12  N1  UNL     1      20.136   0.387  53.048  1.00  0.00    -0.325 N 
HETATM   13  C9  UNL     1      19.048  -0.140  52.301  1.00  0.00     0.246 C 
HETATM   14  O1  UNL     1      19.230   0.253  51.098  1.00  0.00    -0.268 OA
HETATM   15  H8  UNL     1      20.209   0.196  54.091  1.00  0.00     0.169 HD
BRANCH  13  16
HETATM   16  C8  UNL     1      17.999  -0.948  52.887  1.00  0.00     0.086 C 
BRANCH  16  17
HETATM   17  C7  UNL     1      17.263  -2.038  52.913  1.00  0.00    -0.024 C 
HETATM   18  C2  UNL     1      15.907  -2.148  52.349  1.00  0.00    -0.052 C 
HETATM   19  C1  UNL     1      15.336  -0.932  51.716  1.00  0.00     0.049 C 
HETATM   20  C3  UNL     1      15.364  -3.327  52.479  1.00  0.00     0.008 C 
HETATM   21  C4  UNL     1      15.959  -4.522  53.116  1.00  0.00     0.013 C 
HETATM   22  C5  UNL     1      16.869  -4.084  53.979  1.00  0.00    -0.025 C 
HETATM   23  C6  UNL     1      17.781  -3.244  53.518  1.00  0.00     0.024 C 
ENDBRANCH  16  17
ENDBRANCH  13  16
ENDBRANCH   1  12
BRANCH   9  24
HETATM   24  C16 UNL     1      24.994   0.832  52.994  1.00  0.00     0.153 A 
HETATM   25  C17 UNL     1      26.013   0.640  51.897  1.00  0.00     0.004 A 
HETATM   26  C18 UNL     1      26.802  -0.393  52.150  1.00  0.00    -0.000 A 
HETATM   27  C19 UNL     1      26.380  -0.975  53.431  1.00  0.00     0.021 A 
HETATM   28  C20 UNL     1      25.344  -0.269  53.915  1.00  0.00     0.038 A 
HETATM   29 CL1  UNL     1      24.919  -1.006  55.474  1.00  0.00    -0.086 Cl
ENDBRANCH   9  24
TORSDOF 4
ENDMDL
MODEL 3
REMARK VINA RESULT:      -8.2      3.020      5.143
REMARK  4 active torsions:
REMARK  status: ('A' for Active; 'I' for Inactive)
REMARK    1  A    between atoms: C7_7  and  C8_8 
REMARK    2  A    between atoms: C8_8  and  C9_9 
REMARK       I    between atoms: C9_9  and  N1_11 
REMARK    3  A    between atoms: N1_11  and  C10_12 
REMARK    4  A    between atoms: N4_20  and  C16_21 
ROOT
HETATM    1  C10 UNL     1      22.694   0.720  52.778  1.00  0.00     0.034 C 
HETATM    2  C11 UNL     1      23.607  -0.181  53.048  1.00  0.00     0.025 C 
HETATM    3  C12 UNL     1      24.952  -0.554  53.304  1.00  0.00     0.004 C 
HETATM    4  C13 UNL     1      26.218  -0.290  53.465  1.00  0.00     0.155 C 
HETATM    5  N2  UNL     1      25.880   1.039  53.242  1.00  0.00    -0.288 N 
HETATM    6  C14 UNL     1      25.834   1.580  52.095  1.00  0.00     0.195 A 
HETATM    7  N3  UNL     1      25.513   2.409  53.204  1.00  0.00    -0.148 NA
HETATM    8  C15 UNL     1      24.384   3.080  53.292  1.00  0.00     0.178 C 
HETATM    9  N4  UNL     1      23.437   2.973  52.231  1.00  0.00    -0.357 N 
HETATM   10  C21 UNL     1      22.324   2.100  52.497  1.00  0.00     0.131 C 
HETATM   11  C22 UNL     1      21.291   2.180  51.381  1.00  0.00     0.039 C 
ENDROOT
BRANCH   1  12
HETATM   12  N1  UNL     1      21.409   0.037  52.692  1.00  0.00    -0.325 N 
HETATM   13  C9  UNL     1      20.451  -0.287  53.690  1.00  0.00     0.246 C 
HETATM   14  O1  UNL     1      20.936   0.149  54.791  1.00  0.00    -0.268 OA
HETATM   15  H8  UNL     1      21.231  -0.228  51.677  1.00  0.00     0.169 HD
BRANCH  13  16
HETATM   16  C8  UNL     1      19.208  -0.974  53.408  1.00  0.00     0.086 C 
BRANCH  16  17
HETATM   17  C7  UNL     1      18.045  -1.047  52.799  1.00  0.00    -0.024 C 
HETATM   18  C2  UNL     1      17.097  -2.167  52.931  1.00  0.00    -0.052 C 
HETATM   19  C1  UNL     1      17.500  -3.295  53.809  1.00  0.00     0.049 C 
HETATM   20  C3  UNL     1      15.997  -2.025  52.244  1.00  0.00     0.008 C 
HETATM   21  C4  UNL     1      15.623  -0.887  51.375  1.00  0.00     0.013 C 
HETATM   22  C5  UNL     1      16.756  -0.312  50.989  1.00  0.00    -0.025 C 
HETATM   23  C6  UNL     1      17.613   0.030  51.936  1.00  0.00     0.024 C 
ENDBRANCH  16  17
ENDBRANCH  13  16
ENDBRANCH   1  12
BRANCH   9  24
HETATM   24  C16 UNL     1      24.053   3.892  51.298  1.00  0.00     0.153 A 
HETATM   25  C17 UNL     1      23.738   5.312  51.704  1.00  0.00     0.004 A 
HETATM   26  C18 UNL     1      23.123   5.965  50.730  1.00  0.00    -0.000 A 
HETATM   27  C19 UNL     1      22.978   5.042  49.596  1.00  0.00     0.021 A 
HETATM   28  C20 UNL     1      23.514   3.854  49.924  1.00  0.00     0.038 A 
HETATM   29 CL1  UNL     1      23.333   2.812  48.496  1.00  0.00    -0.086 Cl
ENDBRANCH   9  24
TORSDOF 4
ENDMDL
MODEL 4
REMARK VINA RESULT:      -8.1      2.762      7.951
REMARK  4 active torsions:
REMARK  status: ('A' for Active; 'I' for Inactive)
REMARK    1  A    between atoms: C7_7  and  C8_8 
REMARK    2  A    between atoms: C8_8  and  C9_9 
REMARK       I    between atoms: C9_9  and  N1_11 
REMARK    3  A    between atoms: N1_11  and  C10_12 
REMARK    4  A    between atoms: N4_20  and  C16_21 
ROOT
HETATM    1  C10 UNL     1      26.334   2.404  51.833  1.00  0.00     0.034 C 
HETATM    2  C11 UNL     1      27.457   2.329  52.507  1.00  0.00     0.025 C 
HETATM    3  C12 UNL     1      28.291   1.706  53.471  1.00  0.00     0.004 C 
HETATM    4  C13 UNL     1      28.556   0.784  54.354  1.00  0.00     0.155 C 
HETATM    5  N2  UNL     1      27.301   0.265  54.059  1.00  0.00    -0.288 N 
HETATM    6  C14 UNL     1      26.229   0.620  54.638  1.00  0.00     0.195 A 
HETATM    7  N3  UNL     1      26.109  -0.373  53.627  1.00  0.00    -0.148 NA
HETATM    8  C15 UNL     1      25.301  -0.249  52.596  1.00  0.00     0.178 C 
HETATM    9  N4  UNL     1      24.508   0.931  52.482  1.00  0.00    -0.357 N 
HETATM   10  C21 UNL     1      24.999   1.904  51.540  1.00  0.00     0.131 C 
HETATM   11  C22 UNL     1      24.005   3.045  51.369  1.00  0.00     0.039 C 
ENDROOT
BRANCH   1  12
HETATM   12  N1  UNL     1      26.431   3.553  50.940  1.00  0.00    -0.325 N 
HETATM   13  C9  UNL     1      26.772   3.645  49.563  1.00  0.00     0.246 C 
HETATM   14  O1  UNL     1      27.012   2.446  49.185  1.00  0.00    -0.268 OA
HETATM   15  H8  UNL     1      26.186   4.432  51.488  1.00  0.00     0.169 HD
BRANCH  13  16
HETATM   16  C8  UNL     1      26.807   4.895  48.834  1.00  0.00     0.086 C 
BRANCH  16  17
HETATM   17  C7  UNL     1      27.453   5.949  48.387  1.00  0.00    -0.024 C 
HETATM   18  C2  UNL     1      26.816   7.216  47.986  1.00  0.00    -0.052 C 
HETATM   19  C1  UNL     1      25.337   7.292  48.089  1.00  0.00     0.049 C 
HETATM   20  C3  UNL     1      27.650   8.133  47.580  1.00  0.00     0.008 C 
HETATM   21  C4  UNL     1      29.123   8.028  47.487  1.00  0.00     0.013 C 
HETATM   22  C5  UNL     1      29.408   6.736  47.368  1.00  0.00    -0.025 C 
HETATM   23  C6  UNL     1      28.894   5.919  48.271  1.00  0.00     0.024 C 
ENDBRANCH  16  17
ENDBRANCH  13  16
ENDBRANCH   1  12
BRANCH   9  24
HETATM   24  C16 UNL     1      23.461   0.579  53.416  1.00  0.00     0.153 A 
HETATM   25  C17 UNL     1      23.298  -0.922  53.451  1.00  0.00     0.004 A 
HETATM   26  C18 UNL     1      22.061  -1.277  53.140  1.00  0.00    -0.000 A 
HETATM   27  C19 UNL     1      21.297  -0.051  52.875  1.00  0.00     0.021 A 
HETATM   28  C20 UNL     1      22.102   1.012  53.036  1.00  0.00     0.038 A 
HETATM   29 CL1  UNL     1      21.099   2.449  52.735  1.00  0.00    -0.086 Cl
ENDBRANCH   9  24
TORSDOF 4
ENDMDL
MODEL 5
REMARK VINA RESULT:      -8.1      2.898      4.498
REMARK  4 active torsions:
REMARK  status: ('A' for Active; 'I' for Inactive)
REMARK    1  A    between atoms: C7_7  and  C8_8 
REMARK    2  A    between atoms: C8_8  and  C9_9 
REMARK       I    between atoms: C9_9  and  N1_11 
REMARK    3  A    between atoms: N1_11  and  C10_12 
REMARK    4  A    between atoms: N4_20  and  C16_21 
ROOT
HETATM    1  C10 UNL     1      23.750   4.166  50.986  1.00  0.00     0.034 C 
HETATM    2  C11 UNL     1      24.413   5.296  51.028  1.00  0.00     0.025 C 
HETATM    3  C12 UNL     1      24.466   6.712  50.953  1.00  0.00     0.004 C 
HETATM    4  C13 UNL     1      23.922   7.887  50.805  1.00  0.00     0.155 C 
HETATM    5  N2  UNL     1      22.714   7.214  50.673  1.00  0.00    -0.288 N 
HETATM    6  C14 UNL     1      22.258   6.780  49.571  1.00  0.00     0.195 A 
HETATM    7  N3  UNL     1      21.462   6.549  50.726  1.00  0.00    -0.148 NA
HETATM    8  C15 UNL     1      21.053   5.350  51.083  1.00  0.00     0.178 C 
HETATM    9  N4  UNL     1      21.421   4.230  50.281  1.00  0.00    -0.357 N 
HETATM   10  C21 UNL     1      22.503   3.437  50.805  1.00  0.00     0.131 C 
HETATM   11  C22 UNL     1      22.711   2.181  49.970  1.00  0.00     0.039 C 
ENDROOT
BRANCH   1  12
HETATM   12  N1  UNL     1      24.704   3.085  51.210  1.00  0.00    -0.325 N 
HETATM   13  C9  UNL     1      25.157   2.469  52.408  1.00  0.00     0.246 C 
HETATM   14  O1  UNL     1      24.547   3.068  53.359  1.00  0.00    -0.268 OA
HETATM   15  H8  UNL     1      25.073   2.756  50.269  1.00  0.00     0.169 HD
BRANCH  13  16
HETATM   16  C8  UNL     1      26.119   1.387  52.431  1.00  0.00     0.086 C 
BRANCH  16  17
HETATM   17  C7  UNL     1      27.258   0.866  52.832  1.00  0.00    -0.024 C 
HETATM   18  C2  UNL     1      27.554  -0.576  52.871  1.00  0.00    -0.052 C 
HETATM   19  C1  UNL     1      26.477  -1.500  52.433  1.00  0.00     0.049 C 
HETATM   20  C3  UNL     1      28.752  -0.869  53.296  1.00  0.00     0.008 C 
HETATM   21  C4  UNL     1      29.805   0.076  53.727  1.00  0.00     0.013 C 
HETATM   22  C5  UNL     1      29.189   1.187  54.115  1.00  0.00    -0.025 C 
HETATM   23  C6  UNL     1      28.333   1.730  53.265  1.00  0.00     0.024 C 
ENDBRANCH  16  17
ENDBRANCH  13  16
ENDBRANCH   1  12
BRANCH   9  24
HETATM   24  C16 UNL     1      20.440   4.386  49.229  1.00  0.00     0.153 A 
HETATM   25  C17 UNL     1      19.208   3.578  49.563  1.00  0.00     0.004 A 
HETATM   26  C18 UNL     1      18.939   2.698  48.610  1.00  0.00    -0.000 A 
HETATM   27  C19 UNL     1      19.960   2.845  47.565  1.00  0.00     0.021 A 
HETATM   28  C20 UNL     1      20.819   3.815  47.921  1.00  0.00     0.038 A 
HETATM   29 CL1  UNL     1      21.994   3.956  46.596  1.00  0.00    -0.086 Cl
ENDBRANCH   9  24
TORSDOF 4
ENDMDL
MODEL 6
REMARK VINA RESULT:      -8.0      3.038      4.577
REMARK  4 active torsions:
REMARK  status: ('A' for Active; 'I' for Inactive)
REMARK    1  A    between atoms: C7_7  and  C8_8 
REMARK    2  A    between atoms: C8_8  and  C9_9 
REMARK       I    between atoms: C9_9  and  N1_11 
REMARK    3  A    between atoms: N1_11  and  C10_12 
REMARK    4  A    between atoms: N4_20  and  C16_21 
ROOT
HETATM    1  C10 UNL     1      24.444   3.011  51.416  1.00  0.00     0.034 C 
HETATM    2  C11 UNL     1      25.250   3.664  50.615  1.00  0.00     0.025 C 
HETATM    3  C12 UNL     1      25.507   4.700  49.679  1.00  0.00     0.004 C 
HETATM    4  C13 UNL     1      25.153   5.729  48.962  1.00  0.00     0.155 C 
HETATM    5  N2  UNL     1      23.893   5.581  49.529  1.00  0.00    -0.288 N 
HETATM    6  C14 UNL     1      22.981   4.838  49.053  1.00  0.00     0.195 A 
HETATM    7  N3  UNL     1      22.667   5.550  50.242  1.00  0.00    -0.148 NA
HETATM    8  C15 UNL     1      22.233   4.959  51.336  1.00  0.00     0.178 C 
HETATM    9  N4  UNL     1      22.070   3.543  51.333  1.00  0.00    -0.357 N 
HETATM   10  C21 UNL     1      23.121   2.808  51.988  1.00  0.00     0.131 C 
HETATM   11  C22 UNL     1      22.776   1.328  52.077  1.00  0.00     0.039 C 
ENDROOT
BRANCH   1  12
HETATM   12  N1  UNL     1      25.214   1.945  52.046  1.00  0.00    -0.325 N 
HETATM   13  C9  UNL     1      25.806   1.853  53.335  1.00  0.00     0.246 C 
HETATM   14  O1  UNL     1      25.540   2.960  53.919  1.00  0.00    -0.268 OA
HETATM   15  H8  UNL     1      25.300   1.135  51.362  1.00  0.00     0.169 HD
BRANCH  13  16
HETATM   16  C8  UNL     1      26.539   0.691  53.793  1.00  0.00     0.086 C 
BRANCH  16  17
HETATM   17  C7  UNL     1      27.306  -0.351  53.561  1.00  0.00    -0.024 C 
HETATM   18  C2  UNL     1      28.773  -0.358  53.687  1.00  0.00    -0.052 C 
HETATM   19  C1  UNL     1      29.424   0.912  54.095  1.00  0.00     0.049 C 
HETATM   20  C3  UNL     1      29.332  -1.506  53.416  1.00  0.00     0.008 C 
HETATM   21  C4  UNL     1      28.656  -2.758  53.011  1.00  0.00     0.013 C 
HETATM   22  C5  UNL     1      27.499  -2.408  52.460  1.00  0.00    -0.025 C 
HETATM   23  C6  UNL     1      26.714  -1.609  53.162  1.00  0.00     0.024 C 
ENDBRANCH  16  17
ENDBRANCH  13  16
ENDBRANCH   1  12
BRANCH   9  24
HETATM   24  C16 UNL     1      20.799   3.474  50.644  1.00  0.00     0.153 A 
HETATM   25  C17 UNL     1      19.679   3.394  51.655  1.00  0.00     0.004 A 
HETATM   26  C18 UNL     1      18.947   2.306  51.475  1.00  0.00    -0.000 A 
HETATM   27  C19 UNL     1      19.511   1.571  50.334  1.00  0.00     0.021 A 
HETATM   28  C20 UNL     1      20.572   2.244  49.858  1.00  0.00     0.038 A 
HETATM   29 CL1  UNL     1      21.170   1.316  48.466  1.00  0.00    -0.086 Cl
ENDBRANCH   9  24
TORSDOF 4
ENDMDL
MODEL 7
REMARK VINA RESULT:      -8.0      3.054      8.422
REMARK  4 active torsions:
REMARK  status: ('A' for Active; 'I' for Inactive)
REMARK    1  A    between atoms: C7_7  and  C8_8 
REMARK    2  A    between atoms: C8_8  and  C9_9 
REMARK       I    between atoms: C9_9  and  N1_11 
REMARK    3  A    between atoms: N1_11  and  C10_12 
REMARK    4  A    between atoms: N4_20  and  C16_21 
ROOT
HETATM    1  C10 UNL     1      24.264   2.008  51.364  1.00  0.00     0.034 C 
HETATM    2  C11 UNL     1      23.086   1.561  51.001  1.00  0.00     0.025 C 
HETATM    3  C12 UNL     1      21.934   0.762  51.224  1.00  0.00     0.004 C 
HETATM    4  C13 UNL     1      21.219  -0.073  51.924  1.00  0.00     0.155 C 
HETATM    5  N2  UNL     1      22.249  -0.036  52.857  1.00  0.00    -0.288 N 
HETATM    6  C14 UNL     1      23.260  -0.803  52.832  1.00  0.00     0.195 A 
HETATM    7  N3  UNL     1      23.204   0.144  53.891  1.00  0.00    -0.148 NA
HETATM    8  C15 UNL     1      24.171   1.003  54.133  1.00  0.00     0.178 C 
HETATM    9  N4  UNL     1      25.329   0.988  53.301  1.00  0.00    -0.357 N 
HETATM   10  C21 UNL     1      25.374   2.027  52.305  1.00  0.00     0.131 C 
HETATM   11  C22 UNL     1      26.714   2.028  51.581  1.00  0.00     0.039 C 
ENDROOT
BRANCH   1  12
HETATM   12  N1  UNL     1      24.726   2.927  50.330  1.00  0.00    -0.325 N 
HETATM   13  C9  UNL     1      24.518   4.322  50.154  1.00  0.00     0.246 C 
HETATM   14  O1  UNL     1      23.784   4.689  51.136  1.00  0.00    -0.268 OA
HETATM   15  H8  UNL     1      25.314   2.383  49.629  1.00  0.00     0.169 HD
BRANCH  13  16
HETATM   16  C8  UNL     1      25.073   5.076  49.050  1.00  0.00     0.086 C 
BRANCH  16  17
HETATM   17  C7  UNL     1      25.755   6.097  48.580  1.00  0.00    -0.024 C 
HETATM   18  C2  UNL     1      27.206   6.093  48.331  1.00  0.00    -0.052 C 
HETATM   19  C1  UNL     1      27.944   4.844  48.647  1.00  0.00     0.049 C 
HETATM   20  C3  UNL     1      27.674   7.214  47.855  1.00  0.00     0.008 C 
HETATM   21  C4  UNL     1      26.912   8.445  47.550  1.00  0.00     0.013 C 
HETATM   22  C5  UNL     1      25.824   8.421  48.311  1.00  0.00    -0.025 C 
HETATM   23  C6  UNL     1      25.076   7.332  48.259  1.00  0.00     0.024 C 
ENDBRANCH  16  17
ENDBRANCH  13  16
ENDBRANCH   1  12
BRANCH   9  24
HETATM   24  C16 UNL     1      26.011  -0.138  53.901  1.00  0.00     0.153 A 
HETATM   25  C17 UNL     1      27.137   0.360  54.775  1.00  0.00     0.004 A 
HETATM   26  C18 UNL     1      28.301  -0.142  54.392  1.00  0.00    -0.000 A 
HETATM   27  C19 UNL     1      28.052  -1.015  53.237  1.00  0.00     0.021 A 
HETATM   28  C20 UNL     1      26.738  -1.012  52.958  1.00  0.00     0.038 A 
HETATM   29 CL1  UNL     1      26.516  -2.114  51.582  1.00  0.00    -0.086 Cl
ENDBRANCH   9  24
TORSDOF 4
ENDMDL
MODEL 8
REMARK VINA RESULT:      -7.8      3.024      5.068
REMARK  4 active torsions:
REMARK  status: ('A' for Active; 'I' for Inactive)
REMARK    1  A    between atoms: C7_7  and  C8_8 
REMARK    2  A    between atoms: C8_8  and  C9_9 
REMARK       I    between atoms: C9_9  and  N1_11 
REMARK    3  A    between atoms: N1_11  and  C10_12 
REMARK    4  A    between atoms: N4_20  and  C16_21 
ROOT
HETATM    1  C10 UNL     1      23.092   2.579  50.651  1.00  0.00     0.034 C 
HETATM    2  C11 UNL     1      22.182   2.323  51.560  1.00  0.00     0.025 C 
HETATM    3  C12 UNL     1      20.901   2.532  52.132  1.00  0.00     0.004 C 
HETATM    4  C13 UNL     1      19.727   3.097  52.174  1.00  0.00     0.155 C 
HETATM    5  N2  UNL     1      20.113   3.782  51.028  1.00  0.00    -0.288 N 
HETATM    6  C14 UNL     1      20.732   4.891  51.035  1.00  0.00     0.195 A 
HETATM    7  N3  UNL     1      20.429   4.338  49.762  1.00  0.00    -0.148 NA
HETATM    8  C15 UNL     1      21.345   4.116  48.843  1.00  0.00     0.178 C 
HETATM    9  N4  UNL     1      22.702   4.441  49.132  1.00  0.00    -0.357 N 
HETATM   10  C21 UNL     1      23.535   3.319  49.478  1.00  0.00     0.131 C 
HETATM   11  C22 UNL     1      24.992   3.741  49.607  1.00  0.00     0.039 C 
ENDROOT
BRANCH   1  12
HETATM   12  N1  UNL     1      24.250   1.739  50.936  1.00  0.00    -0.325 N 
HETATM   13  C9  UNL     1      25.093   1.661  52.077  1.00  0.00     0.246 C 
HETATM   14  O1  UNL     1      24.645   2.531  52.900  1.00  0.00    -0.268 OA
HETATM   15  H8  UNL     1      24.424   1.103  50.100  1.00  0.00     0.169 HD
BRANCH  13  16
HETATM   16  C8  UNL     1      26.208   0.743  52.181  1.00  0.00     0.086 C 
BRANCH  16  17
HETATM   17  C7  UNL     1      27.357   0.381  52.708  1.00  0.00    -0.024 C 
HETATM   18  C2  UNL     1      27.795  -1.014  52.891  1.00  0.00    -0.052 C 
HETATM   19  C1  UNL     1      26.858  -2.080  52.453  1.00  0.00     0.049 C 
HETATM   20  C3  UNL     1      28.977  -1.142  53.427  1.00  0.00     0.008 C 
HETATM   21  C4  UNL     1      29.889  -0.058  53.855  1.00  0.00     0.013 C 
HETATM   22  C5  UNL     1      29.132   1.006  54.101  1.00  0.00    -0.025 C 
HETATM   23  C6  UNL     1      28.299   1.386  53.147  1.00  0.00     0.024 C 
ENDBRANCH  16  17
ENDBRANCH  13  16
ENDBRANCH   1  12
BRANCH   9  24
HETATM   24  C16 UNL     1      22.637   5.867  48.898  1.00  0.00     0.153 A 
HETATM   25  C17 UNL     1      23.007   6.162  47.464  1.00  0.00     0.004 A 
HETATM   26  C18 UNL     1      24.039   6.989  47.394  1.00  0.00    -0.000 A 
HETATM   27  C19 UNL     1      24.442   7.317  48.768  1.00  0.00     0.021 A 
HETATM   28  C20 UNL     1      23.635   6.674  49.629  1.00  0.00     0.038 A 
HETATM   29 CL1  UNL     1      24.161   7.150  51.259  1.00  0.00    -0.086 Cl
ENDBRANCH   9  24
TORSDOF 4
ENDMDL
MODEL 9
REMARK VINA RESULT:      -7.7      1.242      2.053
REMARK  4 active torsions:
REMARK  status: ('A' for Active; 'I' for Inactive)
REMARK    1  A    between atoms: C7_7  and  C8_8 
REMARK    2  A    between atoms: C8_8  and  C9_9 
REMARK       I    between atoms: C9_9  and  N1_11 
REMARK    3  A    between atoms: N1_11  and  C10_12 
REMARK    4  A    between atoms: N4_20  and  C16_21 
ROOT
HETATM    1  C10 UNL     1      23.711   3.856  50.619  1.00  0.00     0.034 C 
HETATM    2  C11 UNL     1      24.837   3.372  50.154  1.00  0.00     0.025 C 
HETATM    3  C12 UNL     1      26.123   3.543  49.579  1.00  0.00     0.004 C 
HETATM    4  C13 UNL     1      27.099   4.273  49.116  1.00  0.00     0.155 C 
HETATM    5  N2  UNL     1      26.306   5.372  49.423  1.00  0.00    -0.288 N 
HETATM    6  C14 UNL     1      25.451   5.877  48.632  1.00  0.00     0.195 A 
HETATM    7  N3  UNL     1      25.584   6.494  49.905  1.00  0.00    -0.148 NA
HETATM    8  C15 UNL     1      24.568   6.674  50.722  1.00  0.00     0.178 C 
HETATM    9  N4  UNL     1      23.274   6.232  50.317  1.00  0.00    -0.357 N 
HETATM   10  C21 UNL     1      22.845   4.991  50.907  1.00  0.00     0.131 C 
HETATM   11  C22 UNL     1      21.397   4.688  50.545  1.00  0.00     0.039 C 
ENDROOT
BRANCH   1  12
HETATM   12  N1  UNL     1      22.892   2.730  51.054  1.00  0.00    -0.325 N 
HETATM   13  C9  UNL     1      22.876   1.998  52.272  1.00  0.00     0.246 C 
HETATM   14  O1  UNL     1      23.786   2.522  53.004  1.00  0.00    -0.268 OA
HETATM   15  H8  UNL     1      22.215   2.479  50.273  1.00  0.00     0.169 HD
BRANCH  13  16
HETATM   16  C8  UNL     1      21.970   0.898  52.527  1.00  0.00     0.086 C 
BRANCH  16  17
HETATM   17  C7  UNL     1      20.759   0.389  52.564  1.00  0.00    -0.024 C 
HETATM   18  C2  UNL     1      20.306  -0.631  53.526  1.00  0.00    -0.052 C 
HETATM   19  C1  UNL     1      21.301  -1.119  54.515  1.00  0.00     0.049 C 
HETATM   20  C3  UNL     1      19.059  -0.987  53.386  1.00  0.00     0.008 C 
HETATM   21  C4  UNL     1      18.089  -0.483  52.389  1.00  0.00     0.013 C 
HETATM   22  C5  UNL     1      18.797  -0.034  51.359  1.00  0.00    -0.025 C 
HETATM   23  C6  UNL     1      19.758   0.836  51.621  1.00  0.00     0.024 C 
ENDBRANCH  16  17
ENDBRANCH  13  16
ENDBRANCH   1  12
BRANCH   9  24
HETATM   24  C16 UNL     1      22.930   7.337  49.448  1.00  0.00     0.153 A 
HETATM   25  C17 UNL     1      21.944   8.242  50.148  1.00  0.00     0.004 A 
HETATM   26  C18 UNL     1      20.827   8.366  49.448  1.00  0.00    -0.000 A 
HETATM   27  C19 UNL     1      20.972   7.561  48.228  1.00  0.00     0.021 A 
HETATM   28  C20 UNL     1      22.180   6.973  48.230  1.00  0.00     0.038 A 
HETATM   29 CL1  UNL     1      22.291   6.053  46.713  1.00  0.00    -0.086 Cl
ENDBRANCH   9  24
TORSDOF 4
ENDMDL
