MODEL 1
REMARK VINA RESULT:      -8.5      0.000      0.000
REMARK  4 active torsions:
REMARK  status: ('A' for Active; 'I' for Inactive)
REMARK    1  A    between atoms: C2_2  and  C3_3 
REMARK    2  A    between atoms: C2_2  and  N2_16 
REMARK    3  A    between atoms: C8_10  and  O2_11 
REMARK    4  A    between atoms: N2_16  and  C13_17 
ROOT
HETATM    1  C3  UNL     1      23.263   0.610  52.830  1.00  0.00     0.046 C 
HETATM    2  C4  UNL     1      22.250  -0.051  53.343  1.00  0.00     0.046 A 
HETATM    3  C5  UNL     1      22.106  -0.893  54.522  1.00  0.00     0.257 A 
HETATM    4  O1  UNL     1      23.002  -1.190  55.345  1.00  0.00    -0.267 OA
HETATM    5  N1  UNL     1      20.787  -1.396  54.690  1.00  0.00    -0.322 N 
HETATM    6  C6  UNL     1      20.095  -0.847  53.580  1.00  0.00     0.049 A 
HETATM    7  C7  UNL     1      18.772  -0.979  53.202  1.00  0.00     0.067 A 
HETATM    8  C8  UNL     1      18.221  -0.387  52.095  1.00  0.00     0.070 A 
HETATM    9  C10 UNL     1      19.042   0.407  51.280  1.00  0.00     0.038 A 
HETATM   10  C11 UNL     1      20.350   0.535  51.657  1.00  0.00     0.017 A 
HETATM   11  C12 UNL     1      20.896  -0.070  52.783  1.00  0.00     0.007 A 
HETATM   12  H4  UNL     1      20.410  -2.011  55.433  1.00  0.00     0.169 HD
ENDROOT
BRANCH   1  13
HETATM   13  C2  UNL     1      24.650   0.801  53.182  1.00  0.00     0.023 C 
HETATM   14  C1  UNL     1      25.092   2.072  52.989  1.00  0.00     0.043 C 
BRANCH  13  15
HETATM   15  N2  UNL     1      25.747   0.059  53.685  1.00  0.00    -0.360 N 
HETATM   16  H11 UNL     1      25.627  -0.667  54.426  1.00  0.00     0.166 HD
BRANCH  15  17
HETATM   17  C13 UNL     1      27.147  -0.270  53.738  1.00  0.00     0.005 C 
HETATM   18  C14 UNL     1      27.525  -1.379  53.076  1.00  0.00    -0.002 C 
HETATM   19  C15 UNL     1      28.905  -1.971  52.951  1.00  0.00     0.029 C 
HETATM   20  C16 UNL     1      29.869  -1.156  53.796  1.00  0.00     0.004 C 
HETATM   21  C17 UNL     1      29.494   0.310  53.741  1.00  0.00     0.006 C 
HETATM   22  C18 UNL     1      28.192   0.534  54.469  1.00  0.00     0.057 C 
ENDBRANCH  15  17
ENDBRANCH  13  15
ENDBRANCH   1  13
BRANCH   8  23
HETATM   23  O2  UNL     1      16.915  -0.472  51.659  1.00  0.00    -0.356 OA
HETATM   24  C9  UNL     1      15.813  -0.700  52.513  1.00  0.00     0.210 C 
ENDBRANCH   8  23
TORSDOF 4
ENDMDL
MODEL 2
REMARK VINA RESULT:      -8.0      4.159      6.076
REMARK  4 active torsions:
REMARK  status: ('A' for Active; 'I' for Inactive)
REMARK    1  A    between atoms: C2_2  and  C3_3 
REMARK    2  A    between atoms: C2_2  and  N2_16 
REMARK    3  A    between atoms: C8_10  and  O2_11 
REMARK    4  A    between atoms: N2_16  and  C13_17 
ROOT
HETATM    1  C3  UNL     1      24.394   1.605  51.929  1.00  0.00     0.046 C 
HETATM    2  C4  UNL     1      25.084   2.512  51.275  1.00  0.00     0.046 A 
HETATM    3  C5  UNL     1      26.503   2.832  51.217  1.00  0.00     0.257 A 
HETATM    4  O1  UNL     1      27.426   2.263  51.844  1.00  0.00    -0.267 OA
HETATM    5  N1  UNL     1      26.796   3.914  50.342  1.00  0.00    -0.322 N 
HETATM    6  C6  UNL     1      25.517   4.273  49.844  1.00  0.00     0.049 A 
HETATM    7  C7  UNL     1      25.156   5.260  48.947  1.00  0.00     0.067 A 
HETATM    8  C8  UNL     1      23.870   5.505  48.542  1.00  0.00     0.070 A 
HETATM    9  C10 UNL     1      22.839   4.709  49.064  1.00  0.00     0.038 A 
HETATM   10  C11 UNL     1      23.199   3.733  49.951  1.00  0.00     0.017 A 
HETATM   11  C12 UNL     1      24.509   3.495  50.353  1.00  0.00     0.007 A 
HETATM   12  H4  UNL     1      27.710   4.343  50.114  1.00  0.00     0.169 HD
ENDROOT
BRANCH   1  13
HETATM   13  C2  UNL     1      24.710   0.545  52.856  1.00  0.00     0.023 C 
HETATM   14  C1  UNL     1      23.641  -0.230  53.184  1.00  0.00     0.043 C 
BRANCH  13  15
HETATM   15  N2  UNL     1      25.820   0.028  53.567  1.00  0.00    -0.360 N 
HETATM   16  H11 UNL     1      25.736  -0.304  54.554  1.00  0.00     0.166 HD
BRANCH  15  17
HETATM   17  C13 UNL     1      27.210  -0.326  53.679  1.00  0.00     0.005 C 
HETATM   18  C14 UNL     1      27.595  -1.446  53.039  1.00  0.00    -0.002 C 
HETATM   19  C15 UNL     1      28.968  -2.064  52.973  1.00  0.00     0.029 C 
HETATM   20  C16 UNL     1      29.911  -1.261  53.853  1.00  0.00     0.004 C 
HETATM   21  C17 UNL     1      29.565   0.210  53.775  1.00  0.00     0.006 C 
HETATM   22  C18 UNL     1      28.239   0.463  54.448  1.00  0.00     0.057 C 
ENDBRANCH  15  17
ENDBRANCH  13  15
ENDBRANCH   1  13
BRANCH   8  23
HETATM   23  O2  UNL     1      23.437   6.467  47.653  1.00  0.00    -0.356 OA
HETATM   24  C9  UNL     1      24.254   7.509  47.161  1.00  0.00     0.210 C 
ENDBRANCH   8  23
TORSDOF 4
ENDMDL
MODEL 3
REMARK VINA RESULT:      -7.9      4.471      7.898
REMARK  4 active torsions:
REMARK  status: ('A' for Active; 'I' for Inactive)
REMARK    1  A    between atoms: C2_2  and  C3_3 
REMARK    2  A    between atoms: C2_2  and  N2_16 
REMARK    3  A    between atoms: C8_10  and  O2_11 
REMARK    4  A    between atoms: N2_16  and  C13_17 
ROOT
HETATM    1  C3  UNL     1      25.982   1.726  51.392  1.00  0.00     0.046 C 
HETATM    2  C4  UNL     1      25.484   2.927  51.208  1.00  0.00     0.046 A 
HETATM    3  C5  UNL     1      24.363   3.642  51.801  1.00  0.00     0.257 A 
HETATM    4  O1  UNL     1      23.575   3.207  52.673  1.00  0.00    -0.267 OA
HETATM    5  N1  UNL     1      24.206   4.959  51.289  1.00  0.00    -0.322 N 
HETATM    6  C6  UNL     1      25.265   5.061  50.350  1.00  0.00     0.049 A 
HETATM    7  C7  UNL     1      25.629   6.113  49.531  1.00  0.00     0.067 A 
HETATM    8  C8  UNL     1      26.687   6.084  48.660  1.00  0.00     0.070 A 
HETATM    9  C10 UNL     1      27.459   4.915  48.581  1.00  0.00     0.038 A 
HETATM   10  C11 UNL     1      27.096   3.877  49.391  1.00  0.00     0.017 A 
HETATM   11  C12 UNL     1      26.020   3.919  50.272  1.00  0.00     0.007 A 
HETATM   12  H4  UNL     1      23.501   5.677  51.532  1.00  0.00     0.169 HD
ENDROOT
BRANCH   1  13
HETATM   13  C2  UNL     1      25.662   0.599  52.235  1.00  0.00     0.023 C 
HETATM   14  C1  UNL     1      26.581  -0.402  52.181  1.00  0.00     0.043 C 
BRANCH  13  15
HETATM   15  N2  UNL     1      24.656   0.179  53.139  1.00  0.00    -0.360 N 
HETATM   16  H11 UNL     1      24.858   0.017  54.151  1.00  0.00     0.166 HD
BRANCH  15  17
HETATM   17  C13 UNL     1      23.307  -0.213  53.455  1.00  0.00     0.005 C 
HETATM   18  C14 UNL     1      22.358   0.146  52.571  1.00  0.00    -0.002 C 
HETATM   19  C15 UNL     1      20.876  -0.119  52.629  1.00  0.00     0.029 C 
HETATM   20  C16 UNL     1      20.550  -0.810  53.942  1.00  0.00     0.004 C 
HETATM   21  C17 UNL     1      21.665  -1.763  54.316  1.00  0.00     0.006 C 
HETATM   22  C18 UNL     1      22.904  -0.986  54.685  1.00  0.00     0.057 C 
ENDBRANCH  15  17
ENDBRANCH  13  15
ENDBRANCH   1  13
BRANCH   8  23
HETATM   23  O2  UNL     1      27.109   7.091  47.817  1.00  0.00    -0.356 OA
HETATM   24  C9  UNL     1      26.257   8.086  47.289  1.00  0.00     0.210 C 
ENDBRANCH   8  23
TORSDOF 4
ENDMDL
MODEL 4
REMARK VINA RESULT:      -7.8      1.915      8.294
REMARK  4 active torsions:
REMARK  status: ('A' for Active; 'I' for Inactive)
REMARK    1  A    between atoms: C2_2  and  C3_3 
REMARK    2  A    between atoms: C2_2  and  N2_16 
REMARK    3  A    between atoms: C8_10  and  O2_11 
REMARK    4  A    between atoms: N2_16  and  C13_17 
ROOT
HETATM    1  C3  UNL     1      22.353   0.443  52.940  1.00  0.00     0.046 C 
HETATM    2  C4  UNL     1      23.312  -0.075  53.673  1.00  0.00     0.046 A 
HETATM    3  C5  UNL     1      23.314  -0.961  54.828  1.00  0.00     0.257 A 
HETATM    4  O1  UNL     1      22.312  -1.437  55.409  1.00  0.00    -0.267 OA
HETATM    5  N1  UNL     1      24.623  -1.273  55.290  1.00  0.00    -0.322 N 
HETATM    6  C6  UNL     1      25.454  -0.556  54.392  1.00  0.00     0.049 A 
HETATM    7  C7  UNL     1      26.832  -0.468  54.333  1.00  0.00     0.067 A 
HETATM    8  C8  UNL     1      27.521   0.266  53.403  1.00  0.00     0.070 A 
HETATM    9  C10 UNL     1      26.793   0.982  52.440  1.00  0.00     0.038 A 
HETATM   10  C11 UNL     1      25.431   0.893  52.502  1.00  0.00     0.017 A 
HETATM   11  C12 UNL     1      24.744   0.144  53.451  1.00  0.00     0.007 A 
HETATM   12  H4  UNL     1      24.912  -1.873  56.083  1.00  0.00     0.169 HD
ENDROOT
BRANCH   1  13
HETATM   13  C2  UNL     1      20.911   0.377  52.939  1.00  0.00     0.023 C 
HETATM   14  C1  UNL     1      20.313   1.513  52.493  1.00  0.00     0.043 C 
BRANCH  13  15
HETATM   15  N2  UNL     1      19.872  -0.529  53.266  1.00  0.00    -0.360 N 
HETATM   16  H11 UNL     1      19.918  -1.135  54.116  1.00  0.00     0.166 HD
BRANCH  15  17
HETATM   17  C13 UNL     1      18.605  -1.163  53.013  1.00  0.00     0.005 C 
HETATM   18  C14 UNL     1      18.378  -2.322  53.658  1.00  0.00    -0.002 C 
HETATM   19  C15 UNL     1      17.159  -3.206  53.595  1.00  0.00     0.029 C 
HETATM   20  C16 UNL     1      16.189  -2.633  52.575  1.00  0.00     0.004 C 
HETATM   21  C17 UNL     1      16.220  -1.121  52.621  1.00  0.00     0.006 C 
HETATM   22  C18 UNL     1      17.541  -0.618  52.094  1.00  0.00     0.057 C 
ENDBRANCH  15  17
ENDBRANCH  13  15
ENDBRANCH   1  13
BRANCH   8  23
HETATM   23  O2  UNL     1      28.889   0.399  53.282  1.00  0.00    -0.356 OA
HETATM   24  C9  UNL     1      29.804  -0.659  53.482  1.00  0.00     0.210 C 
ENDBRANCH   8  23
TORSDOF 4
ENDMDL
MODEL 5
REMARK VINA RESULT:      -7.8      4.818      6.624
REMARK  4 active torsions:
REMARK  status: ('A' for Active; 'I' for Inactive)
REMARK    1  A    between atoms: C2_2  and  C3_3 
REMARK    2  A    between atoms: C2_2  and  N2_16 
REMARK    3  A    between atoms: C8_10  and  O2_11 
REMARK    4  A    between atoms: N2_16  and  C13_17 
ROOT
HETATM    1  C3  UNL     1      24.536   3.353  50.424  1.00  0.00     0.046 C 
HETATM    2  C4  UNL     1      24.990   2.440  51.253  1.00  0.00     0.046 A 
HETATM    3  C5  UNL     1      26.319   2.127  51.758  1.00  0.00     0.257 A 
HETATM    4  O1  UNL     1      27.388   2.711  51.467  1.00  0.00    -0.267 OA
HETATM    5  N1  UNL     1      26.327   1.034  52.668  1.00  0.00    -0.322 N 
HETATM    6  C6  UNL     1      24.959   0.661  52.726  1.00  0.00     0.049 A 
HETATM    7  C7  UNL     1      24.340  -0.341  53.448  1.00  0.00     0.067 A 
HETATM    8  C8  UNL     1      22.995  -0.599  53.417  1.00  0.00     0.070 A 
HETATM    9  C10 UNL     1      22.177   0.199  52.601  1.00  0.00     0.038 A 
HETATM   10  C11 UNL     1      22.793   1.189  51.889  1.00  0.00     0.017 A 
HETATM   11  C12 UNL     1      24.160   1.441  51.930  1.00  0.00     0.007 A 
HETATM   12  H4  UNL     1      27.124   0.607  53.172  1.00  0.00     0.169 HD
ENDROOT
BRANCH   1  13
HETATM   13  C2  UNL     1      25.122   4.428  49.659  1.00  0.00     0.023 C 
HETATM   14  C1  UNL     1      24.240   5.054  48.834  1.00  0.00     0.043 C 
BRANCH  13  15
HETATM   15  N2  UNL     1      26.371   5.070  49.482  1.00  0.00    -0.360 N 
HETATM   16  H11 UNL     1      27.044   5.194  50.272  1.00  0.00     0.166 HD
BRANCH  15  17
HETATM   17  C13 UNL     1      27.352   5.755  48.681  1.00  0.00     0.005 C 
HETATM   18  C14 UNL     1      27.030   6.997  48.276  1.00  0.00    -0.002 C 
HETATM   19  C15 UNL     1      27.843   7.949  47.437  1.00  0.00     0.029 C 
HETATM   20  C16 UNL     1      29.120   7.252  46.999  1.00  0.00     0.004 C 
HETATM   21  C17 UNL     1      29.623   6.350  48.106  1.00  0.00     0.006 C 
HETATM   22  C18 UNL     1      28.687   5.180  48.281  1.00  0.00     0.057 C 
ENDBRANCH  15  17
ENDBRANCH  13  15
ENDBRANCH   1  13
BRANCH   8  23
HETATM   23  O2  UNL     1      22.310  -1.577  54.108  1.00  0.00    -0.356 OA
HETATM   24  C9  UNL     1      20.906  -1.593  54.267  1.00  0.00     0.210 C 
ENDBRANCH   8  23
TORSDOF 4
ENDMDL
MODEL 6
REMARK VINA RESULT:      -7.7      2.491      8.501
REMARK  4 active torsions:
REMARK  status: ('A' for Active; 'I' for Inactive)
REMARK    1  A    between atoms: C2_2  and  C3_3 
REMARK    2  A    between atoms: C2_2  and  N2_16 
REMARK    3  A    between atoms: C8_10  and  O2_11 
REMARK    4  A    between atoms: N2_16  and  C13_17 
ROOT
HETATM    1  C3  UNL     1      22.780   0.561  51.943  1.00  0.00     0.046 C 
HETATM    2  C4  UNL     1      23.706   1.345  52.449  1.00  0.00     0.046 A 
HETATM    3  C5  UNL     1      23.768   2.777  52.700  1.00  0.00     0.257 A 
HETATM    4  O1  UNL     1      22.878   3.621  52.449  1.00  0.00    -0.267 OA
HETATM    5  N1  UNL     1      24.996   3.188  53.288  1.00  0.00    -0.322 N 
HETATM    6  C6  UNL     1      25.714   1.970  53.403  1.00  0.00     0.049 A 
HETATM    7  C7  UNL     1      26.978   1.727  53.907  1.00  0.00     0.067 A 
HETATM    8  C8  UNL     1      27.562   0.488  53.965  1.00  0.00     0.070 A 
HETATM    9  C10 UNL     1      26.842  -0.616  53.484  1.00  0.00     0.038 A 
HETATM   10  C11 UNL     1      25.593  -0.372  52.987  1.00  0.00     0.017 A 
HETATM   11  C12 UNL     1      25.011   0.890  52.935  1.00  0.00     0.007 A 
HETATM   12  H4  UNL     1      25.304   4.136  53.568  1.00  0.00     0.169 HD
ENDROOT
BRANCH   1  13
HETATM   13  C2  UNL     1      21.448   0.749  51.422  1.00  0.00     0.023 C 
HETATM   14  C1  UNL     1      21.422   1.163  50.127  1.00  0.00     0.043 C 
BRANCH  13  15
HETATM   15  N2  UNL     1      20.099   0.637  51.840  1.00  0.00    -0.360 N 
HETATM   16  H11 UNL     1      19.608   1.419  52.329  1.00  0.00     0.166 HD
BRANCH  15  17
HETATM   17  C13 UNL     1      18.864  -0.087  51.985  1.00  0.00     0.005 C 
HETATM   18  C14 UNL     1      18.754  -0.867  53.077  1.00  0.00    -0.002 C 
HETATM   19  C15 UNL     1      17.594  -1.734  53.495  1.00  0.00     0.029 C 
HETATM   20  C16 UNL     1      16.528  -1.686  52.413  1.00  0.00     0.004 C 
HETATM   21  C17 UNL     1      16.462  -0.298  51.813  1.00  0.00     0.006 C 
HETATM   22  C18 UNL     1      17.713  -0.024  51.015  1.00  0.00     0.057 C 
ENDBRANCH  15  17
ENDBRANCH  13  15
ENDBRANCH   1  13
BRANCH   8  23
HETATM   23  O2  UNL     1      28.813   0.171  54.453  1.00  0.00    -0.356 OA
HETATM   24  C9  UNL     1      29.779  -0.561  53.727  1.00  0.00     0.210 C 
ENDBRANCH   8  23
TORSDOF 4
ENDMDL
MODEL 7
REMARK VINA RESULT:      -7.6      1.873      2.675
REMARK  4 active torsions:
REMARK  status: ('A' for Active; 'I' for Inactive)
REMARK    1  A    between atoms: C2_2  and  C3_3 
REMARK    2  A    between atoms: C2_2  and  N2_16 
REMARK    3  A    between atoms: C8_10  and  O2_11 
REMARK    4  A    between atoms: N2_16  and  C13_17 
ROOT
HETATM    1  C3  UNL     1      22.327  -0.391  53.498  1.00  0.00     0.046 C 
HETATM    2  C4  UNL     1      21.885   0.216  52.420  1.00  0.00     0.046 A 
HETATM    3  C5  UNL     1      22.528   1.042  51.408  1.00  0.00     0.257 A 
HETATM    4  O1  UNL     1      23.735   1.376  51.370  1.00  0.00    -0.267 OA
HETATM    5  N1  UNL     1      21.633   1.479  50.393  1.00  0.00    -0.322 N 
HETATM    6  C6  UNL     1      20.399   0.905  50.791  1.00  0.00     0.049 A 
HETATM    7  C7  UNL     1      19.153   0.975  50.198  1.00  0.00     0.067 A 
HETATM    8  C8  UNL     1      18.028   0.365  50.688  1.00  0.00     0.070 A 
HETATM    9  C10 UNL     1      18.131  -0.382  51.871  1.00  0.00     0.038 A 
HETATM   10  C11 UNL     1      19.364  -0.449  52.456  1.00  0.00     0.017 A 
HETATM   11  C12 UNL     1      20.499   0.174  51.947  1.00  0.00     0.007 A 
HETATM   12  H4  UNL     1      21.822   2.069  49.563  1.00  0.00     0.169 HD
ENDROOT
BRANCH   1  13
HETATM   13  C2  UNL     1      23.606  -0.516  54.155  1.00  0.00     0.023 C 
HETATM   14  C1  UNL     1      23.577  -1.309  55.260  1.00  0.00     0.043 C 
BRANCH  13  15
HETATM   15  N2  UNL     1      24.940  -0.059  54.017  1.00  0.00    -0.360 N 
HETATM   16  H11 UNL     1      25.181   0.957  54.061  1.00  0.00     0.166 HD
BRANCH  15  17
HETATM   17  C13 UNL     1      26.347  -0.276  53.805  1.00  0.00     0.005 C 
HETATM   18  C14 UNL     1      27.173   0.197  54.757  1.00  0.00    -0.002 C 
HETATM   19  C15 UNL     1      28.677   0.123  54.812  1.00  0.00     0.029 C 
HETATM   20  C16 UNL     1      29.186  -0.516  53.531  1.00  0.00     0.004 C 
HETATM   21  C17 UNL     1      28.233  -1.602  53.079  1.00  0.00     0.006 C 
HETATM   22  C18 UNL     1      26.937  -0.986  52.614  1.00  0.00     0.057 C 
ENDBRANCH  15  17
ENDBRANCH  13  15
ENDBRANCH   1  13
BRANCH   8  23
HETATM   23  O2  UNL     1      16.757   0.389  50.151  1.00  0.00    -0.356 OA
HETATM   24  C9  UNL     1      15.711  -0.466  50.564  1.00  0.00     0.210 C 
ENDBRANCH   8  23
TORSDOF 4
ENDMDL
MODEL 8
REMARK VINA RESULT:      -7.4      2.359      8.462
REMARK  4 active torsions:
REMARK  status: ('A' for Active; 'I' for Inactive)
REMARK    1  A    between atoms: C2_2  and  C3_3 
REMARK    2  A    between atoms: C2_2  and  N2_16 
REMARK    3  A    between atoms: C8_10  and  O2_11 
REMARK    4  A    between atoms: N2_16  and  C13_17 
ROOT
HETATM    1  C3  UNL     1      22.910  -0.008  53.587  1.00  0.00     0.046 C 
HETATM    2  C4  UNL     1      23.830   0.887  53.304  1.00  0.00     0.046 A 
HETATM    3  C5  UNL     1      23.769   2.254  52.807  1.00  0.00     0.257 A 
HETATM    4  O1  UNL     1      22.736   2.898  52.512  1.00  0.00    -0.267 OA
HETATM    5  N1  UNL     1      25.050   2.853  52.663  1.00  0.00    -0.322 N 
HETATM    6  C6  UNL     1      25.930   1.824  53.086  1.00  0.00     0.049 A 
HETATM    7  C7  UNL     1      27.309   1.812  53.171  1.00  0.00     0.067 A 
HETATM    8  C8  UNL     1      28.048   0.741  53.603  1.00  0.00     0.070 A 
HETATM    9  C10 UNL     1      27.373  -0.428  53.987  1.00  0.00     0.038 A 
HETATM   10  C11 UNL     1      26.009  -0.413  53.901  1.00  0.00     0.017 A 
HETATM   11  C12 UNL     1      25.272   0.681  53.461  1.00  0.00     0.007 A 
HETATM   12  H4  UNL     1      25.295   3.804  52.334  1.00  0.00     0.169 HD
ENDROOT
BRANCH   1  13
HETATM   13  C2  UNL     1      21.468  -0.051  53.537  1.00  0.00     0.023 C 
HETATM   14  C1  UNL     1      20.934  -1.153  54.128  1.00  0.00     0.043 C 
BRANCH  13  15
HETATM   15  N2  UNL     1      20.382   0.717  53.050  1.00  0.00    -0.360 N 
HETATM   16  H11 UNL     1      19.853   1.374  53.666  1.00  0.00     0.166 HD
BRANCH  15  17
HETATM   17  C13 UNL     1      19.476   1.129  52.011  1.00  0.00     0.005 C 
HETATM   18  C14 UNL     1      18.785   0.150  51.398  1.00  0.00    -0.002 C 
HETATM   19  C15 UNL     1      17.775   0.271  50.286  1.00  0.00     0.029 C 
HETATM   20  C16 UNL     1      17.693   1.724  49.852  1.00  0.00     0.004 C 
HETATM   21  C17 UNL     1      17.844   2.633  51.052  1.00  0.00     0.006 C 
HETATM   22  C18 UNL     1      19.255   2.557  51.580  1.00  0.00     0.057 C 
ENDBRANCH  15  17
ENDBRANCH  13  15
ENDBRANCH   1  13
BRANCH   8  23
HETATM   23  O2  UNL     1      29.420   0.658  53.716  1.00  0.00    -0.356 OA
HETATM   24  C9  UNL     1      30.162  -0.517  53.457  1.00  0.00     0.210 C 
ENDBRANCH   8  23
TORSDOF 4
ENDMDL
MODEL 9
REMARK VINA RESULT:      -7.4      5.496      7.689
REMARK  4 active torsions:
REMARK  status: ('A' for Active; 'I' for Inactive)
REMARK    1  A    between atoms: C2_2  and  C3_3 
REMARK    2  A    between atoms: C2_2  and  N2_16 
REMARK    3  A    between atoms: C8_10  and  O2_11 
REMARK    4  A    between atoms: N2_16  and  C13_17 
ROOT
HETATM    1  C3  UNL     1      24.023   3.168  50.321  1.00  0.00     0.046 C 
HETATM    2  C4  UNL     1      25.068   3.879  49.962  1.00  0.00     0.046 A 
HETATM    3  C5  UNL     1      26.498   3.736  50.197  1.00  0.00     0.257 A 
HETATM    4  O1  UNL     1      27.061   2.834  50.858  1.00  0.00    -0.267 OA
HETATM    5  N1  UNL     1      27.269   4.763  49.587  1.00  0.00    -0.322 N 
HETATM    6  C6  UNL     1      26.284   5.565  48.955  1.00  0.00     0.049 A 
HETATM    7  C7  UNL     1      26.423   6.713  48.199  1.00  0.00     0.067 A 
HETATM    8  C8  UNL     1      25.380   7.399  47.636  1.00  0.00     0.070 A 
HETATM    9  C10 UNL     1      24.076   6.917  47.831  1.00  0.00     0.038 A 
HETATM   10  C11 UNL     1      23.942   5.781  48.579  1.00  0.00     0.017 A 
HETATM   11  C12 UNL     1      25.011   5.094  49.145  1.00  0.00     0.007 A 
HETATM   12  H4  UNL     1      28.295   4.903  49.593  1.00  0.00     0.169 HD
ENDROOT
BRANCH   1  13
HETATM   13  C2  UNL     1      23.815   1.963  51.087  1.00  0.00     0.023 C 
HETATM   14  C1  UNL     1      22.614   1.369  50.854  1.00  0.00     0.043 C 
BRANCH  13  15
HETATM   15  N2  UNL     1      24.485   1.163  52.045  1.00  0.00    -0.360 N 
HETATM   16  H11 UNL     1      23.986   0.426  52.593  1.00  0.00     0.166 HD
BRANCH  15  17
HETATM   17  C13 UNL     1      25.655   0.772  52.786  1.00  0.00     0.005 C 
HETATM   18  C14 UNL     1      26.277  -0.348  52.371  1.00  0.00    -0.002 C 
HETATM   19  C15 UNL     1      27.511  -1.000  52.941  1.00  0.00     0.029 C 
HETATM   20  C16 UNL     1      27.944  -0.234  54.180  1.00  0.00     0.004 C 
HETATM   21  C17 UNL     1      27.699   1.247  53.986  1.00  0.00     0.006 C 
HETATM   22  C18 UNL     1      26.216   1.523  53.966  1.00  0.00     0.057 C 
ENDBRANCH  15  17
ENDBRANCH  13  15
ENDBRANCH   1  13
BRANCH   8  23
HETATM   23  O2  UNL     1      25.442   8.546  46.871  1.00  0.00    -0.356 OA
HETATM   24  C9  UNL     1      26.516   8.861  46.009  1.00  0.00     0.210 C 
ENDBRANCH   8  23
TORSDOF 4
ENDMDL
