MODEL 1
REMARK VINA RESULT:      -8.0      0.000      0.000
REMARK  3 active torsions:
REMARK  status: ('A' for Active; 'I' for Inactive)
REMARK    1  A    between atoms: O1_2  and  C2_3 
REMARK    2  A    between atoms: C10_12  and  N2_13 
REMARK    3  A    between atoms: N2_13  and  C11_14 
ROOT
HETATM    1  C2  UNL     1      19.608  -1.272  53.570  1.00  0.00     0.069 A 
HETATM    2  C3  UNL     1      19.312  -0.244  52.701  1.00  0.00     0.039 A 
HETATM    3  C4  UNL     1      20.225   0.745  52.412  1.00  0.00     0.041 A 
HETATM    4  C5  UNL     1      21.452   0.662  53.033  1.00  0.00     0.094 A 
HETATM    5  C6  UNL     1      21.888  -0.330  53.943  1.00  0.00    -0.003 A 
HETATM    6  C7  UNL     1      20.857  -1.270  54.141  1.00  0.00     0.048 A 
HETATM    7  C8  UNL     1      23.022  -0.735  54.774  1.00  0.00     0.162 C 
HETATM    8  N1  UNL     1      24.347  -0.774  54.194  1.00  0.00    -0.375 N 
HETATM    9  C9  UNL     1      25.004   0.247  53.387  1.00  0.00     0.150 A 
HETATM   10  C10 UNL     1      26.306   0.172  53.148  1.00  0.00     0.162 A 
HETATM   11  N3  UNL     1      26.875   1.178  52.362  1.00  0.00    -0.221 NA
HETATM   12  C15 UNL     1      26.357   2.194  51.812  1.00  0.00     0.246 A 
HETATM   13  N4  UNL     1      24.969   2.660  51.813  1.00  0.00    -0.188 NA
HETATM   14  S1  UNL     1      24.069   1.651  52.675  1.00  0.00     0.096 SA
HETATM   15  O2  UNL     1      22.322   1.739  52.661  1.00  0.00    -0.263 OA
HETATM   16  H9  UNL     1      25.015  -1.606  54.313  1.00  0.00     0.160 HD
ENDROOT
BRANCH  10  17
HETATM   17  N2  UNL     1      26.937  -0.943  53.732  1.00  0.00    -0.364 N 
HETATM   18  H10 UNL     1      26.609  -1.671  54.406  1.00  0.00     0.162 HD
BRANCH  17  19
HETATM   19  C11 UNL     1      28.238  -0.782  53.095  1.00  0.00     0.109 A 
HETATM   20  C12 UNL     1      29.297  -0.259  53.912  1.00  0.00    -0.006 A 
HETATM   21  C13 UNL     1      29.987  -1.354  53.898  1.00  0.00    -0.026 A 
HETATM   22  C14 UNL     1      29.018  -2.055  53.067  1.00  0.00     0.056 A 
ENDBRANCH  17  19
ENDBRANCH  10  17
BRANCH   1  23
HETATM   23  O1  UNL     1      18.666  -2.252  53.839  1.00  0.00    -0.356 OA
HETATM   24  C1  UNL     1      17.357  -2.206  53.256  1.00  0.00     0.210 C 
ENDBRANCH   1  23
TORSDOF 3
ENDMDL
MODEL 2
REMARK VINA RESULT:      -7.6      3.692      6.738
REMARK  3 active torsions:
REMARK  status: ('A' for Active; 'I' for Inactive)
REMARK    1  A    between atoms: O1_2  and  C2_3 
REMARK    2  A    between atoms: C10_12  and  N2_13 
REMARK    3  A    between atoms: N2_13  and  C11_14 
ROOT
HETATM    1  C2  UNL     1      25.283   6.521  48.410  1.00  0.00     0.069 A 
HETATM    2  C3  UNL     1      23.931   6.275  48.306  1.00  0.00     0.039 A 
HETATM    3  C4  UNL     1      23.367   5.114  48.785  1.00  0.00     0.041 A 
HETATM    4  C5  UNL     1      24.217   4.205  49.375  1.00  0.00     0.094 A 
HETATM    5  C6  UNL     1      25.616   4.326  49.549  1.00  0.00    -0.003 A 
HETATM    6  C7  UNL     1      26.051   5.556  49.015  1.00  0.00     0.048 A 
HETATM    7  C8  UNL     1      26.792   3.629  50.070  1.00  0.00     0.162 C 
HETATM    8  N1  UNL     1      26.742   3.047  51.393  1.00  0.00    -0.375 N 
HETATM    9  C9  UNL     1      25.701   2.200  51.962  1.00  0.00     0.150 A 
HETATM   10  C10 UNL     1      25.922   1.539  53.090  1.00  0.00     0.162 A 
HETATM   11  N3  UNL     1      24.880   0.749  53.588  1.00  0.00    -0.221 NA
HETATM   12  C15 UNL     1      23.714   0.537  53.142  1.00  0.00     0.246 A 
HETATM   13  N4  UNL     1      23.056   1.056  51.942  1.00  0.00    -0.188 NA
HETATM   14  S1  UNL     1      24.065   2.024  51.158  1.00  0.00     0.096 SA
HETATM   15  O2  UNL     1      23.525   3.037  49.838  1.00  0.00    -0.263 OA
HETATM   16  H9  UNL     1      27.515   3.186  52.125  1.00  0.00     0.160 HD
ENDROOT
BRANCH  10  17
HETATM   17  N2  UNL     1      27.203   1.740  53.636  1.00  0.00    -0.364 N 
HETATM   18  H10 UNL     1      27.804   2.588  53.741  1.00  0.00     0.162 HD
BRANCH  17  19
HETATM   19  C11 UNL     1      27.462   0.361  54.029  1.00  0.00     0.109 A 
HETATM   20  C12 UNL     1      28.173  -0.458  53.088  1.00  0.00    -0.006 A 
HETATM   21  C13 UNL     1      29.226  -0.577  53.831  1.00  0.00    -0.026 A 
HETATM   22  C14 UNL     1      28.668   0.236  54.902  1.00  0.00     0.056 A 
ENDBRANCH  17  19
ENDBRANCH  10  17
BRANCH   1  23
HETATM   23  O1  UNL     1      25.819   7.700  47.918  1.00  0.00    -0.356 OA
HETATM   24  C1  UNL     1      27.166   7.758  47.428  1.00  0.00     0.210 C 
ENDBRANCH   1  23
TORSDOF 3
ENDMDL
MODEL 3
REMARK VINA RESULT:      -7.5      4.107      5.617
REMARK  3 active torsions:
REMARK  status: ('A' for Active; 'I' for Inactive)
REMARK    1  A    between atoms: O1_2  and  C2_3 
REMARK    2  A    between atoms: C10_12  and  N2_13 
REMARK    3  A    between atoms: N2_13  and  C11_14 
ROOT
HETATM    1  C2  UNL     1      22.089   0.188  52.911  1.00  0.00     0.069 A 
HETATM    2  C3  UNL     1      20.841   0.423  52.377  1.00  0.00     0.039 A 
HETATM    3  C4  UNL     1      20.465   1.673  51.938  1.00  0.00     0.041 A 
HETATM    4  C5  UNL     1      21.396   2.682  52.056  1.00  0.00     0.094 A 
HETATM    5  C6  UNL     1      22.706   2.583  52.581  1.00  0.00    -0.003 A 
HETATM    6  C7  UNL     1      22.950   1.256  52.988  1.00  0.00     0.048 A 
HETATM    7  C8  UNL     1      23.907   3.364  52.876  1.00  0.00     0.162 C 
HETATM    8  N1  UNL     1      24.449   4.241  51.861  1.00  0.00    -0.375 N 
HETATM    9  C9  UNL     1      23.736   5.213  51.042  1.00  0.00     0.150 A 
HETATM   10  C10 UNL     1      24.409   6.117  50.343  1.00  0.00     0.162 A 
HETATM   11  N3  UNL     1      23.668   7.018  49.572  1.00  0.00    -0.221 NA
HETATM   12  C15 UNL     1      22.417   7.137  49.410  1.00  0.00     0.246 A 
HETATM   13  N4  UNL     1      21.315   6.362  49.982  1.00  0.00    -0.188 NA
HETATM   14  S1  UNL     1      21.908   5.222  50.941  1.00  0.00     0.096 SA
HETATM   15  O2  UNL     1      20.901   3.936  51.568  1.00  0.00    -0.263 OA
HETATM   16  H9  UNL     1      25.490   4.265  51.601  1.00  0.00     0.160 HD
ENDROOT
BRANCH  10  17
HETATM   17  N2  UNL     1      25.807   6.029  50.480  1.00  0.00    -0.364 N 
HETATM   18  H10 UNL     1      26.457   6.238  51.271  1.00  0.00     0.162 HD
BRANCH  17  19
HETATM   19  C11 UNL     1      26.100   5.539  49.139  1.00  0.00     0.109 A 
HETATM   20  C12 UNL     1      27.245   6.103  48.481  1.00  0.00    -0.006 A 
HETATM   21  C13 UNL     1      27.921   4.999  48.487  1.00  0.00    -0.026 A 
HETATM   22  C14 UNL     1      26.863   4.255  49.157  1.00  0.00     0.056 A 
ENDBRANCH  17  19
ENDBRANCH  10  17
BRANCH   1  23
HETATM   23  O1  UNL     1      22.436  -1.082  53.343  1.00  0.00    -0.356 OA
HETATM   24  C1  UNL     1      21.825  -1.665  54.503  1.00  0.00     0.210 C 
ENDBRANCH   1  23
TORSDOF 3
ENDMDL
MODEL 4
REMARK VINA RESULT:      -7.5      3.303      7.013
REMARK  3 active torsions:
REMARK  status: ('A' for Active; 'I' for Inactive)
REMARK    1  A    between atoms: O1_2  and  C2_3 
REMARK    2  A    between atoms: C10_12  and  N2_13 
REMARK    3  A    between atoms: N2_13  and  C11_14 
ROOT
HETATM    1  C2  UNL     1      27.872  -0.820  53.073  1.00  0.00     0.069 A 
HETATM    2  C3  UNL     1      26.946  -1.752  52.660  1.00  0.00     0.039 A 
HETATM    3  C4  UNL     1      25.597  -1.477  52.646  1.00  0.00     0.041 A 
HETATM    4  C5  UNL     1      25.213  -0.222  53.066  1.00  0.00     0.094 A 
HETATM    5  C6  UNL     1      26.050   0.827  53.514  1.00  0.00    -0.003 A 
HETATM    6  C7  UNL     1      27.394   0.404  53.474  1.00  0.00     0.048 A 
HETATM    7  C8  UNL     1      26.033   2.197  54.025  1.00  0.00     0.162 C 
HETATM    8  N1  UNL     1      25.253   3.201  53.333  1.00  0.00    -0.375 N 
HETATM    9  C9  UNL     1      23.872   3.107  52.876  1.00  0.00     0.150 A 
HETATM   10  C10 UNL     1      23.221   4.196  52.492  1.00  0.00     0.162 A 
HETATM   11  N3  UNL     1      21.901   4.038  52.058  1.00  0.00    -0.221 NA
HETATM   12  C15 UNL     1      21.178   3.003  51.961  1.00  0.00     0.246 A 
HETATM   13  N4  UNL     1      21.487   1.606  52.272  1.00  0.00    -0.188 NA
HETATM   14  S1  UNL     1      22.994   1.501  52.809  1.00  0.00     0.096 SA
HETATM   15  O2  UNL     1      23.791  -0.043  53.010  1.00  0.00    -0.263 OA
HETATM   16  H9  UNL     1      25.637   4.171  53.080  1.00  0.00     0.160 HD
ENDROOT
BRANCH  10  17
HETATM   17  N2  UNL     1      23.978   5.380  52.574  1.00  0.00    -0.364 N 
HETATM   18  H10 UNL     1      24.543   5.809  53.341  1.00  0.00     0.162 HD
BRANCH  17  19
HETATM   19  C11 UNL     1      23.736   5.856  51.218  1.00  0.00     0.109 A 
HETATM   20  C12 UNL     1      23.924   7.260  50.982  1.00  0.00    -0.006 A 
HETATM   21  C13 UNL     1      24.946   7.097  50.205  1.00  0.00    -0.026 A 
HETATM   22  C14 UNL     1      24.914   5.646  50.323  1.00  0.00     0.056 A 
ENDBRANCH  17  19
ENDBRANCH  10  17
BRANCH   1  23
HETATM   23  O1  UNL     1      29.223  -1.130  53.074  1.00  0.00    -0.356 OA
HETATM   24  C1  UNL     1      30.164  -0.353  53.829  1.00  0.00     0.210 C 
ENDBRANCH   1  23
TORSDOF 3
ENDMDL
MODEL 5
REMARK VINA RESULT:      -7.4      3.986      7.203
REMARK  3 active torsions:
REMARK  status: ('A' for Active; 'I' for Inactive)
REMARK    1  A    between atoms: O1_2  and  C2_3 
REMARK    2  A    between atoms: C10_12  and  N2_13 
REMARK    3  A    between atoms: N2_13  and  C11_14 
ROOT
HETATM    1  C2  UNL     1      27.582  -0.991  53.112  1.00  0.00     0.069 A 
HETATM    2  C3  UNL     1      26.321  -1.543  53.043  1.00  0.00     0.039 A 
HETATM    3  C4  UNL     1      25.221  -0.793  52.690  1.00  0.00     0.041 A 
HETATM    4  C5  UNL     1      25.437   0.537  52.408  1.00  0.00     0.094 A 
HETATM    5  C6  UNL     1      26.669   1.232  52.439  1.00  0.00    -0.003 A 
HETATM    6  C7  UNL     1      27.699   0.345  52.813  1.00  0.00     0.048 A 
HETATM    7  C8  UNL     1      27.272   2.550  52.239  1.00  0.00     0.162 C 
HETATM    8  N1  UNL     1      26.950   3.302  51.046  1.00  0.00    -0.375 N 
HETATM    9  C9  UNL     1      25.635   3.561  50.475  1.00  0.00     0.150 A 
HETATM   10  C10 UNL     1      25.487   4.478  49.529  1.00  0.00     0.162 A 
HETATM   11  N3  UNL     1      24.200   4.673  49.017  1.00  0.00    -0.221 NA
HETATM   12  C15 UNL     1      23.100   4.115  49.304  1.00  0.00     0.246 A 
HETATM   13  N4  UNL     1      22.803   3.061  50.276  1.00  0.00    -0.188 NA
HETATM   14  S1  UNL     1      24.153   2.638  51.030  1.00  0.00     0.096 SA
HETATM   15  O2  UNL     1      24.227   1.220  52.052  1.00  0.00    -0.263 OA
HETATM   16  H9  UNL     1      27.694   3.774  50.432  1.00  0.00     0.160 HD
ENDROOT
BRANCH  10  17
HETATM   17  N2  UNL     1      26.679   5.130  49.166  1.00  0.00    -0.364 N 
HETATM   18  H10 UNL     1      27.675   4.817  49.127  1.00  0.00     0.162 HD
BRANCH  17  19
HETATM   19  C11 UNL     1      26.098   6.427  48.844  1.00  0.00     0.109 A 
HETATM   20  C12 UNL     1      26.221   7.455  49.839  1.00  0.00    -0.006 A 
HETATM   21  C13 UNL     1      27.008   8.194  49.126  1.00  0.00    -0.026 A 
HETATM   22  C14 UNL     1      27.006   7.265  48.005  1.00  0.00     0.056 A 
ENDBRANCH  17  19
ENDBRANCH  10  17
BRANCH   1  23
HETATM   23  O1  UNL     1      28.668  -1.772  53.470  1.00  0.00    -0.356 OA
HETATM   24  C1  UNL     1      29.934  -1.183  53.799  1.00  0.00     0.210 C 
ENDBRANCH   1  23
TORSDOF 3
ENDMDL
MODEL 6
REMARK VINA RESULT:      -7.3      2.507      7.181
REMARK  3 active torsions:
REMARK  status: ('A' for Active; 'I' for Inactive)
REMARK    1  A    between atoms: O1_2  and  C2_3 
REMARK    2  A    between atoms: C10_12  and  N2_13 
REMARK    3  A    between atoms: N2_13  and  C11_14 
ROOT
HETATM    1  C2  UNL     1      27.525   0.157  53.803  1.00  0.00     0.069 A 
HETATM    2  C3  UNL     1      27.763   1.360  53.176  1.00  0.00     0.039 A 
HETATM    3  C4  UNL     1      26.772   2.030  52.493  1.00  0.00     0.041 A 
HETATM    4  C5  UNL     1      25.527   1.440  52.464  1.00  0.00     0.094 A 
HETATM    5  C6  UNL     1      25.144   0.216  53.059  1.00  0.00    -0.003 A 
HETATM    6  C7  UNL     1      26.252  -0.353  53.719  1.00  0.00     0.048 A 
HETATM    7  C8  UNL     1      24.012  -0.696  53.229  1.00  0.00     0.162 C 
HETATM    8  N1  UNL     1      22.732  -0.165  53.646  1.00  0.00    -0.375 N 
HETATM    9  C9  UNL     1      22.021   0.989  53.110  1.00  0.00     0.150 A 
HETATM   10  C10 UNL     1      20.748   1.192  53.422  1.00  0.00     0.162 A 
HETATM   11  N3  UNL     1      20.125   2.320  52.881  1.00  0.00    -0.221 NA
HETATM   12  C15 UNL     1      20.568   3.224  52.113  1.00  0.00     0.246 A 
HETATM   13  N4  UNL     1      21.900   3.394  51.529  1.00  0.00    -0.188 NA
HETATM   14  S1  UNL     1      22.847   2.192  52.004  1.00  0.00     0.096 SA
HETATM   15  O2  UNL     1      24.575   2.221  51.730  1.00  0.00    -0.263 OA
HETATM   16  H9  UNL     1      22.146  -0.599  54.434  1.00  0.00     0.160 HD
ENDROOT
BRANCH  10  17
HETATM   17  N2  UNL     1      20.202   0.219  54.279  1.00  0.00    -0.364 N 
HETATM   18  H10 UNL     1      20.159   0.133  55.319  1.00  0.00     0.162 HD
BRANCH  17  19
HETATM   19  C11 UNL     1      19.689  -0.677  53.250  1.00  0.00     0.109 A 
HETATM   20  C12 UNL     1      19.193  -1.951  53.689  1.00  0.00    -0.006 A 
HETATM   21  C13 UNL     1      17.964  -1.697  53.372  1.00  0.00    -0.026 A 
HETATM   22  C14 UNL     1      18.277  -0.364  52.877  1.00  0.00     0.056 A 
ENDBRANCH  17  19
ENDBRANCH  10  17
BRANCH   1  23
HETATM   23  O1  UNL     1      28.544  -0.491  54.482  1.00  0.00    -0.356 OA
HETATM   24  C1  UNL     1      29.687  -1.011  53.789  1.00  0.00     0.210 C 
ENDBRANCH   1  23
TORSDOF 3
ENDMDL
MODEL 7
REMARK VINA RESULT:      -7.3      4.849      8.728
REMARK  3 active torsions:
REMARK  status: ('A' for Active; 'I' for Inactive)
REMARK    1  A    between atoms: O1_2  and  C2_3 
REMARK    2  A    between atoms: C10_12  and  N2_13 
REMARK    3  A    between atoms: N2_13  and  C11_14 
ROOT
HETATM    1  C2  UNL     1      28.715   6.443  47.861  1.00  0.00     0.069 A 
HETATM    2  C3  UNL     1      27.868   7.461  47.479  1.00  0.00     0.039 A 
HETATM    3  C4  UNL     1      26.518   7.418  47.746  1.00  0.00     0.041 A 
HETATM    4  C5  UNL     1      26.049   6.308  48.415  1.00  0.00     0.094 A 
HETATM    5  C6  UNL     1      26.800   5.196  48.863  1.00  0.00    -0.003 A 
HETATM    6  C7  UNL     1      28.156   5.377  48.523  1.00  0.00     0.048 A 
HETATM    7  C8  UNL     1      26.683   3.906  49.543  1.00  0.00     0.162 C 
HETATM    8  N1  UNL     1      25.939   3.823  50.781  1.00  0.00    -0.375 N 
HETATM    9  C9  UNL     1      24.614   4.358  51.070  1.00  0.00     0.150 A 
HETATM   10  C10 UNL     1      23.966   3.978  52.162  1.00  0.00     0.162 A 
HETATM   11  N3  UNL     1      22.702   4.533  52.386  1.00  0.00    -0.221 NA
HETATM   12  C15 UNL     1      22.030   5.365  51.709  1.00  0.00     0.246 A 
HETATM   13  N4  UNL     1      22.357   6.038  50.450  1.00  0.00    -0.188 NA
HETATM   14  S1  UNL     1      23.806   5.564  49.955  1.00  0.00     0.096 SA
HETATM   15  O2  UNL     1      24.635   6.369  48.641  1.00  0.00    -0.263 OA
HETATM   16  H9  UNL     1      26.311   3.326  51.657  1.00  0.00     0.160 HD
ENDROOT
BRANCH  10  17
HETATM   17  N2  UNL     1      24.668   3.054  52.958  1.00  0.00    -0.364 N 
HETATM   18  H10 UNL     1      25.335   3.166  53.754  1.00  0.00     0.162 HD
BRANCH  17  19
HETATM   19  C11 UNL     1      24.171   1.839  52.324  1.00  0.00     0.109 A 
HETATM   20  C12 UNL     1      24.976   0.659  52.467  1.00  0.00    -0.006 A 
HETATM   21  C13 UNL     1      24.110   0.032  53.196  1.00  0.00    -0.026 A 
HETATM   22  C14 UNL     1      23.157   1.133  53.163  1.00  0.00     0.056 A 
ENDBRANCH  17  19
ENDBRANCH  10  17
BRANCH   1  23
HETATM   23  O1  UNL     1      30.069   6.517  47.577  1.00  0.00    -0.356 OA
HETATM   24  C1  UNL     1      30.946   5.413  47.840  1.00  0.00     0.210 C 
ENDBRANCH   1  23
TORSDOF 3
ENDMDL
MODEL 8
REMARK VINA RESULT:      -7.2      7.303     10.143
REMARK  3 active torsions:
REMARK  status: ('A' for Active; 'I' for Inactive)
REMARK    1  A    between atoms: O1_2  and  C2_3 
REMARK    2  A    between atoms: C10_12  and  N2_13 
REMARK    3  A    between atoms: N2_13  and  C11_14 
ROOT
HETATM    1  C2  UNL     1      24.837   4.478  50.408  1.00  0.00     0.069 A 
HETATM    2  C3  UNL     1      25.579   3.388  50.007  1.00  0.00     0.039 A 
HETATM    3  C4  UNL     1      26.746   3.531  49.289  1.00  0.00     0.041 A 
HETATM    4  C5  UNL     1      27.139   4.816  48.987  1.00  0.00     0.094 A 
HETATM    5  C6  UNL     1      26.479   6.018  49.331  1.00  0.00    -0.003 A 
HETATM    6  C7  UNL     1      25.309   5.720  50.060  1.00  0.00     0.048 A 
HETATM    7  C8  UNL     1      26.555   7.473  49.195  1.00  0.00     0.162 C 
HETATM    8  N1  UNL     1      27.801   8.147  49.487  1.00  0.00    -0.375 N 
HETATM    9  C9  UNL     1      29.139   7.801  49.026  1.00  0.00     0.150 A 
HETATM   10  C10 UNL     1      30.138   8.661  49.169  1.00  0.00     0.162 A 
HETATM   11  N3  UNL     1      31.399   8.266  48.712  1.00  0.00    -0.221 NA
HETATM   12  C15 UNL     1      31.782   7.193  48.160  1.00  0.00     0.246 A 
HETATM   13  N4  UNL     1      31.024   5.989  47.814  1.00  0.00    -0.188 NA
HETATM   14  S1  UNL     1      29.493   6.182  48.245  1.00  0.00     0.096 SA
HETATM   15  O2  UNL     1      28.363   4.847  48.240  1.00  0.00    -0.263 OA
HETATM   16  H9  UNL     1      27.863   9.023  50.106  1.00  0.00     0.160 HD
ENDROOT
BRANCH  10  17
HETATM   17  N2  UNL     1      29.771   9.873  49.783  1.00  0.00    -0.364 N 
HETATM   18  H10 UNL     1      29.385  10.103  50.726  1.00  0.00     0.162 HD
BRANCH  17  19
HETATM   19  C11 UNL     1      30.101  10.757  48.672  1.00  0.00     0.109 A 
HETATM   20  C12 UNL     1      29.061  11.636  48.214  1.00  0.00    -0.006 A 
HETATM   21  C13 UNL     1      29.664  12.715  48.595  1.00  0.00    -0.026 A 
HETATM   22  C14 UNL     1      30.813  11.992  49.119  1.00  0.00     0.056 A 
ENDBRANCH  17  19
ENDBRANCH  10  17
BRANCH   1  23
HETATM   23  O1  UNL     1      23.668   4.300  51.130  1.00  0.00    -0.356 OA
HETATM   24  C1  UNL     1      23.697   4.016  52.535  1.00  0.00     0.210 C 
ENDBRANCH   1  23
TORSDOF 3
ENDMDL
MODEL 9
REMARK VINA RESULT:      -7.2      3.878      6.948
REMARK  3 active torsions:
REMARK  status: ('A' for Active; 'I' for Inactive)
REMARK    1  A    between atoms: O1_2  and  C2_3 
REMARK    2  A    between atoms: C10_12  and  N2_13 
REMARK    3  A    between atoms: N2_13  and  C11_14 
ROOT
HETATM    1  C2  UNL     1      25.274  -0.515  54.086  1.00  0.00     0.069 A 
HETATM    2  C3  UNL     1      26.483  -0.725  53.460  1.00  0.00     0.039 A 
HETATM    3  C4  UNL     1      26.861   0.001  52.352  1.00  0.00     0.041 A 
HETATM    4  C5  UNL     1      25.973   0.950  51.896  1.00  0.00     0.094 A 
HETATM    5  C6  UNL     1      24.705   1.269  52.437  1.00  0.00    -0.003 A 
HETATM    6  C7  UNL     1      24.455   0.453  53.559  1.00  0.00     0.048 A 
HETATM    7  C8  UNL     1      23.539   2.133  52.250  1.00  0.00     0.162 C 
HETATM    8  N1  UNL     1      23.735   3.550  52.037  1.00  0.00    -0.375 N 
HETATM    9  C9  UNL     1      24.656   4.201  51.113  1.00  0.00     0.150 A 
HETATM   10  C10 UNL     1      24.534   5.495  50.851  1.00  0.00     0.162 A 
HETATM   11  N3  UNL     1      25.453   6.061  49.961  1.00  0.00    -0.221 NA
HETATM   12  C15 UNL     1      26.421   5.544  49.329  1.00  0.00     0.246 A 
HETATM   13  N4  UNL     1      26.912   4.165  49.321  1.00  0.00    -0.188 NA
HETATM   14  S1  UNL     1      26.003   3.271  50.293  1.00  0.00     0.096 SA
HETATM   15  O2  UNL     1      26.466   1.645  50.743  1.00  0.00    -0.263 OA
HETATM   16  H9  UNL     1      23.185   4.305  52.567  1.00  0.00     0.160 HD
ENDROOT
BRANCH  10  17
HETATM   17  N2  UNL     1      23.475   6.124  51.530  1.00  0.00    -0.364 N 
HETATM   18  H10 UNL     1      23.275   6.280  52.544  1.00  0.00     0.162 HD
BRANCH  17  19
HETATM   19  C11 UNL     1      22.702   6.515  50.358  1.00  0.00     0.109 A 
HETATM   20  C12 UNL     1      21.272   6.454  50.477  1.00  0.00    -0.006 A 
HETATM   21  C13 UNL     1      21.107   7.735  50.390  1.00  0.00    -0.026 A 
HETATM   22  C14 UNL     1      22.533   7.996  50.257  1.00  0.00     0.056 A 
ENDBRANCH  17  19
ENDBRANCH  10  17
BRANCH   1  23
HETATM   23  O1  UNL     1      24.925  -1.263  55.199  1.00  0.00    -0.356 OA
HETATM   24  C1  UNL     1      23.558  -1.382  55.616  1.00  0.00     0.210 C 
ENDBRANCH   1  23
TORSDOF 3
ENDMDL
