MODEL 1
REMARK VINA RESULT:      -8.7      0.000      0.000
REMARK  4 active torsions:
REMARK  status: ('A' for Active; 'I' for Inactive)
REMARK    1  A    between atoms: C3_3  and  C4_4 
REMARK    2  A    between atoms: C3_3  and  C11_13 
REMARK    3  A    between atoms: C4_4  and  N1_5 
REMARK    4  A    between atoms: N2_8  and  C7_9 
ROOT
HETATM    1  C11 UNL     1      24.091   3.607  51.301  1.00  0.00     0.092 C 
HETATM    2  N3  UNL     1      23.553   4.566  51.968  1.00  0.00    -0.240 NA
HETATM    3  C12 UNL     1      23.772   5.932  51.686  1.00  0.00     0.227 C 
HETATM    4  N4  UNL     1      23.898   7.052  51.088  1.00  0.00    -0.282 NA
HETATM    5  C13 UNL     1      23.713   7.154  49.678  1.00  0.00     0.165 C 
HETATM    6  C14 UNL     1      24.917   7.642  48.914  1.00  0.00     0.078 C 
HETATM    7  C15 UNL     1      25.262   9.060  49.303  1.00  0.00    -0.017 C 
HETATM    8  C16 UNL     1      26.471   9.612  49.316  1.00  0.00    -0.011 C 
HETATM    9  C17 UNL     1      27.680   8.802  48.915  1.00  0.00     0.146 C 
HETATM   10  N5  UNL     1      27.418   7.450  49.435  1.00  0.00    -0.389 N 
HETATM   11  C18 UNL     1      26.147   6.862  49.181  1.00  0.00     0.022 C 
HETATM   12  C19 UNL     1      26.112   5.560  49.192  1.00  0.00    -0.015 C 
HETATM   13  C20 UNL     1      25.084   4.555  48.993  1.00  0.00     0.042 C 
HETATM   14  C21 UNL     1      24.995   4.023  50.199  1.00  0.00     0.058 C 
HETATM   15  N6  UNL     1      26.385   3.769  50.512  1.00  0.00    -0.384 N 
HETATM   16  C22 UNL     1      27.112   4.455  49.425  1.00  0.00     0.160 C 
HETATM   17  H28 UNL     1      28.150   6.940  49.976  1.00  0.00     0.159 HD
HETATM   18  H30 UNL     1      26.930   3.254  51.270  1.00  0.00     0.160 HD
ENDROOT
BRANCH   1  19
HETATM   19  C3  UNL     1      23.884   2.195  51.570  1.00  0.00    -0.003 C 
HETATM   20  C2  UNL     1      23.055   1.984  50.557  1.00  0.00    -0.020 C 
HETATM   21  C1  UNL     1      22.311   2.483  49.403  1.00  0.00     0.036 C 
BRANCH  19  22
HETATM   22  C4  UNL     1      24.581   1.583  52.704  1.00  0.00     0.313 C 
BRANCH  22  23
HETATM   23  N1  UNL     1      25.827   0.954  52.428  1.00  0.00     0.096 N 
HETATM   24  C5  UNL     1      25.896  -0.455  52.579  1.00  0.00     0.303 C 
HETATM   25  C6  UNL     1      27.354  -0.819  52.901  1.00  0.00     0.302 C 
HETATM   26  N2  UNL     1      27.666  -0.309  54.223  1.00  0.00     0.091 N 
HETATM   27  C9  UNL     1      27.088   0.996  54.453  1.00  0.00     0.302 C 
HETATM   28  C10 UNL     1      26.942   1.629  53.070  1.00  0.00     0.303 C 
BRANCH  26  29
HETATM   29  C7  UNL     1      29.075  -0.261  54.485  1.00  0.00     0.268 C 
HETATM   30  C8  UNL     1      29.815  -0.957  53.367  1.00  0.00     0.037 C 
ENDBRANCH  26  29
ENDBRANCH  22  23
ENDBRANCH  19  22
ENDBRANCH   1  19
TORSDOF 4
ENDMDL
MODEL 2
REMARK VINA RESULT:      -7.9      4.718      5.829
REMARK  4 active torsions:
REMARK  status: ('A' for Active; 'I' for Inactive)
REMARK    1  A    between atoms: C3_3  and  C4_4 
REMARK    2  A    between atoms: C3_3  and  C11_13 
REMARK    3  A    between atoms: C4_4  and  N1_5 
REMARK    4  A    between atoms: N2_8  and  C7_9 
ROOT
HETATM    1  C11 UNL     1      22.005   1.169  52.472  1.00  0.00     0.092 C 
HETATM    2  N3  UNL     1      21.315   2.047  53.108  1.00  0.00    -0.240 NA
HETATM    3  C12 UNL     1      20.199   2.714  52.556  1.00  0.00     0.227 C 
HETATM    4  N4  UNL     1      19.100   2.971  51.962  1.00  0.00    -0.282 NA
HETATM    5  C13 UNL     1      18.317   1.927  51.385  1.00  0.00     0.165 C 
HETATM    6  C14 UNL     1      18.097   2.046  49.899  1.00  0.00     0.078 C 
HETATM    7  C15 UNL     1      17.290   3.280  49.572  1.00  0.00    -0.017 C 
HETATM    8  C16 UNL     1      17.366   4.013  48.466  1.00  0.00    -0.011 C 
HETATM    9  C17 UNL     1      18.337   3.639  47.373  1.00  0.00     0.146 C 
HETATM   10  N5  UNL     1      19.529   3.144  48.080  1.00  0.00    -0.389 N 
HETATM   11  C18 UNL     1      19.350   2.191  49.123  1.00  0.00     0.022 C 
HETATM   12  C19 UNL     1      20.372   1.423  49.372  1.00  0.00    -0.015 C 
HETATM   13  C20 UNL     1      20.650   0.347  50.305  1.00  0.00     0.042 C 
HETATM   14  C21 UNL     1      21.567   0.897  51.080  1.00  0.00     0.058 C 
HETATM   15  N6  UNL     1      22.491   1.438  50.105  1.00  0.00    -0.384 N 
HETATM   16  C22 UNL     1      21.770   1.277  48.826  1.00  0.00     0.160 C 
HETATM   17  H28 UNL     1      20.480   3.486  47.819  1.00  0.00     0.159 HD
HETATM   18  H30 UNL     1      23.462   1.875  50.114  1.00  0.00     0.160 HD
ENDROOT
BRANCH   1  19
HETATM   19  C3  UNL     1      23.157   0.470  53.015  1.00  0.00    -0.003 C 
HETATM   20  C2  UNL     1      22.469  -0.523  53.560  1.00  0.00    -0.020 C 
HETATM   21  C1  UNL     1      21.191  -1.171  53.848  1.00  0.00     0.036 C 
BRANCH  19  22
HETATM   22  C4  UNL     1      24.493   1.028  52.788  1.00  0.00     0.313 C 
BRANCH  22  23
HETATM   23  N1  UNL     1      25.599   0.216  53.162  1.00  0.00     0.096 N 
HETATM   24  C5  UNL     1      26.001   0.244  54.522  1.00  0.00     0.303 C 
HETATM   25  C6  UNL     1      27.497  -0.103  54.574  1.00  0.00     0.302 C 
HETATM   26  N2  UNL     1      28.236   0.989  53.967  1.00  0.00     0.091 N 
HETATM   27  C9  UNL     1      27.566   1.515  52.799  1.00  0.00     0.302 C 
HETATM   28  C10 UNL     1      26.725   0.362  52.255  1.00  0.00     0.303 C 
BRANCH  26  29
HETATM   29  C7  UNL     1      29.582   0.632  53.628  1.00  0.00     0.268 C 
HETATM   30  C8  UNL     1      29.734  -0.869  53.701  1.00  0.00     0.037 C 
ENDBRANCH  26  29
ENDBRANCH  22  23
ENDBRANCH  19  22
ENDBRANCH   1  19
TORSDOF 4
ENDMDL
MODEL 3
REMARK VINA RESULT:      -7.8      3.320      5.974
REMARK  4 active torsions:
REMARK  status: ('A' for Active; 'I' for Inactive)
REMARK    1  A    between atoms: C3_3  and  C4_4 
REMARK    2  A    between atoms: C3_3  and  C11_13 
REMARK    3  A    between atoms: C4_4  and  N1_5 
REMARK    4  A    between atoms: N2_8  and  C7_9 
ROOT
HETATM    1  C11 UNL     1      25.845   8.429  49.627  1.00  0.00     0.092 C 
HETATM    2  N3  UNL     1      26.531   9.369  50.175  1.00  0.00    -0.240 NA
HETATM    3  C12 UNL     1      27.931   9.495  50.038  1.00  0.00     0.227 C 
HETATM    4  N4  UNL     1      29.111   9.557  49.558  1.00  0.00    -0.282 NA
HETATM    5  C13 UNL     1      29.342   9.414  48.158  1.00  0.00     0.165 C 
HETATM    6  C14 UNL     1      30.226   8.255  47.776  1.00  0.00     0.078 C 
HETATM    7  C15 UNL     1      31.623   8.443  48.320  1.00  0.00    -0.017 C 
HETATM    8  C16 UNL     1      32.470   7.488  48.690  1.00  0.00    -0.011 C 
HETATM    9  C17 UNL     1      32.069   6.036  48.588  1.00  0.00     0.146 C 
HETATM   10  N5  UNL     1      30.641   6.012  48.943  1.00  0.00    -0.389 N 
HETATM   11  C18 UNL     1      29.773   6.956  48.323  1.00  0.00     0.022 C 
HETATM   12  C19 UNL     1      28.519   6.612  48.253  1.00  0.00    -0.015 C 
HETATM   13  C20 UNL     1      27.311   7.222  47.730  1.00  0.00     0.042 C 
HETATM   14  C21 UNL     1      26.624   7.445  48.836  1.00  0.00     0.058 C 
HETATM   15  N6  UNL     1      26.711   6.161  49.500  1.00  0.00    -0.384 N 
HETATM   16  C22 UNL     1      27.700   5.423  48.689  1.00  0.00     0.160 C 
HETATM   17  H28 UNL     1      30.279   5.319  49.634  1.00  0.00     0.159 HD
HETATM   18  H30 UNL     1      26.266   5.693  50.347  1.00  0.00     0.160 HD
ENDROOT
BRANCH   1  19
HETATM   19  C3  UNL     1      24.406   8.276  49.753  1.00  0.00    -0.003 C 
HETATM   20  C2  UNL     1      24.098   8.988  48.678  1.00  0.00    -0.020 C 
HETATM   21  C1  UNL     1      24.511   9.796  47.532  1.00  0.00     0.036 C 
BRANCH  19  22
HETATM   22  C4  UNL     1      23.875   7.485  50.866  1.00  0.00     0.313 C 
BRANCH  22  23
HETATM   23  N1  UNL     1      22.999   6.415  50.533  1.00  0.00     0.096 N 
HETATM   24  C5  UNL     1      21.712   6.413  51.129  1.00  0.00     0.303 C 
HETATM   25  C6  UNL     1      21.232   4.955  51.200  1.00  0.00     0.302 C 
HETATM   26  N2  UNL     1      22.063   4.252  52.159  1.00  0.00     0.091 N 
HETATM   27  C9  UNL     1      23.452   4.645  52.066  1.00  0.00     0.302 C 
HETATM   28  C10 UNL     1      23.647   5.118  50.627  1.00  0.00     0.303 C 
BRANCH  26  29
HETATM   29  C7  UNL     1      21.960   2.826  52.049  1.00  0.00     0.268 C 
HETATM   30  C8  UNL     1      23.178   2.188  52.675  1.00  0.00     0.037 C 
ENDBRANCH  26  29
ENDBRANCH  22  23
ENDBRANCH  19  22
ENDBRANCH   1  19
TORSDOF 4
ENDMDL
MODEL 4
REMARK VINA RESULT:      -7.8      2.863      4.419
REMARK  4 active torsions:
REMARK  status: ('A' for Active; 'I' for Inactive)
REMARK    1  A    between atoms: C3_3  and  C4_4 
REMARK    2  A    between atoms: C3_3  and  C11_13 
REMARK    3  A    between atoms: C4_4  and  N1_5 
REMARK    4  A    between atoms: N2_8  and  C7_9 
ROOT
HETATM    1  C11 UNL     1      25.269   6.407  49.673  1.00  0.00     0.092 C 
HETATM    2  N3  UNL     1      25.207   7.422  50.460  1.00  0.00    -0.240 NA
HETATM    3  C12 UNL     1      26.197   8.427  50.515  1.00  0.00     0.227 C 
HETATM    4  N4  UNL     1      27.051   9.321  50.199  1.00  0.00    -0.282 NA
HETATM    5  C13 UNL     1      27.284   9.661  48.834  1.00  0.00     0.165 C 
HETATM    6  C14 UNL     1      28.696   9.436  48.356  1.00  0.00     0.078 C 
HETATM    7  C15 UNL     1      29.661  10.339  49.088  1.00  0.00    -0.017 C 
HETATM    8  C16 UNL     1      30.932  10.081  49.376  1.00  0.00    -0.011 C 
HETATM    9  C17 UNL     1      31.552   8.767  48.965  1.00  0.00     0.146 C 
HETATM   10  N5  UNL     1      30.480   7.773  49.138  1.00  0.00    -0.389 N 
HETATM   11  C18 UNL     1      29.195   8.064  48.600  1.00  0.00     0.022 C 
HETATM   12  C19 UNL     1      28.450   7.033  48.320  1.00  0.00    -0.015 C 
HETATM   13  C20 UNL     1      27.119   6.840  47.776  1.00  0.00     0.042 C 
HETATM   14  C21 UNL     1      26.477   6.335  48.814  1.00  0.00     0.058 C 
HETATM   15  N6  UNL     1      27.383   5.288  49.239  1.00  0.00    -0.384 N 
HETATM   16  C22 UNL     1      28.594   5.536  48.432  1.00  0.00     0.160 C 
HETATM   17  H28 UNL     1      30.664   6.879  49.643  1.00  0.00     0.159 HD
HETATM   18  H30 UNL     1      27.363   4.476  49.928  1.00  0.00     0.160 HD
ENDROOT
BRANCH   1  19
HETATM   19  C3  UNL     1      24.266   5.359  49.596  1.00  0.00    -0.003 C 
HETATM   20  C2  UNL     1      23.637   5.850  48.538  1.00  0.00    -0.020 C 
HETATM   21  C1  UNL     1      23.498   6.880  47.510  1.00  0.00     0.036 C 
BRANCH  19  22
HETATM   22  C4  UNL     1      24.306   4.270  50.576  1.00  0.00     0.313 C 
BRANCH  22  23
HETATM   23  N1  UNL     1      23.100   3.544  50.779  1.00  0.00     0.096 N 
HETATM   24  C5  UNL     1      22.408   3.755  51.999  1.00  0.00     0.303 C 
HETATM   25  C6  UNL     1      21.603   2.482  52.306  1.00  0.00     0.302 C 
HETATM   26  N2  UNL     1      22.541   1.418  52.614  1.00  0.00     0.091 N 
HETATM   27  C9  UNL     1      23.705   1.454  51.757  1.00  0.00     0.302 C 
HETATM   28  C10 UNL     1      23.244   2.132  50.468  1.00  0.00     0.303 C 
BRANCH  26  29
HETATM   29  C7  UNL     1      21.946   0.115  52.558  1.00  0.00     0.268 C 
HETATM   30  C8  UNL     1      22.542  -0.753  53.640  1.00  0.00     0.037 C 
ENDBRANCH  26  29
ENDBRANCH  22  23
ENDBRANCH  19  22
ENDBRANCH   1  19
TORSDOF 4
ENDMDL
MODEL 5
REMARK VINA RESULT:      -7.6      3.403      6.730
REMARK  4 active torsions:
REMARK  status: ('A' for Active; 'I' for Inactive)
REMARK    1  A    between atoms: C3_3  and  C4_4 
REMARK    2  A    between atoms: C3_3  and  C11_13 
REMARK    3  A    between atoms: C4_4  and  N1_5 
REMARK    4  A    between atoms: N2_8  and  C7_9 
ROOT
HETATM    1  C11 UNL     1      23.050   2.137  51.311  1.00  0.00     0.092 C 
HETATM    2  N3  UNL     1      22.877   1.760  50.094  1.00  0.00    -0.240 NA
HETATM    3  C12 UNL     1      21.647   1.278  49.593  1.00  0.00     0.227 C 
HETATM    4  N4  UNL     1      20.410   1.143  49.313  1.00  0.00    -0.282 NA
HETATM    5  C13 UNL     1      19.448   2.093  49.767  1.00  0.00     0.165 C 
HETATM    6  C14 UNL     1      18.373   1.531  50.662  1.00  0.00     0.078 C 
HETATM    7  C15 UNL     1      17.520   0.533  49.914  1.00  0.00    -0.017 C 
HETATM    8  C16 UNL     1      16.905  -0.529  50.424  1.00  0.00    -0.011 C 
HETATM    9  C17 UNL     1      17.022  -0.842  51.896  1.00  0.00     0.146 C 
HETATM   10  N5  UNL     1      18.404  -0.479  52.251  1.00  0.00    -0.389 N 
HETATM   11  C18 UNL     1      18.900   0.787  51.828  1.00  0.00     0.022 C 
HETATM   12  C19 UNL     1      19.872   1.281  52.541  1.00  0.00    -0.015 C 
HETATM   13  C20 UNL     1      20.668   2.493  52.498  1.00  0.00     0.042 C 
HETATM   14  C21 UNL     1      21.862   2.018  52.193  1.00  0.00     0.058 C 
HETATM   15  N6  UNL     1      22.003   0.940  53.150  1.00  0.00    -0.384 N 
HETATM   16  C22 UNL     1      20.658   0.838  53.750  1.00  0.00     0.160 C 
HETATM   17  H28 UNL     1      19.000  -1.138  52.798  1.00  0.00     0.159 HD
HETATM   18  H30 UNL     1      22.778   0.284  53.473  1.00  0.00     0.160 HD
ENDROOT
BRANCH   1  19
HETATM   19  C3  UNL     1      24.303   2.636  51.851  1.00  0.00    -0.003 C 
HETATM   20  C2  UNL     1      24.303   3.771  51.167  1.00  0.00    -0.020 C 
HETATM   21  C1  UNL     1      23.678   4.666  50.194  1.00  0.00     0.036 C 
BRANCH  19  22
HETATM   22  C4  UNL     1      25.020   1.823  52.837  1.00  0.00     0.313 C 
BRANCH  22  23
HETATM   23  N1  UNL     1      25.643   0.637  52.360  1.00  0.00     0.096 N 
HETATM   24  C5  UNL     1      25.392  -0.565  53.070  1.00  0.00     0.303 C 
HETATM   25  C6  UNL     1      26.596  -1.495  52.856  1.00  0.00     0.302 C 
HETATM   26  N2  UNL     1      27.739  -0.918  53.538  1.00  0.00     0.091 N 
HETATM   27  C9  UNL     1      27.790   0.520  53.393  1.00  0.00     0.302 C 
HETATM   28  C10 UNL     1      27.058   0.826  52.088  1.00  0.00     0.303 C 
BRANCH  26  29
HETATM   29  C7  UNL     1      28.987  -1.486  53.116  1.00  0.00     0.268 C 
HETATM   30  C8  UNL     1      30.123  -0.650  53.653  1.00  0.00     0.037 C 
ENDBRANCH  26  29
ENDBRANCH  22  23
ENDBRANCH  19  22
ENDBRANCH   1  19
TORSDOF 4
ENDMDL
MODEL 6
REMARK VINA RESULT:      -7.5      1.418      2.717
REMARK  4 active torsions:
REMARK  status: ('A' for Active; 'I' for Inactive)
REMARK    1  A    between atoms: C3_3  and  C4_4 
REMARK    2  A    between atoms: C3_3  and  C11_13 
REMARK    3  A    between atoms: C4_4  and  N1_5 
REMARK    4  A    between atoms: N2_8  and  C7_9 
ROOT
HETATM    1  C11 UNL     1      24.138   3.416  50.848  1.00  0.00     0.092 C 
HETATM    2  N3  UNL     1      24.889   3.512  49.809  1.00  0.00    -0.240 NA
HETATM    3  C12 UNL     1      25.095   4.718  49.104  1.00  0.00     0.227 C 
HETATM    4  N4  UNL     1      25.338   5.935  48.809  1.00  0.00    -0.282 NA
HETATM    5  C13 UNL     1      25.632   6.892  49.825  1.00  0.00     0.165 C 
HETATM    6  C14 UNL     1      24.672   8.051  49.904  1.00  0.00     0.078 C 
HETATM    7  C15 UNL     1      24.731   8.883  48.644  1.00  0.00    -0.017 C 
HETATM    8  C16 UNL     1      23.736   9.575  48.098  1.00  0.00    -0.011 C 
HETATM    9  C17 UNL     1      22.371   9.580  48.743  1.00  0.00     0.146 C 
HETATM   10  N5  UNL     1      22.196   8.216  49.267  1.00  0.00    -0.389 N 
HETATM   11  C18 UNL     1      23.254   7.641  50.026  1.00  0.00     0.022 C 
HETATM   12  C19 UNL     1      22.908   6.707  50.865  1.00  0.00    -0.015 C 
HETATM   13  C20 UNL     1      23.609   5.864  51.816  1.00  0.00     0.042 C 
HETATM   14  C21 UNL     1      23.465   4.670  51.270  1.00  0.00     0.058 C 
HETATM   15  N6  UNL     1      22.044   4.642  50.994  1.00  0.00    -0.384 N 
HETATM   16  C22 UNL     1      21.617   6.032  51.256  1.00  0.00     0.160 C 
HETATM   17  H28 UNL     1      21.314   7.688  49.083  1.00  0.00     0.159 HD
HETATM   18  H30 UNL     1      21.327   3.919  50.679  1.00  0.00     0.160 HD
ENDROOT
BRANCH   1  19
HETATM   19  C3  UNL     1      23.908   2.189  51.591  1.00  0.00    -0.003 C 
HETATM   20  C2  UNL     1      23.060   1.660  50.720  1.00  0.00    -0.020 C 
HETATM   21  C1  UNL     1      22.308   1.746  49.469  1.00  0.00     0.036 C 
BRANCH  19  22
HETATM   22  C4  UNL     1      24.610   1.991  52.862  1.00  0.00     0.313 C 
BRANCH  22  23
HETATM   23  N1  UNL     1      25.582   0.953  52.903  1.00  0.00     0.096 N 
HETATM   24  C5  UNL     1      25.840   0.348  54.160  1.00  0.00     0.303 C 
HETATM   25  C6  UNL     1      27.279  -0.190  54.133  1.00  0.00     0.302 C 
HETATM   26  N2  UNL     1      28.185   0.943  54.096  1.00  0.00     0.091 N 
HETATM   27  C9  UNL     1      27.699   2.001  53.238  1.00  0.00     0.302 C 
HETATM   28  C10 UNL     1      26.806   1.313  52.207  1.00  0.00     0.303 C 
BRANCH  26  29
HETATM   29  C7  UNL     1      29.516   0.582  53.705  1.00  0.00     0.268 C 
HETATM   30  C8  UNL     1      29.617  -0.921  53.608  1.00  0.00     0.037 C 
ENDBRANCH  26  29
ENDBRANCH  22  23
ENDBRANCH  19  22
ENDBRANCH   1  19
TORSDOF 4
ENDMDL
MODEL 7
REMARK VINA RESULT:      -7.3      1.722      7.015
REMARK  4 active torsions:
REMARK  status: ('A' for Active; 'I' for Inactive)
REMARK    1  A    between atoms: C3_3  and  C4_4 
REMARK    2  A    between atoms: C3_3  and  C11_13 
REMARK    3  A    between atoms: C4_4  and  N1_5 
REMARK    4  A    between atoms: N2_8  and  C7_9 
ROOT
HETATM    1  C11 UNL     1      22.755   3.596  49.799  1.00  0.00     0.092 C 
HETATM    2  N3  UNL     1      22.008   2.574  50.025  1.00  0.00    -0.240 NA
HETATM    3  C12 UNL     1      22.396   1.490  50.842  1.00  0.00     0.227 C 
HETATM    4  N4  UNL     1      22.840   0.786  51.808  1.00  0.00    -0.282 NA
HETATM    5  C13 UNL     1      23.351   1.400  52.990  1.00  0.00     0.165 C 
HETATM    6  C14 UNL     1      24.794   1.090  53.294  1.00  0.00     0.078 C 
HETATM    7  C15 UNL     1      24.977  -0.382  53.585  1.00  0.00    -0.017 C 
HETATM    8  C16 UNL     1      26.059  -1.114  53.342  1.00  0.00    -0.011 C 
HETATM    9  C17 UNL     1      27.275  -0.485  52.707  1.00  0.00     0.146 C 
HETATM   10  N5  UNL     1      26.738   0.484  51.738  1.00  0.00    -0.389 N 
HETATM   11  C18 UNL     1      25.714   1.374  52.169  1.00  0.00     0.022 C 
HETATM   12  C19 UNL     1      25.619   2.492  51.507  1.00  0.00    -0.015 C 
HETATM   13  C20 UNL     1      24.764   3.663  51.578  1.00  0.00     0.042 C 
HETATM   14  C21 UNL     1      24.090   3.569  50.446  1.00  0.00     0.058 C 
HETATM   15  N6  UNL     1      25.153   3.348  49.488  1.00  0.00    -0.384 N 
HETATM   16  C22 UNL     1      26.338   3.119  50.339  1.00  0.00     0.160 C 
HETATM   17  H28 UNL     1      27.102   0.512  50.761  1.00  0.00     0.159 HD
HETATM   18  H30 UNL     1      25.249   3.318  48.428  1.00  0.00     0.160 HD
ENDROOT
BRANCH   1  19
HETATM   19  C3  UNL     1      22.381   4.724  48.962  1.00  0.00    -0.003 C 
HETATM   20  C2  UNL     1      22.238   4.023  47.846  1.00  0.00    -0.020 C 
HETATM   21  C1  UNL     1      22.293   2.748  47.134  1.00  0.00     0.036 C 
BRANCH  19  22
HETATM   22  C4  UNL     1      22.293   6.055  49.569  1.00  0.00     0.313 C 
BRANCH  22  23
HETATM   23  N1  UNL     1      23.192   7.043  49.080  1.00  0.00     0.096 N 
HETATM   24  C5  UNL     1      24.237   6.611  48.224  1.00  0.00     0.303 C 
HETATM   25  C6  UNL     1      25.400   7.604  48.368  1.00  0.00     0.302 C 
HETATM   26  N2  UNL     1      25.956   7.458  49.701  1.00  0.00     0.091 N 
HETATM   27  C9  UNL     1      24.930   7.261  50.700  1.00  0.00     0.302 C 
HETATM   28  C10 UNL     1      23.675   7.921  50.132  1.00  0.00     0.303 C 
BRANCH  26  29
HETATM   29  C7  UNL     1      26.791   8.559  50.082  1.00  0.00     0.268 C 
HETATM   30  C8  UNL     1      26.912   9.519  48.923  1.00  0.00     0.037 C 
ENDBRANCH  26  29
ENDBRANCH  22  23
ENDBRANCH  19  22
ENDBRANCH   1  19
TORSDOF 4
ENDMDL
MODEL 8
REMARK VINA RESULT:      -7.2      3.636      7.404
REMARK  4 active torsions:
REMARK  status: ('A' for Active; 'I' for Inactive)
REMARK    1  A    between atoms: C3_3  and  C4_4 
REMARK    2  A    between atoms: C3_3  and  C11_13 
REMARK    3  A    between atoms: C4_4  and  N1_5 
REMARK    4  A    between atoms: N2_8  and  C7_9 
ROOT
HETATM    1  C11 UNL     1      28.233   8.800  48.887  1.00  0.00     0.092 C 
HETATM    2  N3  UNL     1      29.104   9.578  49.425  1.00  0.00    -0.240 NA
HETATM    3  C12 UNL     1      30.497   9.371  49.333  1.00  0.00     0.227 C 
HETATM    4  N4  UNL     1      31.672   9.140  48.893  1.00  0.00    -0.282 NA
HETATM    5  C13 UNL     1      31.900   8.888  47.507  1.00  0.00     0.165 C 
HETATM    6  C14 UNL     1      32.501   7.541  47.197  1.00  0.00     0.078 C 
HETATM    7  C15 UNL     1      33.889   7.425  47.783  1.00  0.00    -0.017 C 
HETATM    8  C16 UNL     1      34.481   6.317  48.216  1.00  0.00    -0.011 C 
HETATM    9  C17 UNL     1      33.757   4.993  48.151  1.00  0.00     0.146 C 
HETATM   10  N5  UNL     1      32.354   5.315  48.457  1.00  0.00    -0.389 N 
HETATM   11  C18 UNL     1      31.745   6.406  47.774  1.00  0.00     0.022 C 
HETATM   12  C19 UNL     1      30.448   6.359  47.672  1.00  0.00    -0.015 C 
HETATM   13  C20 UNL     1      29.428   7.208  47.085  1.00  0.00     0.042 C 
HETATM   14  C21 UNL     1      28.783   7.630  48.158  1.00  0.00     0.058 C 
HETATM   15  N6  UNL     1      28.552   6.390  48.869  1.00  0.00    -0.384 N 
HETATM   16  C22 UNL     1      29.364   5.410  48.120  1.00  0.00     0.160 C 
HETATM   17  H28 UNL     1      31.823   4.753  49.158  1.00  0.00     0.159 HD
HETATM   18  H30 UNL     1      27.989   6.073  49.716  1.00  0.00     0.160 HD
ENDROOT
BRANCH   1  19
HETATM   19  C3  UNL     1      26.795   8.988  48.968  1.00  0.00    -0.003 C 
HETATM   20  C2  UNL     1      26.685   9.682  47.843  1.00  0.00    -0.020 C 
HETATM   21  C1  UNL     1      27.299  10.299  46.669  1.00  0.00     0.036 C 
BRANCH  19  22
HETATM   22  C4  UNL     1      26.070   8.412  50.103  1.00  0.00     0.313 C 
BRANCH  22  23
HETATM   23  N1  UNL     1      24.805   7.823  49.825  1.00  0.00     0.096 N 
HETATM   24  C5  UNL     1      23.891   7.697  50.902  1.00  0.00     0.303 C 
HETATM   25  C6  UNL     1      22.964   6.511  50.594  1.00  0.00     0.302 C 
HETATM   26  N2  UNL     1      23.752   5.294  50.659  1.00  0.00     0.091 N 
HETATM   27  C9  UNL     1      25.068   5.466  50.084  1.00  0.00     0.302 C 
HETATM   28  C10 UNL     1      24.924   6.592  49.062  1.00  0.00     0.303 C 
BRANCH  26  29
HETATM   29  C7  UNL     1      23.102   4.174  50.042  1.00  0.00     0.268 C 
HETATM   30  C8  UNL     1      24.062   3.009  49.987  1.00  0.00     0.037 C 
ENDBRANCH  26  29
ENDBRANCH  22  23
ENDBRANCH  19  22
ENDBRANCH   1  19
TORSDOF 4
ENDMDL
MODEL 9
REMARK VINA RESULT:      -7.1      2.793      7.358
REMARK  4 active torsions:
REMARK  status: ('A' for Active; 'I' for Inactive)
REMARK    1  A    between atoms: C3_3  and  C4_4 
REMARK    2  A    between atoms: C3_3  and  C11_13 
REMARK    3  A    between atoms: C4_4  and  N1_5 
REMARK    4  A    between atoms: N2_8  and  C7_9 
ROOT
HETATM    1  C11 UNL     1      24.117   5.937  49.960  1.00  0.00     0.092 C 
HETATM    2  N3  UNL     1      24.025   6.094  51.232  1.00  0.00    -0.240 NA
HETATM    3  C12 UNL     1      23.712   5.048  52.127  1.00  0.00     0.227 C 
HETATM    4  N4  UNL     1      23.690   3.929  52.740  1.00  0.00    -0.282 NA
HETATM    5  C13 UNL     1      24.553   2.862  52.350  1.00  0.00     0.165 C 
HETATM    6  C14 UNL     1      23.849   1.604  51.911  1.00  0.00     0.078 C 
HETATM    7  C15 UNL     1      23.073   0.996  53.056  1.00  0.00    -0.017 C 
HETATM    8  C16 UNL     1      21.950   0.291  52.972  1.00  0.00    -0.011 C 
HETATM    9  C17 UNL     1      21.317   0.027  51.627  1.00  0.00     0.146 C 
HETATM   10  N5  UNL     1      21.539   1.261  50.857  1.00  0.00    -0.389 N 
HETATM   11  C18 UNL     1      22.847   1.825  50.844  1.00  0.00     0.022 C 
HETATM   12  C19 UNL     1      23.134   2.568  49.814  1.00  0.00    -0.015 C 
HETATM   13  C20 UNL     1      24.295   3.322  49.378  1.00  0.00     0.042 C 
HETATM   14  C21 UNL     1      23.853   4.564  49.463  1.00  0.00     0.058 C 
HETATM   15  N6  UNL     1      22.586   4.473  48.767  1.00  0.00    -0.384 N 
HETATM   16  C22 UNL     1      22.406   3.020  48.573  1.00  0.00     0.160 C 
HETATM   17  H28 UNL     1      20.754   1.708  50.335  1.00  0.00     0.159 HD
HETATM   18  H30 UNL     1      21.846   5.151  48.409  1.00  0.00     0.160 HD
ENDROOT
BRANCH   1  19
HETATM   19  C3  UNL     1      24.437   6.996  49.018  1.00  0.00    -0.003 C 
HETATM   20  C2  UNL     1      23.363   7.732  49.271  1.00  0.00    -0.020 C 
HETATM   21  C1  UNL     1      22.110   7.938  49.993  1.00  0.00     0.036 C 
BRANCH  19  22
HETATM   22  C4  UNL     1      25.672   6.896  48.236  1.00  0.00     0.313 C 
BRANCH  22  23
HETATM   23  N1  UNL     1      26.880   7.256  48.896  1.00  0.00     0.096 N 
HETATM   24  C5  UNL     1      27.071   8.627  49.208  1.00  0.00     0.303 C 
HETATM   25  C6  UNL     1      28.584   8.887  49.261  1.00  0.00     0.302 C 
HETATM   26  N2  UNL     1      29.113   8.757  47.916  1.00  0.00     0.091 N 
HETATM   27  C9  UNL     1      28.504   7.661  47.196  1.00  0.00     0.302 C 
HETATM   28  C10 UNL     1      28.051   6.670  48.266  1.00  0.00     0.303 C 
BRANCH  26  29
HETATM   29  C7  UNL     1      30.539   8.616  47.887  1.00  0.00     0.268 C 
HETATM   30  C8  UNL     1      31.077   8.694  49.296  1.00  0.00     0.037 C 
ENDBRANCH  26  29
ENDBRANCH  22  23
ENDBRANCH  19  22
ENDBRANCH   1  19
TORSDOF 4
ENDMDL
