MODEL 1
REMARK VINA RESULT:      -8.4      0.000      0.000
REMARK  6 active torsions:
REMARK  status: ('A' for Active; 'I' for Inactive)
REMARK    1  A    between atoms: C2_2  and  C3_3 
REMARK    2  A    between atoms: C3_3  and  C4_4 
REMARK    3  A    between atoms: C4_4  and  C5_5 
REMARK    4  A    between atoms: C5_5  and  N1_6 
REMARK    5  A    between atoms: C5_5  and  C7_8 
REMARK    6  A    between atoms: C20_24  and  N4_25 
ROOT
HETATM    1  C7  UNL     1      24.736   1.929  52.893  1.00  0.00     0.264 C 
HETATM    2  O1  UNL     1      24.616   3.171  52.287  1.00  0.00    -0.340 OA
HETATM    3  C8  UNL     1      23.424   3.838  52.261  1.00  0.00     0.219 C 
HETATM    4  C9  UNL     1      23.720   5.298  52.003  1.00  0.00     0.063 C 
HETATM    5  N2  UNL     1      22.481   3.438  51.164  1.00  0.00    -0.357 N 
HETATM    6  C10 UNL     1      22.808   2.201  50.526  1.00  0.00     0.116 A 
HETATM    7  C11 UNL     1      22.790   1.376  51.652  1.00  0.00     0.060 A 
HETATM    8  C12 UNL     1      21.606   0.548  51.803  1.00  0.00     0.001 A 
HETATM    9  C13 UNL     1      21.760  -0.221  52.891  1.00  0.00     0.003 A 
HETATM   10  C14 UNL     1      20.878  -1.124  53.353  1.00  0.00     0.014 A 
HETATM   11  C15 UNL     1      21.332  -1.764  54.514  1.00  0.00     0.001 A 
HETATM   12  C16 UNL     1      22.575  -1.461  55.091  1.00  0.00     0.002 A 
HETATM   13  C17 UNL     1      23.430  -0.518  54.555  1.00  0.00     0.030 A 
HETATM   14  C18 UNL     1      22.996   0.110  53.426  1.00  0.00     0.048 A 
HETATM   15  N3  UNL     1      23.600   1.062  52.697  1.00  0.00    -0.317 N 
HETATM   16  C19 UNL     1      20.613   0.835  50.887  1.00  0.00     0.025 C 
HETATM   17  C20 UNL     1      20.576   2.120  50.051  1.00  0.00     0.268 C 
HETATM   18  C21 UNL     1      21.549   3.150  50.159  1.00  0.00     0.153 A 
HETATM   19  C22 UNL     1      22.510   3.316  48.928  1.00  0.00     0.000 C 
HETATM   20  C23 UNL     1      22.880   2.019  49.023  1.00  0.00     0.011 C 
ENDROOT
BRANCH   1  21
HETATM   21  C5  UNL     1      26.093   1.389  52.765  1.00  0.00     0.268 C 
BRANCH  21  22
HETATM   22  C4  UNL     1      26.444   0.482  51.649  1.00  0.00     0.040 C 
BRANCH  22  23
HETATM   23  C3  UNL     1      26.707  -0.913  52.077  1.00  0.00     0.002 C 
BRANCH  23  24
HETATM   24  C2  UNL     1      27.372  -0.940  53.482  1.00  0.00    -0.004 C 
HETATM   25  C1  UNL     1      28.836  -1.209  53.322  1.00  0.00     0.005 C 
ENDBRANCH  23  24
ENDBRANCH  22  23
ENDBRANCH  21  22
BRANCH  21  26
HETATM   26  N1  UNL     1      26.961   2.603  52.587  1.00  0.00     0.088 N 
HETATM   27  C6  UNL     1      28.164   2.491  53.334  1.00  0.00     0.307 C 
HETATM   28  H11 UNL     1      26.432   3.440  52.961  1.00  0.00     0.316 HD
ENDBRANCH  21  26
ENDBRANCH   1  21
BRANCH  17  29
HETATM   29  N4  UNL     1      20.510   1.664  48.665  1.00  0.00     0.088 N 
HETATM   30  H26 UNL     1      19.557   1.228  48.548  1.00  0.00     0.313 HD
HETATM   31  H27 UNL     1      21.182   0.879  48.496  1.00  0.00     0.313 HD
ENDBRANCH  17  29
TORSDOF 6
ENDMDL
MODEL 2
REMARK VINA RESULT:      -8.1      1.260      2.144
REMARK  6 active torsions:
REMARK  status: ('A' for Active; 'I' for Inactive)
REMARK    1  A    between atoms: C2_2  and  C3_3 
REMARK    2  A    between atoms: C3_3  and  C4_4 
REMARK    3  A    between atoms: C4_4  and  C5_5 
REMARK    4  A    between atoms: C5_5  and  N1_6 
REMARK    5  A    between atoms: C5_5  and  C7_8 
REMARK    6  A    between atoms: C20_24  and  N4_25 
ROOT
HETATM    1  C7  UNL     1      24.504   2.238  52.761  1.00  0.00     0.264 C 
HETATM    2  O1  UNL     1      24.270   3.469  52.165  1.00  0.00    -0.340 OA
HETATM    3  C8  UNL     1      23.029   4.039  52.173  1.00  0.00     0.219 C 
HETATM    4  C9  UNL     1      23.203   5.519  51.916  1.00  0.00     0.063 C 
HETATM    5  N2  UNL     1      22.093   3.570  51.099  1.00  0.00    -0.357 N 
HETATM    6  C10 UNL     1      22.499   2.365  50.445  1.00  0.00     0.116 A 
HETATM    7  C11 UNL     1      22.576   1.537  51.567  1.00  0.00     0.060 A 
HETATM    8  C12 UNL     1      21.465   0.618  51.743  1.00  0.00     0.001 A 
HETATM    9  C13 UNL     1      21.707  -0.140  52.823  1.00  0.00     0.003 A 
HETATM   10  C14 UNL     1      20.911  -1.111  53.303  1.00  0.00     0.014 A 
HETATM   11  C15 UNL     1      21.444  -1.717  54.448  1.00  0.00     0.001 A 
HETATM   12  C16 UNL     1      22.674  -1.320  54.995  1.00  0.00     0.002 A 
HETATM   13  C17 UNL     1      23.438  -0.310  54.442  1.00  0.00     0.030 A 
HETATM   14  C18 UNL     1      22.927   0.285  53.328  1.00  0.00     0.048 A 
HETATM   15  N3  UNL     1      23.435   1.284  52.589  1.00  0.00    -0.317 N 
HETATM   16  C19 UNL     1      20.429   0.829  50.855  1.00  0.00     0.025 C 
HETATM   17  C20 UNL     1      20.270   2.110  50.027  1.00  0.00     0.268 C 
HETATM   18  C21 UNL     1      21.161   3.213  50.116  1.00  0.00     0.153 A 
HETATM   19  C22 UNL     1      22.073   3.459  48.861  1.00  0.00     0.000 C 
HETATM   20  C23 UNL     1      22.547   2.194  48.940  1.00  0.00     0.011 C 
ENDROOT
BRANCH   1  21
HETATM   21  C5  UNL     1      25.896   1.807  52.595  1.00  0.00     0.268 C 
BRANCH  21  22
HETATM   22  C4  UNL     1      26.811   2.537  51.690  1.00  0.00     0.040 C 
BRANCH  22  23
HETATM   23  C3  UNL     1      26.418   2.464  50.262  1.00  0.00     0.002 C 
BRANCH  23  24
HETATM   24  C2  UNL     1      26.828   3.763  49.513  1.00  0.00    -0.004 C 
HETATM   25  C1  UNL     1      25.600   4.580  49.252  1.00  0.00     0.005 C 
ENDBRANCH  23  24
ENDBRANCH  22  23
ENDBRANCH  21  22
BRANCH  21  26
HETATM   26  N1  UNL     1      26.491   1.944  53.969  1.00  0.00     0.088 N 
HETATM   27  C6  UNL     1      27.028   0.709  54.422  1.00  0.00     0.307 C 
HETATM   28  H11 UNL     1      25.716   2.217  54.635  1.00  0.00     0.316 HD
ENDBRANCH  21  26
ENDBRANCH   1  21
BRANCH  17  29
HETATM   29  N4  UNL     1      20.203   1.654  48.641  1.00  0.00     0.088 N 
HETATM   30  H26 UNL     1      19.316   1.090  48.562  1.00  0.00     0.313 HD
HETATM   31  H27 UNL     1      20.970   0.972  48.433  1.00  0.00     0.313 HD
ENDBRANCH  17  29
TORSDOF 6
ENDMDL
MODEL 3
REMARK VINA RESULT:      -7.9      1.662      5.362
REMARK  6 active torsions:
REMARK  status: ('A' for Active; 'I' for Inactive)
REMARK    1  A    between atoms: C2_2  and  C3_3 
REMARK    2  A    between atoms: C3_3  and  C4_4 
REMARK    3  A    between atoms: C4_4  and  C5_5 
REMARK    4  A    between atoms: C5_5  and  N1_6 
REMARK    5  A    between atoms: C5_5  and  C7_8 
REMARK    6  A    between atoms: C20_24  and  N4_25 
ROOT
HETATM    1  C7  UNL     1      23.429   2.945  51.802  1.00  0.00     0.264 C 
HETATM    2  O1  UNL     1      24.648   3.164  51.177  1.00  0.00    -0.340 OA
HETATM    3  C8  UNL     1      25.407   2.126  50.717  1.00  0.00     0.219 C 
HETATM    4  C9  UNL     1      26.368   2.682  49.689  1.00  0.00     0.063 C 
HETATM    5  N2  UNL     1      26.281   1.458  51.737  1.00  0.00    -0.357 N 
HETATM    6  C10 UNL     1      25.946   1.765  53.093  1.00  0.00     0.116 A 
HETATM    7  C11 UNL     1      24.617   1.336  53.079  1.00  0.00     0.060 A 
HETATM    8  C12 UNL     1      24.368   0.050  53.708  1.00  0.00     0.001 A 
HETATM    9  C13 UNL     1      23.050  -0.197  53.664  1.00  0.00     0.003 A 
HETATM   10  C14 UNL     1      22.433  -1.288  54.150  1.00  0.00     0.014 A 
HETATM   11  C15 UNL     1      21.047  -1.249  53.945  1.00  0.00     0.001 A 
HETATM   12  C16 UNL     1      20.421  -0.172  53.299  1.00  0.00     0.002 A 
HETATM   13  C17 UNL     1      21.127   0.918  52.825  1.00  0.00     0.030 A 
HETATM   14  C18 UNL     1      22.475   0.888  53.020  1.00  0.00     0.048 A 
HETATM   15  N3  UNL     1      23.405   1.790  52.667  1.00  0.00    -0.317 N 
HETATM   16  C19 UNL     1      25.520  -0.617  54.073  1.00  0.00     0.025 C 
HETATM   17  C20 UNL     1      26.914  -0.252  53.548  1.00  0.00     0.268 C 
HETATM   18  C21 UNL     1      27.148   0.793  52.614  1.00  0.00     0.153 A 
HETATM   19  C22 UNL     1      27.894   2.057  53.173  1.00  0.00     0.000 C 
HETATM   20  C23 UNL     1      26.955   2.203  54.136  1.00  0.00     0.011 C 
ENDROOT
BRANCH   1  21
HETATM   21  C5  UNL     1      22.810   4.198  52.246  1.00  0.00     0.268 C 
BRANCH  21  22
HETATM   22  C4  UNL     1      23.613   5.436  52.367  1.00  0.00     0.040 C 
BRANCH  22  23
HETATM   23  C3  UNL     1      23.459   6.358  51.215  1.00  0.00     0.002 C 
BRANCH  23  24
HETATM   24  C2  UNL     1      24.836   6.940  50.792  1.00  0.00    -0.004 C 
HETATM   25  C1  UNL     1      25.300   6.237  49.553  1.00  0.00     0.005 C 
ENDBRANCH  23  24
ENDBRANCH  22  23
ENDBRANCH  21  22
BRANCH  21  26
HETATM   26  N1  UNL     1      21.772   4.490  51.199  1.00  0.00     0.088 N 
HETATM   27  C6  UNL     1      20.472   4.139  51.652  1.00  0.00     0.307 C 
HETATM   28  H11 UNL     1      21.985   3.893  50.352  1.00  0.00     0.316 HD
ENDBRANCH  21  26
ENDBRANCH   1  21
BRANCH  17  29
HETATM   29  N4  UNL     1      27.716  -0.015  54.746  1.00  0.00     0.088 N 
HETATM   30  H26 UNL     1      27.935   1.017  54.750  1.00  0.00     0.313 HD
HETATM   31  H27 UNL     1      28.649  -0.483  54.672  1.00  0.00     0.313 HD
ENDBRANCH  17  29
TORSDOF 6
ENDMDL
MODEL 4
REMARK VINA RESULT:      -7.9      1.921      5.282
REMARK  6 active torsions:
REMARK  status: ('A' for Active; 'I' for Inactive)
REMARK    1  A    between atoms: C2_2  and  C3_3 
REMARK    2  A    between atoms: C3_3  and  C4_4 
REMARK    3  A    between atoms: C4_4  and  C5_5 
REMARK    4  A    between atoms: C5_5  and  N1_6 
REMARK    5  A    between atoms: C5_5  and  C7_8 
REMARK    6  A    between atoms: C20_24  and  N4_25 
ROOT
HETATM    1  C7  UNL     1      22.671   0.522  52.253  1.00  0.00     0.264 C 
HETATM    2  O1  UNL     1      21.916   1.157  51.278  1.00  0.00    -0.340 OA
HETATM    3  C8  UNL     1      22.428   1.420  50.039  1.00  0.00     0.219 C 
HETATM    4  C9  UNL     1      21.264   1.636  49.098  1.00  0.00     0.063 C 
HETATM    5  N2  UNL     1      23.248   2.671  49.929  1.00  0.00    -0.357 N 
HETATM    6  C10 UNL     1      23.663   3.218  51.183  1.00  0.00     0.116 A 
HETATM    7  C11 UNL     1      24.345   2.105  51.679  1.00  0.00     0.060 A 
HETATM    8  C12 UNL     1      25.794   2.172  51.602  1.00  0.00     0.001 A 
HETATM    9  C13 UNL     1      26.302   1.064  52.161  1.00  0.00     0.003 A 
HETATM   10  C14 UNL     1      27.607   0.767  52.284  1.00  0.00     0.014 A 
HETATM   11  C15 UNL     1      27.813  -0.468  52.913  1.00  0.00     0.001 A 
HETATM   12  C16 UNL     1      26.745  -1.268  53.347  1.00  0.00     0.002 A 
HETATM   13  C17 UNL     1      25.425  -0.893  53.185  1.00  0.00     0.030 A 
HETATM   14  C18 UNL     1      25.216   0.307  52.574  1.00  0.00     0.048 A 
HETATM   15  N3  UNL     1      24.058   0.920  52.279  1.00  0.00    -0.317 N 
HETATM   16  C19 UNL     1      26.257   3.265  50.896  1.00  0.00     0.025 C 
HETATM   17  C20 UNL     1      25.377   4.110  49.967  1.00  0.00     0.268 C 
HETATM   18  C21 UNL     1      24.005   3.832  49.725  1.00  0.00     0.153 A 
HETATM   19  C22 UNL     1      22.981   4.859  50.329  1.00  0.00     0.000 C 
HETATM   20  C23 UNL     1      23.505   4.677  51.563  1.00  0.00     0.011 C 
ENDROOT
BRANCH   1  21
HETATM   21  C5  UNL     1      21.932   0.380  53.511  1.00  0.00     0.268 C 
BRANCH  21  22
HETATM   22  C4  UNL     1      20.495   0.730  53.587  1.00  0.00     0.040 C 
BRANCH  22  23
HETATM   23  C3  UNL     1      19.591  -0.399  53.259  1.00  0.00     0.002 C 
BRANCH  23  24
HETATM   24  C2  UNL     1      18.655  -0.026  52.076  1.00  0.00    -0.004 C 
HETATM   25  C1  UNL     1      17.413  -0.860  52.158  1.00  0.00     0.005 C 
ENDBRANCH  23  24
ENDBRANCH  22  23
ENDBRANCH  21  22
BRANCH  21  26
HETATM   26  N1  UNL     1      22.007  -1.089  53.821  1.00  0.00     0.088 N 
HETATM   27  C6  UNL     1      22.536  -1.313  55.120  1.00  0.00     0.307 C 
HETATM   28  H11 UNL     1      22.670  -1.535  53.128  1.00  0.00     0.316 HD
ENDBRANCH  21  26
ENDBRANCH   1  21
BRANCH  17  29
HETATM   29  N4  UNL     1      25.512   5.477  50.465  1.00  0.00     0.088 N 
HETATM   30  H26 UNL     1      25.674   6.081  49.616  1.00  0.00     0.313 HD
HETATM   31  H27 UNL     1      26.382   5.584  51.036  1.00  0.00     0.313 HD
ENDBRANCH  17  29
TORSDOF 6
ENDMDL
MODEL 5
REMARK VINA RESULT:      -7.6      1.984      4.874
REMARK  6 active torsions:
REMARK  status: ('A' for Active; 'I' for Inactive)
REMARK    1  A    between atoms: C2_2  and  C3_3 
REMARK    2  A    between atoms: C3_3  and  C4_4 
REMARK    3  A    between atoms: C4_4  and  C5_5 
REMARK    4  A    between atoms: C5_5  and  N1_6 
REMARK    5  A    between atoms: C5_5  and  C7_8 
REMARK    6  A    between atoms: C20_24  and  N4_25 
ROOT
HETATM    1  C7  UNL     1      22.430   1.219  51.225  1.00  0.00     0.264 C 
HETATM    2  O1  UNL     1      21.968   1.889  50.101  1.00  0.00    -0.340 OA
HETATM    3  C8  UNL     1      22.755   2.055  48.997  1.00  0.00     0.219 C 
HETATM    4  C9  UNL     1      21.845   2.351  47.826  1.00  0.00     0.063 C 
HETATM    5  N2  UNL     1      23.706   3.215  49.047  1.00  0.00    -0.357 N 
HETATM    6  C10 UNL     1      23.900   3.763  50.352  1.00  0.00     0.116 A 
HETATM    7  C11 UNL     1      24.342   2.607  50.999  1.00  0.00     0.060 A 
HETATM    8  C12 UNL     1      25.774   2.529  51.233  1.00  0.00     0.001 A 
HETATM    9  C13 UNL     1      26.034   1.398  51.905  1.00  0.00     0.003 A 
HETATM   10  C14 UNL     1      27.245   0.978  52.308  1.00  0.00     0.014 A 
HETATM   11  C15 UNL     1      27.184  -0.248  52.985  1.00  0.00     0.001 A 
HETATM   12  C16 UNL     1      25.971  -0.922  53.192  1.00  0.00     0.002 A 
HETATM   13  C17 UNL     1      24.762  -0.425  52.746  1.00  0.00     0.030 A 
HETATM   14  C18 UNL     1      24.812   0.766  52.086  1.00  0.00     0.048 A 
HETATM   15  N3  UNL     1      23.814   1.479  51.542  1.00  0.00    -0.317 N 
HETATM   16  C19 UNL     1      26.487   3.544  50.627  1.00  0.00     0.025 C 
HETATM   17  C20 UNL     1      25.916   4.438  49.519  1.00  0.00     0.268 C 
HETATM   18  C21 UNL     1      24.605   4.287  48.993  1.00  0.00     0.153 A 
HETATM   19  C22 UNL     1      23.589   5.431  49.349  1.00  0.00     0.000 C 
HETATM   20  C23 UNL     1      23.818   5.244  50.669  1.00  0.00     0.011 C 
ENDROOT
BRANCH   1  21
HETATM   21  C5  UNL     1      21.430   1.197  52.297  1.00  0.00     0.268 C 
BRANCH  21  22
HETATM   22  C4  UNL     1      21.774   0.677  53.640  1.00  0.00     0.040 C 
BRANCH  22  23
HETATM   23  C3  UNL     1      20.828  -0.350  54.139  1.00  0.00     0.002 C 
BRANCH  23  24
HETATM   24  C2  UNL     1      21.570  -1.684  54.430  1.00  0.00    -0.004 C 
HETATM   25  C1  UNL     1      22.717  -1.410  55.353  1.00  0.00     0.005 C 
ENDBRANCH  23  24
ENDBRANCH  22  23
ENDBRANCH  21  22
BRANCH  21  26
HETATM   26  N1  UNL     1      21.075   2.643  52.503  1.00  0.00     0.088 N 
HETATM   27  C6  UNL     1      19.701   2.879  52.229  1.00  0.00     0.307 C 
HETATM   28  H11 UNL     1      21.638   3.219  51.816  1.00  0.00     0.316 HD
ENDBRANCH  21  26
ENDBRANCH   1  21
BRANCH  17  29
HETATM   29  N4  UNL     1      26.083   5.802  50.014  1.00  0.00     0.088 N 
HETATM   30  H26 UNL     1      25.435   5.893  50.841  1.00  0.00     0.313 HD
HETATM   31  H27 UNL     1      25.726   6.499  49.320  1.00  0.00     0.313 HD
ENDBRANCH  17  29
TORSDOF 6
ENDMDL
MODEL 6
REMARK VINA RESULT:      -7.5      2.892      5.529
REMARK  6 active torsions:
REMARK  status: ('A' for Active; 'I' for Inactive)
REMARK    1  A    between atoms: C2_2  and  C3_3 
REMARK    2  A    between atoms: C3_3  and  C4_4 
REMARK    3  A    between atoms: C4_4  and  C5_5 
REMARK    4  A    between atoms: C5_5  and  N1_6 
REMARK    5  A    between atoms: C5_5  and  C7_8 
REMARK    6  A    between atoms: C20_24  and  N4_25 
ROOT
HETATM    1  C7  UNL     1      24.618   2.527  50.298  1.00  0.00     0.264 C 
HETATM    2  O1  UNL     1      23.309   2.088  50.165  1.00  0.00    -0.340 OA
HETATM    3  C8  UNL     1      22.531   2.476  49.111  1.00  0.00     0.219 C 
HETATM    4  C9  UNL     1      21.401   1.479  48.983  1.00  0.00     0.063 C 
HETATM    5  N2  UNL     1      21.855   3.807  49.259  1.00  0.00    -0.357 N 
HETATM    6  C10 UNL     1      22.383   4.624  50.306  1.00  0.00     0.116 A 
HETATM    7  C11 UNL     1      23.710   4.679  49.877  1.00  0.00     0.060 A 
HETATM    8  C12 UNL     1      24.107   5.917  49.228  1.00  0.00     0.001 A 
HETATM    9  C13 UNL     1      25.411   5.838  48.925  1.00  0.00     0.003 A 
HETATM   10  C14 UNL     1      26.142   6.791  48.321  1.00  0.00     0.014 A 
HETATM   11  C15 UNL     1      27.477   6.404  48.141  1.00  0.00     0.001 A 
HETATM   12  C16 UNL     1      27.949   5.150  48.561  1.00  0.00     0.002 A 
HETATM   13  C17 UNL     1      27.133   4.220  49.177  1.00  0.00     0.030 A 
HETATM   14  C18 UNL     1      25.834   4.589  49.355  1.00  0.00     0.048 A 
HETATM   15  N3  UNL     1      24.824   3.902  49.910  1.00  0.00    -0.317 N 
HETATM   16  C19 UNL     1      23.054   6.779  48.995  1.00  0.00     0.025 C 
HETATM   17  C20 UNL     1      21.582   6.353  49.049  1.00  0.00     0.268 C 
HETATM   18  C21 UNL     1      21.163   5.023  49.320  1.00  0.00     0.153 A 
HETATM   19  C22 UNL     1      20.460   4.796  50.706  1.00  0.00     0.000 C 
HETATM   20  C23 UNL     1      21.529   5.316  51.350  1.00  0.00     0.011 C 
ENDROOT
BRANCH   1  21
HETATM   21  C5  UNL     1      25.244   2.015  51.521  1.00  0.00     0.268 C 
BRANCH  21  22
HETATM   22  C4  UNL     1      26.603   1.428  51.486  1.00  0.00     0.040 C 
BRANCH  22  23
HETATM   23  C3  UNL     1      26.694   0.102  52.142  1.00  0.00     0.002 C 
BRANCH  23  24
HETATM   24  C2  UNL     1      27.456   0.209  53.493  1.00  0.00    -0.004 C 
HETATM   25  C1  UNL     1      26.460   0.217  54.612  1.00  0.00     0.005 C 
ENDBRANCH  23  24
ENDBRANCH  22  23
ENDBRANCH  21  22
BRANCH  21  26
HETATM   26  N1  UNL     1      25.346   3.219  52.416  1.00  0.00     0.088 N 
HETATM   27  C6  UNL     1      24.295   3.240  53.371  1.00  0.00     0.307 C 
HETATM   28  H11 UNL     1      25.246   4.083  51.814  1.00  0.00     0.316 HD
ENDBRANCH  21  26
ENDBRANCH   1  21
BRANCH  17  29
HETATM   29  N4  UNL     1      20.966   7.259  50.016  1.00  0.00     0.088 N 
HETATM   30  H26 UNL     1      21.148   6.838  50.966  1.00  0.00     0.313 HD
HETATM   31  H27 UNL     1      19.923   7.256  49.921  1.00  0.00     0.313 HD
ENDBRANCH  17  29
TORSDOF 6
ENDMDL
MODEL 7
REMARK VINA RESULT:      -7.5      1.712      2.689
REMARK  6 active torsions:
REMARK  status: ('A' for Active; 'I' for Inactive)
REMARK    1  A    between atoms: C2_2  and  C3_3 
REMARK    2  A    between atoms: C3_3  and  C4_4 
REMARK    3  A    between atoms: C4_4  and  C5_5 
REMARK    4  A    between atoms: C5_5  and  N1_6 
REMARK    5  A    between atoms: C5_5  and  C7_8 
REMARK    6  A    between atoms: C20_24  and  N4_25 
ROOT
HETATM    1  C7  UNL     1      22.579   0.948  52.984  1.00  0.00     0.264 C 
HETATM    2  O1  UNL     1      23.199   2.150  52.674  1.00  0.00    -0.340 OA
HETATM    3  C8  UNL     1      22.475   3.270  52.380  1.00  0.00     0.219 C 
HETATM    4  C9  UNL     1      23.378   4.466  52.583  1.00  0.00     0.063 C 
HETATM    5  N2  UNL     1      22.002   3.383  50.961  1.00  0.00    -0.357 N 
HETATM    6  C10 UNL     1      22.072   2.164  50.216  1.00  0.00     0.116 A 
HETATM    7  C11 UNL     1      21.277   1.369  51.044  1.00  0.00     0.060 A 
HETATM    8  C12 UNL     1      19.923   1.134  50.573  1.00  0.00     0.001 A 
HETATM    9  C13 UNL     1      19.308   0.317  51.440  1.00  0.00     0.003 A 
HETATM   10  C14 UNL     1      18.045  -0.134  51.343  1.00  0.00     0.014 A 
HETATM   11  C15 UNL     1      17.696  -0.971  52.411  1.00  0.00     0.001 A 
HETATM   12  C16 UNL     1      18.598  -1.274  53.443  1.00  0.00     0.002 A 
HETATM   13  C17 UNL     1      19.884  -0.770  53.474  1.00  0.00     0.030 A 
HETATM   14  C18 UNL     1      20.231   0.045  52.439  1.00  0.00     0.048 A 
HETATM   15  N3  UNL     1      21.393   0.676  52.207  1.00  0.00    -0.317 N 
HETATM   16  C19 UNL     1      19.592   1.875  49.457  1.00  0.00     0.025 C 
HETATM   17  C20 UNL     1      20.394   3.091  48.977  1.00  0.00     0.268 C 
HETATM   18  C21 UNL     1      21.541   3.586  49.653  1.00  0.00     0.153 A 
HETATM   19  C22 UNL     1      22.912   3.383  48.914  1.00  0.00     0.000 C 
HETATM   20  C23 UNL     1      22.690   2.051  48.837  1.00  0.00     0.011 C 
ENDROOT
BRANCH   1  21
HETATM   21  C5  UNL     1      23.551  -0.122  53.225  1.00  0.00     0.268 C 
BRANCH  21  22
HETATM   22  C4  UNL     1      24.966   0.195  53.525  1.00  0.00     0.040 C 
BRANCH  22  23
HETATM   23  C3  UNL     1      25.863   0.078  52.350  1.00  0.00     0.002 C 
BRANCH  23  24
HETATM   24  C2  UNL     1      27.139  -0.732  52.712  1.00  0.00    -0.004 C 
HETATM   25  C1  UNL     1      26.900  -2.178  52.403  1.00  0.00     0.005 C 
ENDBRANCH  23  24
ENDBRANCH  22  23
ENDBRANCH  21  22
BRANCH  21  26
HETATM   26  N1  UNL     1      23.029  -0.829  54.445  1.00  0.00     0.088 N 
HETATM   27  C6  UNL     1      24.085  -1.180  55.328  1.00  0.00     0.307 C 
HETATM   28  H11 UNL     1      22.567  -1.727  54.129  1.00  0.00     0.316 HD
ENDBRANCH  21  26
ENDBRANCH   1  21
BRANCH  17  29
HETATM   29  N4  UNL     1      20.745   2.786  47.592  1.00  0.00     0.088 N 
HETATM   30  H26 UNL     1      21.795   2.870  47.533  1.00  0.00     0.313 HD
HETATM   31  H27 UNL     1      20.384   3.524  46.943  1.00  0.00     0.313 HD
ENDBRANCH  17  29
TORSDOF 6
ENDMDL
MODEL 8
REMARK VINA RESULT:      -7.2      1.737      2.333
REMARK  6 active torsions:
REMARK  status: ('A' for Active; 'I' for Inactive)
REMARK    1  A    between atoms: C2_2  and  C3_3 
REMARK    2  A    between atoms: C3_3  and  C4_4 
REMARK    3  A    between atoms: C4_4  and  C5_5 
REMARK    4  A    between atoms: C5_5  and  N1_6 
REMARK    5  A    between atoms: C5_5  and  C7_8 
REMARK    6  A    between atoms: C20_24  and  N4_25 
ROOT
HETATM    1  C7  UNL     1      22.922   3.399  52.294  1.00  0.00     0.264 C 
HETATM    2  O1  UNL     1      22.795   4.606  51.623  1.00  0.00    -0.340 OA
HETATM    3  C8  UNL     1      21.569   5.133  51.331  1.00  0.00     0.219 C 
HETATM    4  C9  UNL     1      21.754   6.612  51.075  1.00  0.00     0.063 C 
HETATM    5  N2  UNL     1      20.917   4.606  50.087  1.00  0.00    -0.357 N 
HETATM    6  C10 UNL     1      21.496   3.402  49.581  1.00  0.00     0.116 A 
HETATM    7  C11 UNL     1      21.338   2.603  50.715  1.00  0.00     0.060 A 
HETATM    8  C12 UNL     1      20.243   1.649  50.662  1.00  0.00     0.001 A 
HETATM    9  C13 UNL     1      20.254   0.926  51.791  1.00  0.00     0.003 A 
HETATM   10  C14 UNL     1      19.398  -0.061  52.107  1.00  0.00     0.014 A 
HETATM   11  C15 UNL     1      19.673  -0.621  53.361  1.00  0.00     0.001 A 
HETATM   12  C16 UNL     1      20.733  -0.168  54.161  1.00  0.00     0.002 A 
HETATM   13  C17 UNL     1      21.574   0.855  53.766  1.00  0.00     0.030 A 
HETATM   14  C18 UNL     1      21.313   1.406  52.548  1.00  0.00     0.048 A 
HETATM   15  N3  UNL     1      21.948   2.404  51.913  1.00  0.00    -0.317 N 
HETATM   16  C19 UNL     1      19.433   1.803  49.555  1.00  0.00     0.025 C 
HETATM   17  C20 UNL     1      19.429   3.058  48.674  1.00  0.00     0.268 C 
HETATM   18  C21 UNL     1      20.244   4.194  48.929  1.00  0.00     0.153 A 
HETATM   19  C22 UNL     1      21.412   4.442  47.908  1.00  0.00     0.000 C 
HETATM   20  C23 UNL     1      21.891   3.197  48.132  1.00  0.00     0.011 C 
ENDROOT
BRANCH   1  21
HETATM   21  C5  UNL     1      24.326   3.013  52.463  1.00  0.00     0.268 C 
BRANCH  21  22
HETATM   22  C4  UNL     1      24.766   1.625  52.196  1.00  0.00     0.040 C 
BRANCH  22  23
HETATM   23  C3  UNL     1      25.277   0.922  53.398  1.00  0.00     0.002 C 
BRANCH  23  24
HETATM   24  C2  UNL     1      25.172  -0.619  53.218  1.00  0.00    -0.004 C 
HETATM   25  C1  UNL     1      26.480  -1.137  52.704  1.00  0.00     0.005 C 
ENDBRANCH  23  24
ENDBRANCH  22  23
ENDBRANCH  21  22
BRANCH  21  26
HETATM   26  N1  UNL     1      25.067   3.869  51.474  1.00  0.00     0.088 N 
HETATM   27  C6  UNL     1      25.559   3.094  50.390  1.00  0.00     0.307 C 
HETATM   28  H11 UNL     1      25.903   4.289  51.968  1.00  0.00     0.316 HD
ENDBRANCH  21  26
ENDBRANCH   1  21
BRANCH  17  29
HETATM   29  N4  UNL     1      19.695   2.568  47.323  1.00  0.00     0.088 N 
HETATM   30  H26 UNL     1      20.673   2.174  47.344  1.00  0.00     0.313 HD
HETATM   31  H27 UNL     1      19.743   3.360  46.640  1.00  0.00     0.313 HD
ENDBRANCH  17  29
TORSDOF 6
ENDMDL
MODEL 9
REMARK VINA RESULT:      -7.0      8.905     11.731
REMARK  6 active torsions:
REMARK  status: ('A' for Active; 'I' for Inactive)
REMARK    1  A    between atoms: C2_2  and  C3_3 
REMARK    2  A    between atoms: C3_3  and  C4_4 
REMARK    3  A    between atoms: C4_4  and  C5_5 
REMARK    4  A    between atoms: C5_5  and  N1_6 
REMARK    5  A    between atoms: C5_5  and  C7_8 
REMARK    6  A    between atoms: C20_24  and  N4_25 
ROOT
HETATM    1  C7  UNL     1      31.709   4.835  47.536  1.00  0.00     0.264 C 
HETATM    2  O1  UNL     1      30.567   5.117  48.272  1.00  0.00    -0.340 OA
HETATM    3  C8  UNL     1      29.502   5.764  47.714  1.00  0.00     0.219 C 
HETATM    4  C9  UNL     1      28.290   5.477  48.572  1.00  0.00     0.063 C 
HETATM    5  N2  UNL     1      29.600   7.261  47.675  1.00  0.00    -0.357 N 
HETATM    6  C10 UNL     1      30.915   7.773  47.903  1.00  0.00     0.116 A 
HETATM    7  C11 UNL     1      31.578   7.109  46.868  1.00  0.00     0.060 A 
HETATM    8  C12 UNL     1      31.878   7.916  45.698  1.00  0.00     0.001 A 
HETATM    9  C13 UNL     1      32.557   7.160  44.823  1.00  0.00     0.003 A 
HETATM   10  C14 UNL     1      33.015   7.556  43.624  1.00  0.00     0.014 A 
HETATM   11  C15 UNL     1      33.684   6.529  42.944  1.00  0.00     0.001 A 
HETATM   12  C16 UNL     1      33.833   5.247  43.496  1.00  0.00     0.002 A 
HETATM   13  C17 UNL     1      33.332   4.915  44.740  1.00  0.00     0.030 A 
HETATM   14  C18 UNL     1      32.679   5.908  45.407  1.00  0.00     0.048 A 
HETATM   15  N3  UNL     1      32.091   5.877  46.614  1.00  0.00    -0.317 N 
HETATM   16  C19 UNL     1      31.309   9.173  45.736  1.00  0.00     0.025 C 
HETATM   17  C20 UNL     1      30.179   9.565  46.695  1.00  0.00     0.268 C 
HETATM   18  C21 UNL     1      29.591   8.660  47.620  1.00  0.00     0.153 A 
HETATM   19  C22 UNL     1      29.903   8.932  49.136  1.00  0.00     0.000 C 
HETATM   20  C23 UNL     1      31.232   8.882  48.886  1.00  0.00     0.011 C 
ENDROOT
BRANCH   1  21
HETATM   21  C5  UNL     1      32.733   4.172  48.349  1.00  0.00     0.268 C 
BRANCH  21  22
HETATM   22  C4  UNL     1      33.664   3.194  47.742  1.00  0.00     0.040 C 
BRANCH  22  23
HETATM   23  C3  UNL     1      33.238   1.784  47.914  1.00  0.00     0.002 C 
BRANCH  23  24
HETATM   24  C2  UNL     1      32.341   1.333  46.727  1.00  0.00    -0.004 C 
HETATM   25  C1  UNL     1      32.024  -0.123  46.883  1.00  0.00     0.005 C 
ENDBRANCH  23  24
ENDBRANCH  22  23
ENDBRANCH  21  22
BRANCH  21  26
HETATM   26  N1  UNL     1      33.598   5.297  48.845  1.00  0.00     0.088 N 
HETATM   27  C6  UNL     1      34.965   5.074  48.528  1.00  0.00     0.307 C 
HETATM   28  H11 UNL     1      33.518   5.330  49.899  1.00  0.00     0.316 HD
ENDBRANCH  21  26
ENDBRANCH   1  21
BRANCH  17  29
HETATM   29  N4  UNL     1      30.686  10.730  47.416  1.00  0.00     0.088 N 
HETATM   30  H26 UNL     1      31.671  10.880  47.070  1.00  0.00     0.313 HD
HETATM   31  H27 UNL     1      30.793  10.522  48.437  1.00  0.00     0.313 HD
ENDBRANCH  17  29
TORSDOF 6
ENDMDL
