MODEL 1
REMARK VINA RESULT:      -9.1      0.000      0.000
REMARK  7 active torsions:
REMARK  status: ('A' for Active; 'I' for Inactive)
REMARK    1  A    between atoms: O1_1  and  C1_2 
REMARK    2  A    between atoms: C6_7  and  C7_8 
REMARK    3  A    between atoms: C7_8  and  N1_9 
REMARK    4  A    between atoms: N1_9  and  C8_10 
REMARK    5  A    between atoms: C14_18  and  C15_19 
REMARK    6  A    between atoms: C15_19  and  N4_20 
REMARK    7  A    between atoms: N4_20  and  C16_21 
ROOT
HETATM    1  C8  UNL     1      22.904  -0.645  53.839  1.00  0.00     0.044 A 
HETATM    2  C9  UNL     1      22.757  -1.246  55.110  1.00  0.00     0.140 A 
HETATM    3  C10 UNL     1      21.499  -1.205  54.543  1.00  0.00    -0.005 A 
HETATM    4  C11 UNL     1      20.478  -1.161  54.062  1.00  0.00    -0.128 C 
HETATM    5  C12 UNL     1      19.293  -1.095  53.478  1.00  0.00     0.235 C 
HETATM    6  N2  UNL     1      18.122  -1.021  52.792  1.00  0.00    -0.274 NA
HETATM    7  C13 UNL     1      18.451  -0.171  51.697  1.00  0.00     0.202 C 
HETATM    8  N3  UNL     1      19.869   0.268  51.759  1.00  0.00    -0.353 N 
HETATM    9  C14 UNL     1      21.321   0.296  51.748  1.00  0.00     0.026 C 
HETATM   10  C22 UNL     1      22.330  -0.040  52.513  1.00  0.00     0.028 C 
HETATM   11  H13 UNL     1      19.675   1.311  51.963  1.00  0.00     0.166 HD
ENDROOT
BRANCH   1  12
HETATM   12  N1  UNL     1      24.354  -0.460  53.951  1.00  0.00    -0.407 N 
HETATM   13  H8  UNL     1      24.619  -0.585  54.965  1.00  0.00     0.154 HD
BRANCH  12  14
HETATM   14  C7  UNL     1      25.303  -0.158  52.895  1.00  0.00     0.156 C 
BRANCH  14  15
HETATM   15  C6  UNL     1      26.712  -0.315  53.303  1.00  0.00    -0.008 A 
HETATM   16  C1  UNL     1      27.298   0.580  54.200  1.00  0.00     0.073 A 
HETATM   17  C2  UNL     1      28.616   0.416  54.567  1.00  0.00     0.037 A 
HETATM   18  C3  UNL     1      29.411  -0.603  54.093  1.00  0.00     0.003 A 
HETATM   19  C4  UNL     1      28.859  -1.504  53.205  1.00  0.00     0.001 A 
HETATM   20  C5  UNL     1      27.541  -1.337  52.838  1.00  0.00     0.011 A 
BRANCH  16  21
HETATM   21  O1  UNL     1      26.481   1.604  54.672  1.00  0.00    -0.360 OA
HETATM   22  H1  UNL     1      25.834   1.497  55.424  1.00  0.00     0.217 HD
ENDBRANCH  16  21
ENDBRANCH  14  15
ENDBRANCH  12  14
ENDBRANCH   1  12
BRANCH   9  23
HETATM   23  C15 UNL     1      21.596   0.854  50.436  1.00  0.00     0.176 C 
BRANCH  23  24
HETATM   24  N4  UNL     1      21.849   2.267  50.454  1.00  0.00    -0.384 N 
HETATM   25  H16 UNL     1      21.016   2.852  50.752  1.00  0.00     0.160 HD
BRANCH  24  26
HETATM   26  C16 UNL     1      23.028   2.969  50.133  1.00  0.00     0.029 A 
HETATM   27  C17 UNL     1      23.107   4.031  49.262  1.00  0.00     0.029 A 
HETATM   28  C18 UNL     1      24.273   4.679  48.990  1.00  0.00     0.004 A 
HETATM   29  C19 UNL     1      25.452   4.300  49.579  1.00  0.00     0.024 A 
HETATM   30  C20 UNL     1      25.425   3.224  50.473  1.00  0.00     0.036 A 
HETATM   31 CL1  UNL     1      26.892   2.685  51.264  1.00  0.00    -0.084 Cl
HETATM   32  C21 UNL     1      24.230   2.618  50.703  1.00  0.00     0.052 A 
ENDBRANCH  24  26
ENDBRANCH  23  24
ENDBRANCH   9  23
TORSDOF 7
ENDMDL
MODEL 2
REMARK VINA RESULT:      -9.0      2.213      3.088
REMARK  7 active torsions:
REMARK  status: ('A' for Active; 'I' for Inactive)
REMARK    1  A    between atoms: O1_1  and  C1_2 
REMARK    2  A    between atoms: C6_7  and  C7_8 
REMARK    3  A    between atoms: C7_8  and  N1_9 
REMARK    4  A    between atoms: N1_9  and  C8_10 
REMARK    5  A    between atoms: C14_18  and  C15_19 
REMARK    6  A    between atoms: C15_19  and  N4_20 
REMARK    7  A    between atoms: N4_20  and  C16_21 
ROOT
HETATM    1  C8  UNL     1      23.689   0.836  52.597  1.00  0.00     0.044 A 
HETATM    2  C9  UNL     1      23.199  -0.164  53.469  1.00  0.00     0.140 A 
HETATM    3  C10 UNL     1      22.130   0.652  53.161  1.00  0.00    -0.005 A 
HETATM    4  C11 UNL     1      21.268   1.333  52.897  1.00  0.00    -0.128 C 
HETATM    5  C12 UNL     1      20.276   2.146  52.575  1.00  0.00     0.235 C 
HETATM    6  N2  UNL     1      19.307   3.007  52.164  1.00  0.00    -0.274 NA
HETATM    7  C13 UNL     1      20.054   4.045  51.536  1.00  0.00     0.202 C 
HETATM    8  N3  UNL     1      21.513   3.772  51.592  1.00  0.00    -0.353 N 
HETATM    9  C14 UNL     1      22.833   3.198  51.395  1.00  0.00     0.026 C 
HETATM   10  C22 UNL     1      23.536   2.162  51.779  1.00  0.00     0.028 C 
HETATM   11  H13 UNL     1      21.771   4.575  52.269  1.00  0.00     0.166 HD
ENDROOT
BRANCH   1  12
HETATM   12  N1  UNL     1      25.065   0.328  52.579  1.00  0.00    -0.407 N 
HETATM   13  H8  UNL     1      25.601   0.873  51.851  1.00  0.00     0.154 HD
BRANCH  12  14
HETATM   14  C7  UNL     1      25.640  -0.728  53.390  1.00  0.00     0.156 C 
BRANCH  14  15
HETATM   15  C6  UNL     1      27.107  -0.639  53.524  1.00  0.00    -0.008 A 
HETATM   16  C1  UNL     1      27.701   0.466  54.138  1.00  0.00     0.073 A 
HETATM   17  C2  UNL     1      29.073   0.529  54.251  1.00  0.00     0.037 A 
HETATM   18  C3  UNL     1      29.916  -0.454  53.787  1.00  0.00     0.003 A 
HETATM   19  C4  UNL     1      29.358  -1.559  53.175  1.00  0.00     0.001 A 
HETATM   20  C5  UNL     1      27.986  -1.620  53.061  1.00  0.00     0.011 A 
BRANCH  16  21
HETATM   21  O1  UNL     1      26.835   1.451  54.604  1.00  0.00    -0.360 OA
HETATM   22  H1  UNL     1      25.924   1.612  54.231  1.00  0.00     0.217 HD
ENDBRANCH  16  21
ENDBRANCH  14  15
ENDBRANCH  12  14
ENDBRANCH   1  12
BRANCH   9  23
HETATM   23  C15 UNL     1      23.422   4.131  50.451  1.00  0.00     0.176 C 
BRANCH  23  24
HETATM   24  N4  UNL     1      24.767   4.511  50.781  1.00  0.00    -0.384 N 
HETATM   25  H16 UNL     1      25.014   4.382  51.805  1.00  0.00     0.160 HD
BRANCH  24  26
HETATM   26  C16 UNL     1      25.782   5.024  49.950  1.00  0.00     0.029 A 
HETATM   27  C17 UNL     1      26.789   4.283  49.376  1.00  0.00     0.029 A 
HETATM   28  C18 UNL     1      27.745   4.829  48.576  1.00  0.00     0.004 A 
HETATM   29  C19 UNL     1      27.756   6.172  48.294  1.00  0.00     0.024 A 
HETATM   30  C20 UNL     1      26.753   6.969  48.854  1.00  0.00     0.036 A 
HETATM   31 CL1  UNL     1      26.702   8.692  48.538  1.00  0.00    -0.084 Cl
HETATM   32  C21 UNL     1      25.826   6.365  49.646  1.00  0.00     0.052 A 
ENDBRANCH  24  26
ENDBRANCH  23  24
ENDBRANCH   9  23
TORSDOF 7
ENDMDL
MODEL 3
REMARK VINA RESULT:      -9.0      1.543      1.998
REMARK  7 active torsions:
REMARK  status: ('A' for Active; 'I' for Inactive)
REMARK    1  A    between atoms: O1_1  and  C1_2 
REMARK    2  A    between atoms: C6_7  and  C7_8 
REMARK    3  A    between atoms: C7_8  and  N1_9 
REMARK    4  A    between atoms: N1_9  and  C8_10 
REMARK    5  A    between atoms: C14_18  and  C15_19 
REMARK    6  A    between atoms: C15_19  and  N4_20 
REMARK    7  A    between atoms: N4_20  and  C16_21 
ROOT
HETATM    1  C8  UNL     1      23.640  -0.587  53.786  1.00  0.00     0.044 A 
HETATM    2  C9  UNL     1      23.555  -1.296  55.007  1.00  0.00     0.140 A 
HETATM    3  C10 UNL     1      22.261  -1.116  54.562  1.00  0.00    -0.005 A 
HETATM    4  C11 UNL     1      21.209  -0.958  54.179  1.00  0.00    -0.128 C 
HETATM    5  C12 UNL     1      19.988  -0.757  53.712  1.00  0.00     0.235 C 
HETATM    6  N2  UNL     1      18.773  -0.541  53.144  1.00  0.00    -0.274 NA
HETATM    7  C13 UNL     1      19.072   0.386  52.104  1.00  0.00     0.202 C 
HETATM    8  N3  UNL     1      20.519   0.721  52.077  1.00  0.00    -0.353 N 
HETATM    9  C14 UNL     1      21.964   0.653  51.939  1.00  0.00     0.026 C 
HETATM   10  C22 UNL     1      23.004   0.178  52.577  1.00  0.00     0.028 C 
HETATM   11  H13 UNL     1      20.422   1.751  52.390  1.00  0.00     0.166 HD
ENDROOT
BRANCH   1  12
HETATM   12  N1  UNL     1      25.104  -0.511  53.784  1.00  0.00    -0.407 N 
HETATM   13  H8  UNL     1      25.418  -0.273  54.763  1.00  0.00     0.154 HD
BRANCH  12  14
HETATM   14  C7  UNL     1      26.010  -0.715  52.669  1.00  0.00     0.156 C 
BRANCH  14  15
HETATM   15  C6  UNL     1      27.435  -0.607  53.035  1.00  0.00    -0.008 A 
HETATM   16  C1  UNL     1      28.249  -1.742  53.072  1.00  0.00     0.073 A 
HETATM   17  C2  UNL     1      29.577  -1.619  53.418  1.00  0.00     0.037 A 
HETATM   18  C3  UNL     1      30.167  -0.417  53.737  1.00  0.00     0.003 A 
HETATM   19  C4  UNL     1      29.387   0.723  53.709  1.00  0.00     0.001 A 
HETATM   20  C5  UNL     1      28.058   0.598  53.364  1.00  0.00     0.011 A 
BRANCH  16  21
HETATM   21  O1  UNL     1      27.639  -2.949  52.745  1.00  0.00    -0.360 OA
HETATM   22  H1  UNL     1      26.912  -3.040  52.067  1.00  0.00     0.217 HD
ENDBRANCH  16  21
ENDBRANCH  14  15
ENDBRANCH  12  14
ENDBRANCH   1  12
BRANCH   9  23
HETATM   23  C15 UNL     1      22.169   1.314  50.662  1.00  0.00     0.176 C 
BRANCH  23  24
HETATM   24  N4  UNL     1      22.762   2.616  50.778  1.00  0.00    -0.384 N 
HETATM   25  H16 UNL     1      22.105   3.359  51.155  1.00  0.00     0.160 HD
BRANCH  24  26
HETATM   26  C16 UNL     1      24.070   3.035  50.463  1.00  0.00     0.029 A 
HETATM   27  C17 UNL     1      25.223   2.381  50.827  1.00  0.00     0.029 A 
HETATM   28  C18 UNL     1      26.465   2.827  50.493  1.00  0.00     0.004 A 
HETATM   29  C19 UNL     1      26.635   3.976  49.761  1.00  0.00     0.024 A 
HETATM   30  C20 UNL     1      25.492   4.679  49.366  1.00  0.00     0.036 A 
HETATM   31 CL1  UNL     1      25.632   6.152  48.429  1.00  0.00    -0.084 Cl
HETATM   32  C21 UNL     1      24.280   4.182  49.732  1.00  0.00     0.052 A 
ENDBRANCH  24  26
ENDBRANCH  23  24
ENDBRANCH   9  23
TORSDOF 7
ENDMDL
MODEL 4
REMARK VINA RESULT:      -9.0      2.387      3.199
REMARK  7 active torsions:
REMARK  status: ('A' for Active; 'I' for Inactive)
REMARK    1  A    between atoms: O1_1  and  C1_2 
REMARK    2  A    between atoms: C6_7  and  C7_8 
REMARK    3  A    between atoms: C7_8  and  N1_9 
REMARK    4  A    between atoms: N1_9  and  C8_10 
REMARK    5  A    between atoms: C14_18  and  C15_19 
REMARK    6  A    between atoms: C15_19  and  N4_20 
REMARK    7  A    between atoms: N4_20  and  C16_21 
ROOT
HETATM    1  C8  UNL     1      23.713   0.121  53.360  1.00  0.00     0.044 A 
HETATM    2  C9  UNL     1      22.911  -0.974  53.757  1.00  0.00     0.140 A 
HETATM    3  C10 UNL     1      22.050   0.010  53.312  1.00  0.00    -0.005 A 
HETATM    4  C11 UNL     1      21.362   0.828  52.945  1.00  0.00    -0.128 C 
HETATM    5  C12 UNL     1      20.579   1.802  52.513  1.00  0.00     0.235 C 
HETATM    6  N2  UNL     1      19.850   2.838  52.020  1.00  0.00    -0.274 NA
HETATM    7  C13 UNL     1      20.809   3.888  51.940  1.00  0.00     0.202 C 
HETATM    8  N3  UNL     1      22.144   3.439  52.412  1.00  0.00    -0.353 N 
HETATM    9  C14 UNL     1      23.426   2.766  52.536  1.00  0.00     0.026 C 
HETATM   10  C22 UNL     1      23.909   1.597  52.876  1.00  0.00     0.028 C 
HETATM   11  H13 UNL     1      22.179   4.047  53.305  1.00  0.00     0.166 HD
ENDROOT
BRANCH   1  12
HETATM   12  N1  UNL     1      24.987  -0.531  53.682  1.00  0.00    -0.407 N 
HETATM   13  H8  UNL     1      25.109  -0.503  54.730  1.00  0.00     0.154 HD
BRANCH  12  14
HETATM   14  C7  UNL     1      25.946  -1.124  52.768  1.00  0.00     0.156 C 
BRANCH  14  15
HETATM   15  C6  UNL     1      27.346  -0.769  53.067  1.00  0.00    -0.008 A 
HETATM   16  C1  UNL     1      28.336  -1.754  53.109  1.00  0.00     0.073 A 
HETATM   17  C2  UNL     1      29.638  -1.402  53.391  1.00  0.00     0.037 A 
HETATM   18  C3  UNL     1      30.034  -0.107  53.639  1.00  0.00     0.003 A 
HETATM   19  C4  UNL     1      29.077   0.888  53.604  1.00  0.00     0.001 A 
HETATM   20  C5  UNL     1      27.775   0.534  53.323  1.00  0.00     0.011 A 
BRANCH  16  21
HETATM   21  O1  UNL     1      27.921  -3.057  52.855  1.00  0.00    -0.360 OA
HETATM   22  H1  UNL     1      28.233  -3.852  53.372  1.00  0.00     0.217 HD
ENDBRANCH  16  21
ENDBRANCH  14  15
ENDBRANCH  12  14
ENDBRANCH   1  12
BRANCH   9  23
HETATM   23  C15 UNL     1      24.345   3.798  52.090  1.00  0.00     0.176 C 
BRANCH  23  24
HETATM   24  N4  UNL     1      24.528   3.830  50.666  1.00  0.00    -0.384 N 
HETATM   25  H16 UNL     1      23.820   3.251  50.127  1.00  0.00     0.160 HD
BRANCH  24  26
HETATM   26  C16 UNL     1      25.499   4.507  49.903  1.00  0.00     0.029 A 
HETATM   27  C17 UNL     1      26.684   3.963  49.464  1.00  0.00     0.029 A 
HETATM   28  C18 UNL     1      27.588   4.661  48.724  1.00  0.00     0.004 A 
HETATM   29  C19 UNL     1      27.362   5.967  48.369  1.00  0.00     0.024 A 
HETATM   30  C20 UNL     1      26.171   6.566  48.791  1.00  0.00     0.036 A 
HETATM   31 CL1  UNL     1      25.813   8.230  48.376  1.00  0.00    -0.084 Cl
HETATM   32  C21 UNL     1      25.308   5.817  49.529  1.00  0.00     0.052 A 
ENDBRANCH  24  26
ENDBRANCH  23  24
ENDBRANCH   9  23
TORSDOF 7
ENDMDL
MODEL 5
REMARK VINA RESULT:      -9.0      2.006      5.501
REMARK  7 active torsions:
REMARK  status: ('A' for Active; 'I' for Inactive)
REMARK    1  A    between atoms: O1_1  and  C1_2 
REMARK    2  A    between atoms: C6_7  and  C7_8 
REMARK    3  A    between atoms: C7_8  and  N1_9 
REMARK    4  A    between atoms: N1_9  and  C8_10 
REMARK    5  A    between atoms: C14_18  and  C15_19 
REMARK    6  A    between atoms: C15_19  and  N4_20 
REMARK    7  A    between atoms: N4_20  and  C16_21 
ROOT
HETATM    1  C8  UNL     1      25.691   3.493  50.613  1.00  0.00     0.044 A 
HETATM    2  C9  UNL     1      26.712   3.915  49.731  1.00  0.00     0.140 A 
HETATM    3  C10 UNL     1      25.542   4.501  49.292  1.00  0.00    -0.005 A 
HETATM    4  C11 UNL     1      24.573   4.970  48.948  1.00  0.00    -0.128 C 
HETATM    5  C12 UNL     1      23.426   5.504  48.565  1.00  0.00     0.235 C 
HETATM    6  N2  UNL     1      22.215   6.041  48.261  1.00  0.00    -0.274 NA
HETATM    7  C13 UNL     1      21.324   5.293  49.085  1.00  0.00     0.202 C 
HETATM    8  N3  UNL     1      22.054   4.281  49.891  1.00  0.00    -0.353 N 
HETATM    9  C14 UNL     1      22.919   3.629  50.859  1.00  0.00     0.026 C 
HETATM   10  C22 UNL     1      24.192   3.387  51.053  1.00  0.00     0.028 C 
HETATM   11  H13 UNL     1      21.656   3.407  49.396  1.00  0.00     0.166 HD
ENDROOT
BRANCH   1  12
HETATM   12  N1  UNL     1      26.576   2.686  51.458  1.00  0.00    -0.407 N 
HETATM   13  H8  UNL     1      27.572   2.944  51.223  1.00  0.00     0.154 HD
BRANCH  12  14
HETATM   14  C7  UNL     1      26.207   1.696  52.453  1.00  0.00     0.156 C 
BRANCH  14  15
HETATM   15  C6  UNL     1      27.347   0.899  52.945  1.00  0.00    -0.008 A 
HETATM   16  C1  UNL     1      28.354   1.492  53.711  1.00  0.00     0.073 A 
HETATM   17  C2  UNL     1      29.409   0.729  54.160  1.00  0.00     0.037 A 
HETATM   18  C3  UNL     1      29.536  -0.616  53.896  1.00  0.00     0.003 A 
HETATM   19  C4  UNL     1      28.556  -1.230  53.142  1.00  0.00     0.001 A 
HETATM   20  C5  UNL     1      27.502  -0.465  52.692  1.00  0.00     0.011 A 
BRANCH  16  21
HETATM   21  O1  UNL     1      28.210   2.852  53.970  1.00  0.00    -0.360 OA
HETATM   22  H1  UNL     1      27.489   3.420  53.579  1.00  0.00     0.217 HD
ENDBRANCH  16  21
ENDBRANCH  14  15
ENDBRANCH  12  14
ENDBRANCH   1  12
BRANCH   9  23
HETATM   23  C15 UNL     1      21.965   3.196  51.864  1.00  0.00     0.176 C 
BRANCH  23  24
HETATM   24  N4  UNL     1      21.563   1.825  51.722  1.00  0.00    -0.384 N 
HETATM   25  H16 UNL     1      21.137   1.595  50.777  1.00  0.00     0.160 HD
BRANCH  24  26
HETATM   26  C16 UNL     1      21.651   0.766  52.646  1.00  0.00     0.029 A 
HETATM   27  C17 UNL     1      20.601  -0.025  53.050  1.00  0.00     0.029 A 
HETATM   28  C18 UNL     1      20.741  -1.041  53.945  1.00  0.00     0.004 A 
HETATM   29  C19 UNL     1      21.960  -1.336  54.502  1.00  0.00     0.024 A 
HETATM   30  C20 UNL     1      23.061  -0.560  54.124  1.00  0.00     0.036 A 
HETATM   31 CL1  UNL     1      24.648  -0.877  54.793  1.00  0.00    -0.084 Cl
HETATM   32  C21 UNL     1      22.856   0.441  53.226  1.00  0.00     0.052 A 
ENDBRANCH  24  26
ENDBRANCH  23  24
ENDBRANCH   9  23
TORSDOF 7
ENDMDL
MODEL 6
REMARK VINA RESULT:      -8.7      2.495      6.412
REMARK  7 active torsions:
REMARK  status: ('A' for Active; 'I' for Inactive)
REMARK    1  A    between atoms: O1_1  and  C1_2 
REMARK    2  A    between atoms: C6_7  and  C7_8 
REMARK    3  A    between atoms: C7_8  and  N1_9 
REMARK    4  A    between atoms: N1_9  and  C8_10 
REMARK    5  A    between atoms: C14_18  and  C15_19 
REMARK    6  A    between atoms: C15_19  and  N4_20 
REMARK    7  A    between atoms: N4_20  and  C16_21 
ROOT
HETATM    1  C8  UNL     1      24.179   0.126  53.268  1.00  0.00     0.044 A 
HETATM    2  C9  UNL     1      23.884  -0.823  54.273  1.00  0.00     0.140 A 
HETATM    3  C10 UNL     1      25.187  -0.417  54.481  1.00  0.00    -0.005 A 
HETATM    4  C11 UNL     1      26.252  -0.072  54.633  1.00  0.00    -0.128 C 
HETATM    5  C12 UNL     1      27.497   0.346  54.789  1.00  0.00     0.235 C 
HETATM    6  N2  UNL     1      28.752   0.856  54.898  1.00  0.00    -0.274 NA
HETATM    7  C13 UNL     1      28.914   1.561  53.671  1.00  0.00     0.202 C 
HETATM    8  N3  UNL     1      27.704   1.447  52.818  1.00  0.00    -0.353 N 
HETATM    9  C14 UNL     1      26.356   1.561  52.287  1.00  0.00     0.026 C 
HETATM   10  C22 UNL     1      25.160   1.067  52.490  1.00  0.00     0.028 C 
HETATM   11  H13 UNL     1      28.148   0.843  52.040  1.00  0.00     0.166 HD
ENDROOT
BRANCH   1  12
HETATM   12  N1  UNL     1      22.855   0.067  52.642  1.00  0.00    -0.407 N 
HETATM   13  H8  UNL     1      22.807  -0.819  52.069  1.00  0.00     0.154 HD
BRANCH  12  14
HETATM   14  C7  UNL     1      21.768   1.021  52.753  1.00  0.00     0.156 C 
BRANCH  14  15
HETATM   15  C6  UNL     1      20.438   0.437  52.495  1.00  0.00    -0.008 A 
HETATM   16  C1  UNL     1      19.816  -0.367  53.453  1.00  0.00     0.073 A 
HETATM   17  C2  UNL     1      18.574  -0.904  53.192  1.00  0.00     0.037 A 
HETATM   18  C3  UNL     1      17.890  -0.690  52.017  1.00  0.00     0.003 A 
HETATM   19  C4  UNL     1      18.480   0.101  51.051  1.00  0.00     0.001 A 
HETATM   20  C5  UNL     1      19.722   0.636  51.313  1.00  0.00     0.011 A 
BRANCH  16  21
HETATM   21  O1  UNL     1      20.519  -0.573  54.636  1.00  0.00    -0.360 OA
HETATM   22  H1  UNL     1      21.259   0.018  54.954  1.00  0.00     0.217 HD
ENDBRANCH  16  21
ENDBRANCH  14  15
ENDBRANCH  12  14
ENDBRANCH   1  12
BRANCH   9  23
HETATM   23  C15 UNL     1      26.528   2.575  51.261  1.00  0.00     0.176 C 
BRANCH  23  24
HETATM   24  N4  UNL     1      25.446   3.517  51.197  1.00  0.00    -0.384 N 
HETATM   25  H16 UNL     1      25.336   4.109  52.071  1.00  0.00     0.160 HD
BRANCH  24  26
HETATM   26  C16 UNL     1      24.527   3.756  50.156  1.00  0.00     0.029 A 
HETATM   27  C17 UNL     1      24.403   4.936  49.463  1.00  0.00     0.029 A 
HETATM   28  C18 UNL     1      23.499   5.114  48.460  1.00  0.00     0.004 A 
HETATM   29  C19 UNL     1      22.648   4.106  48.082  1.00  0.00     0.024 A 
HETATM   30  C20 UNL     1      22.735   2.885  48.757  1.00  0.00     0.036 A 
HETATM   31 CL1  UNL     1      21.683   1.552  48.328  1.00  0.00    -0.084 Cl
HETATM   32  C21 UNL     1      23.658   2.770  49.750  1.00  0.00     0.052 A 
ENDBRANCH  24  26
ENDBRANCH  23  24
ENDBRANCH   9  23
TORSDOF 7
ENDMDL
MODEL 7
REMARK VINA RESULT:      -8.3      2.440      5.605
REMARK  7 active torsions:
REMARK  status: ('A' for Active; 'I' for Inactive)
REMARK    1  A    between atoms: O1_1  and  C1_2 
REMARK    2  A    between atoms: C6_7  and  C7_8 
REMARK    3  A    between atoms: C7_8  and  N1_9 
REMARK    4  A    between atoms: N1_9  and  C8_10 
REMARK    5  A    between atoms: C14_18  and  C15_19 
REMARK    6  A    between atoms: C15_19  and  N4_20 
REMARK    7  A    between atoms: N4_20  and  C16_21 
ROOT
HETATM    1  C8  UNL     1      21.871   0.253  53.379  1.00  0.00     0.044 A 
HETATM    2  C9  UNL     1      21.410  -0.972  53.913  1.00  0.00     0.140 A 
HETATM    3  C10 UNL     1      22.760  -0.901  54.191  1.00  0.00    -0.005 A 
HETATM    4  C11 UNL     1      23.867  -0.824  54.407  1.00  0.00    -0.128 C 
HETATM    5  C12 UNL     1      25.163  -0.711  54.645  1.00  0.00     0.235 C 
HETATM    6  N2  UNL     1      26.484  -0.499  54.880  1.00  0.00    -0.274 NA
HETATM    7  C13 UNL     1      26.775   0.623  54.051  1.00  0.00     0.202 C 
HETATM    8  N3  UNL     1      25.571   1.071  53.304  1.00  0.00    -0.353 N 
HETATM    9  C14 UNL     1      24.268   1.607  52.954  1.00  0.00     0.026 C 
HETATM   10  C22 UNL     1      23.004   1.268  53.006  1.00  0.00     0.028 C 
HETATM   11  H13 UNL     1      25.915   0.789  52.319  1.00  0.00     0.166 HD
ENDROOT
BRANCH   1  12
HETATM   12  N1  UNL     1      20.561   0.672  52.869  1.00  0.00    -0.407 N 
HETATM   13  H8  UNL     1      20.015   1.079  53.675  1.00  0.00     0.154 HD
BRANCH  12  14
HETATM   14  C7  UNL     1      20.054   0.569  51.514  1.00  0.00     0.156 C 
BRANCH  14  15
HETATM   15  C6  UNL     1      20.777   1.414  50.544  1.00  0.00    -0.008 A 
HETATM   16  C1  UNL     1      20.862   2.796  50.729  1.00  0.00     0.073 A 
HETATM   17  C2  UNL     1      21.542   3.567  49.811  1.00  0.00     0.037 A 
HETATM   18  C3  UNL     1      22.158   3.047  48.696  1.00  0.00     0.003 A 
HETATM   19  C4  UNL     1      22.090   1.684  48.486  1.00  0.00     0.001 A 
HETATM   20  C5  UNL     1      21.409   0.914  49.405  1.00  0.00     0.011 A 
BRANCH  16  21
HETATM   21  O1  UNL     1      20.236   3.306  51.862  1.00  0.00    -0.360 OA
HETATM   22  H1  UNL     1      20.424   4.209  52.243  1.00  0.00     0.217 HD
ENDBRANCH  16  21
ENDBRANCH  14  15
ENDBRANCH  12  14
ENDBRANCH   1  12
BRANCH   9  23
HETATM   23  C15 UNL     1      24.618   2.918  52.436  1.00  0.00     0.176 C 
BRANCH  23  24
HETATM   24  N4  UNL     1      25.008   2.905  51.054  1.00  0.00    -0.384 N 
HETATM   25  H16 UNL     1      24.801   1.991  50.555  1.00  0.00     0.160 HD
BRANCH  24  26
HETATM   26  C16 UNL     1      25.618   3.916  50.286  1.00  0.00     0.029 A 
HETATM   27  C17 UNL     1      26.713   3.743  49.472  1.00  0.00     0.029 A 
HETATM   28  C18 UNL     1      27.262   4.756  48.746  1.00  0.00     0.004 A 
HETATM   29  C19 UNL     1      26.744   6.025  48.789  1.00  0.00     0.024 A 
HETATM   30  C20 UNL     1      25.629   6.253  49.602  1.00  0.00     0.036 A 
HETATM   31 CL1  UNL     1      24.912   7.848  49.706  1.00  0.00    -0.084 Cl
HETATM   32  C21 UNL     1      25.127   5.201  50.304  1.00  0.00     0.052 A 
ENDBRANCH  24  26
ENDBRANCH  23  24
ENDBRANCH   9  23
TORSDOF 7
ENDMDL
MODEL 8
REMARK VINA RESULT:      -8.2      2.816      6.372
REMARK  7 active torsions:
REMARK  status: ('A' for Active; 'I' for Inactive)
REMARK    1  A    between atoms: O1_1  and  C1_2 
REMARK    2  A    between atoms: C6_7  and  C7_8 
REMARK    3  A    between atoms: C7_8  and  N1_9 
REMARK    4  A    between atoms: N1_9  and  C8_10 
REMARK    5  A    between atoms: C14_18  and  C15_19 
REMARK    6  A    between atoms: C15_19  and  N4_20 
REMARK    7  A    between atoms: N4_20  and  C16_21 
ROOT
HETATM    1  C8  UNL     1      23.099   1.597  52.228  1.00  0.00     0.044 A 
HETATM    2  C9  UNL     1      22.123   0.764  52.823  1.00  0.00     0.140 A 
HETATM    3  C10 UNL     1      23.351   0.197  53.100  1.00  0.00    -0.005 A 
HETATM    4  C11 UNL     1      24.366  -0.251  53.315  1.00  0.00    -0.128 C 
HETATM    5  C12 UNL     1      25.564  -0.757  53.550  1.00  0.00     0.235 C 
HETATM    6  N2  UNL     1      26.833  -1.188  53.777  1.00  0.00    -0.274 NA
HETATM    7  C13 UNL     1      27.604  -0.379  52.893  1.00  0.00     0.202 C 
HETATM    8  N3  UNL     1      26.741   0.552  52.122  1.00  0.00    -0.353 N 
HETATM    9  C14 UNL     1      25.842   1.628  51.741  1.00  0.00     0.026 C 
HETATM   10  C22 UNL     1      24.570   1.932  51.807  1.00  0.00     0.028 C 
HETATM   11  H13 UNL     1      26.889   0.096  51.153  1.00  0.00     0.166 HD
ENDROOT
BRANCH   1  12
HETATM   12  N1  UNL     1      22.135   2.563  51.694  1.00  0.00    -0.407 N 
HETATM   13  H8  UNL     1      21.884   2.262  50.713  1.00  0.00     0.154 HD
BRANCH  12  14
HETATM   14  C7  UNL     1      21.588   3.738  52.346  1.00  0.00     0.156 C 
BRANCH  14  15
HETATM   15  C6  UNL     1      21.650   4.958  51.519  1.00  0.00    -0.008 A 
HETATM   16  C1  UNL     1      22.709   5.859  51.656  1.00  0.00     0.073 A 
HETATM   17  C2  UNL     1      22.747   6.993  50.874  1.00  0.00     0.037 A 
HETATM   18  C3  UNL     1      21.783   7.300  49.941  1.00  0.00     0.003 A 
HETATM   19  C4  UNL     1      20.724   6.428  49.783  1.00  0.00     0.001 A 
HETATM   20  C5  UNL     1      20.687   5.296  50.567  1.00  0.00     0.011 A 
BRANCH  16  21
HETATM   21  O1  UNL     1      23.677   5.533  52.602  1.00  0.00    -0.360 OA
HETATM   22  H1  UNL     1      24.632   5.818  52.542  1.00  0.00     0.217 HD
ENDBRANCH  16  21
ENDBRANCH  14  15
ENDBRANCH  12  14
ENDBRANCH   1  12
BRANCH   9  23
HETATM   23  C15 UNL     1      26.761   2.589  51.158  1.00  0.00     0.176 C 
BRANCH  23  24
HETATM   24  N4  UNL     1      26.376   3.030  49.848  1.00  0.00    -0.384 N 
HETATM   25  H16 UNL     1      25.978   2.262  49.232  1.00  0.00     0.160 HD
BRANCH  24  26
HETATM   26  C16 UNL     1      26.456   4.316  49.276  1.00  0.00     0.029 A 
HETATM   27  C17 UNL     1      25.405   5.194  49.150  1.00  0.00     0.029 A 
HETATM   28  C18 UNL     1      25.537   6.430  48.593  1.00  0.00     0.004 A 
HETATM   29  C19 UNL     1      26.746   6.871  48.118  1.00  0.00     0.024 A 
HETATM   30  C20 UNL     1      27.846   6.013  48.222  1.00  0.00     0.036 A 
HETATM   31 CL1  UNL     1      29.422   6.509  47.639  1.00  0.00    -0.084 Cl
HETATM   32  C21 UNL     1      27.650   4.792  48.789  1.00  0.00     0.052 A 
ENDBRANCH  24  26
ENDBRANCH  23  24
ENDBRANCH   9  23
TORSDOF 7
ENDMDL
MODEL 9
REMARK VINA RESULT:      -8.2      2.858      6.755
REMARK  7 active torsions:
REMARK  status: ('A' for Active; 'I' for Inactive)
REMARK    1  A    between atoms: O1_1  and  C1_2 
REMARK    2  A    between atoms: C6_7  and  C7_8 
REMARK    3  A    between atoms: C7_8  and  N1_9 
REMARK    4  A    between atoms: N1_9  and  C8_10 
REMARK    5  A    between atoms: C14_18  and  C15_19 
REMARK    6  A    between atoms: C15_19  and  N4_20 
REMARK    7  A    between atoms: N4_20  and  C16_21 
ROOT
HETATM    1  C8  UNL     1      23.648   4.663  48.991  1.00  0.00     0.044 A 
HETATM    2  C9  UNL     1      22.935   4.785  47.776  1.00  0.00     0.140 A 
HETATM    3  C10 UNL     1      22.426   3.677  48.424  1.00  0.00    -0.005 A 
HETATM    4  C11 UNL     1      22.025   2.774  48.972  1.00  0.00    -0.128 C 
HETATM    5  C12 UNL     1      21.575   1.720  49.631  1.00  0.00     0.235 C 
HETATM    6  N2  UNL     1      21.147   0.676  50.390  1.00  0.00    -0.274 NA
HETATM    7  C13 UNL     1      22.149   0.590  51.399  1.00  0.00     0.202 C 
HETATM    8  N3  UNL     1      23.199   1.623  51.210  1.00  0.00    -0.353 N 
HETATM    9  C14 UNL     1      23.914   2.884  51.118  1.00  0.00     0.026 C 
HETATM   10  C22 UNL     1      24.027   3.908  50.309  1.00  0.00     0.028 C 
HETATM   11  H13 UNL     1      24.002   0.948  50.950  1.00  0.00     0.166 HD
ENDROOT
BRANCH   1  12
HETATM   12  N1  UNL     1      24.487   5.844  48.766  1.00  0.00    -0.407 N 
HETATM   13  H8  UNL     1      24.150   6.318  47.885  1.00  0.00     0.154 HD
BRANCH  12  14
HETATM   14  C7  UNL     1      25.594   6.323  49.572  1.00  0.00     0.156 C 
BRANCH  14  15
HETATM   15  C6  UNL     1      26.877   6.375  48.846  1.00  0.00    -0.008 A 
HETATM   16  C1  UNL     1      27.737   5.274  48.837  1.00  0.00     0.073 A 
HETATM   17  C2  UNL     1      28.930   5.344  48.153  1.00  0.00     0.037 A 
HETATM   18  C3  UNL     1      29.339   6.460  47.459  1.00  0.00     0.003 A 
HETATM   19  C4  UNL     1      28.510   7.564  47.449  1.00  0.00     0.001 A 
HETATM   20  C5  UNL     1      27.317   7.493  48.134  1.00  0.00     0.011 A 
BRANCH  16  21
HETATM   21  O1  UNL     1      27.309   4.153  49.543  1.00  0.00    -0.360 OA
HETATM   22  H1  UNL     1      27.322   4.083  50.538  1.00  0.00     0.217 HD
ENDBRANCH  16  21
ENDBRANCH  14  15
ENDBRANCH  12  14
ENDBRANCH   1  12
BRANCH   9  23
HETATM   23  C15 UNL     1      24.654   2.896  52.368  1.00  0.00     0.176 C 
BRANCH  23  24
HETATM   24  N4  UNL     1      26.077   2.837  52.193  1.00  0.00    -0.384 N 
HETATM   25  H16 UNL     1      26.477   3.638  51.623  1.00  0.00     0.160 HD
BRANCH  24  26
HETATM   26  C16 UNL     1      26.998   1.880  52.663  1.00  0.00     0.029 A 
HETATM   27  C17 UNL     1      28.168   2.164  53.328  1.00  0.00     0.029 A 
HETATM   28  C18 UNL     1      29.023   1.199  53.766  1.00  0.00     0.004 A 
HETATM   29  C19 UNL     1      28.758  -0.132  53.562  1.00  0.00     0.024 A 
HETATM   30  C20 UNL     1      27.580  -0.473  52.890  1.00  0.00     0.036 A 
HETATM   31 CL1  UNL     1      27.175  -2.152  52.595  1.00  0.00    -0.084 Cl
HETATM   32  C21 UNL     1      26.768   0.537  52.477  1.00  0.00     0.052 A 
ENDBRANCH  24  26
ENDBRANCH  23  24
ENDBRANCH   9  23
TORSDOF 7
ENDMDL
