MODEL 1
REMARK VINA RESULT:      -9.7      0.000      0.000
REMARK  2 active torsions:
REMARK  status: ('A' for Active; 'I' for Inactive)
REMARK    1  A    between atoms: N1_2  and  C2_3 
REMARK    2  A    between atoms: C7_9  and  O2_10 
ROOT
HETATM    1  C2  UNL     1      22.368   4.270  51.812  1.00  0.00     0.257 C 
HETATM    2  C3  UNL     1      23.792   3.928  52.270  1.00  0.00     0.092 C 
HETATM    3  C4  UNL     1      24.452   3.264  51.099  1.00  0.00     0.228 C 
HETATM    4  O1  UNL     1      23.595   2.487  50.354  1.00  0.00    -0.334 OA
HETATM    5  C5  UNL     1      22.531   1.903  50.967  1.00  0.00     0.168 C 
HETATM    6  C6  UNL     1      21.800   1.088  49.915  1.00  0.00     0.074 C 
HETATM    7  C7  UNL     1      21.621   2.995  51.445  1.00  0.00     0.209 C 
HETATM    8  N2  UNL     1      22.905   0.950  52.008  1.00  0.00    -0.309 N 
HETATM    9  C9  UNL     1      24.136   0.607  52.502  1.00  0.00     0.064 A 
HETATM   10  C10 UNL     1      24.094  -0.293  53.526  1.00  0.00     0.001 A 
HETATM   11  C11 UNL     1      22.766  -0.550  53.696  1.00  0.00     0.003 A 
HETATM   12  C12 UNL     1      22.164  -1.400  54.596  1.00  0.00     0.014 A 
HETATM   13  C13 UNL     1      20.793  -1.508  54.582  1.00  0.00     0.001 A 
HETATM   14  C14 UNL     1      20.075  -0.767  53.674  1.00  0.00     0.002 A 
HETATM   15  C15 UNL     1      20.751   0.059  52.809  1.00  0.00     0.030 A 
HETATM   16  C16 UNL     1      22.105   0.220  52.763  1.00  0.00     0.049 A 
HETATM   17  C17 UNL     1      25.261  -0.562  54.032  1.00  0.00    -0.008 C 
HETATM   18  C18 UNL     1      26.682  -0.503  54.208  1.00  0.00     0.061 C 
HETATM   19  C19 UNL     1      27.474   0.561  53.536  1.00  0.00    -0.083 C 
HETATM   20  C20 UNL     1      28.919   0.348  53.978  1.00  0.00     0.043 C 
HETATM   21  C21 UNL     1      27.543   1.635  52.707  1.00  0.00    -0.005 C 
HETATM   22  C22 UNL     1      26.945   2.631  51.799  1.00  0.00     0.152 C 
HETATM   23  N3  UNL     1      25.524   2.425  51.591  1.00  0.00    -0.358 N 
HETATM   24  C23 UNL     1      25.237   1.087  51.954  1.00  0.00     0.119 C 
ENDROOT
BRANCH   1  25
HETATM   25  N1  UNL     1      22.495   5.157  50.684  1.00  0.00     0.086 N 
HETATM   26  C1  UNL     1      22.070   6.495  50.978  1.00  0.00     0.307 C 
HETATM   27  H4  UNL     1      23.486   5.206  50.323  1.00  0.00     0.316 HD
ENDBRANCH   1  25
BRANCH   7  28
HETATM   28  O2  UNL     1      20.807   3.363  50.350  1.00  0.00    -0.384 OA
HETATM   29  C8  UNL     1      19.497   3.585  50.687  1.00  0.00     0.202 C 
ENDBRANCH   7  28
TORSDOF 2
ENDMDL
MODEL 2
REMARK VINA RESULT:      -9.3      1.489      4.989
REMARK  2 active torsions:
REMARK  status: ('A' for Active; 'I' for Inactive)
REMARK    1  A    between atoms: N1_2  and  C2_3 
REMARK    2  A    between atoms: C7_9  and  O2_10 
ROOT
HETATM    1  C2  UNL     1      23.043   2.627  49.324  1.00  0.00     0.257 C 
HETATM    2  C3  UNL     1      21.922   1.700  49.815  1.00  0.00     0.092 C 
HETATM    3  C4  UNL     1      21.133   2.500  50.808  1.00  0.00     0.228 C 
HETATM    4  O1  UNL     1      21.903   3.362  51.554  1.00  0.00    -0.334 OA
HETATM    5  C5  UNL     1      23.201   3.042  51.803  1.00  0.00     0.168 C 
HETATM    6  C6  UNL     1      23.777   4.148  52.669  1.00  0.00     0.074 C 
HETATM    7  C7  UNL     1      23.931   3.031  50.492  1.00  0.00     0.209 C 
HETATM    8  N2  UNL     1      23.364   1.815  52.577  1.00  0.00    -0.309 N 
HETATM    9  C9  UNL     1      22.434   0.916  53.027  1.00  0.00     0.064 A 
HETATM   10  C10 UNL     1      22.966  -0.157  53.681  1.00  0.00     0.001 A 
HETATM   11  C11 UNL     1      24.311   0.067  53.658  1.00  0.00     0.003 A 
HETATM   12  C12 UNL     1      25.319  -0.705  54.188  1.00  0.00     0.014 A 
HETATM   13  C13 UNL     1      26.619  -0.274  54.050  1.00  0.00     0.001 A 
HETATM   14  C14 UNL     1      26.863   0.908  53.391  1.00  0.00     0.002 A 
HETATM   15  C15 UNL     1      25.801   1.620  52.891  1.00  0.00     0.030 A 
HETATM   16  C16 UNL     1      24.489   1.258  52.987  1.00  0.00     0.049 A 
HETATM   17  C17 UNL     1      22.082  -1.037  54.046  1.00  0.00    -0.008 C 
HETATM   18  C18 UNL     1      20.792  -1.643  54.207  1.00  0.00     0.061 C 
HETATM   19  C19 UNL     1      19.622  -1.114  53.459  1.00  0.00    -0.083 C 
HETATM   20  C20 UNL     1      18.447  -2.014  53.832  1.00  0.00     0.043 C 
HETATM   21  C21 UNL     1      19.078  -0.210  52.603  1.00  0.00    -0.005 C 
HETATM   22  C22 UNL     1      19.152   0.969  51.720  1.00  0.00     0.152 C 
HETATM   23  N3  UNL     1      20.466   1.585  51.708  1.00  0.00    -0.358 N 
HETATM   24  C23 UNL     1      21.143   1.149  52.872  1.00  0.00     0.119 C 
ENDROOT
BRANCH   1  25
HETATM   25  N1  UNL     1      22.405   3.768  48.720  1.00  0.00     0.086 N 
HETATM   26  C1  UNL     1      22.032   3.539  47.353  1.00  0.00     0.307 C 
HETATM   27  H4  UNL     1      21.538   4.067  49.243  1.00  0.00     0.316 HD
ENDBRANCH   1  25
BRANCH   7  28
HETATM   28  O2  UNL     1      24.299   4.367  50.214  1.00  0.00    -0.384 OA
HETATM   29  C8  UNL     1      25.575   4.498  49.731  1.00  0.00     0.202 C 
ENDBRANCH   7  28
TORSDOF 2
ENDMDL
MODEL 3
REMARK VINA RESULT:      -8.8      1.958      4.846
REMARK  2 active torsions:
REMARK  status: ('A' for Active; 'I' for Inactive)
REMARK    1  A    between atoms: N1_2  and  C2_3 
REMARK    2  A    between atoms: C7_9  and  O2_10 
ROOT
HETATM    1  C2  UNL     1      20.844   2.373  49.949  1.00  0.00     0.257 C 
HETATM    2  C3  UNL     1      21.745   1.280  50.540  1.00  0.00     0.092 C 
HETATM    3  C4  UNL     1      21.840   1.575  52.007  1.00  0.00     0.228 C 
HETATM    4  O1  UNL     1      21.842   2.920  52.297  1.00  0.00    -0.334 OA
HETATM    5  C5  UNL     1      22.349   3.792  51.386  1.00  0.00     0.168 C 
HETATM    6  C6  UNL     1      22.253   5.180  51.992  1.00  0.00     0.074 C 
HETATM    7  C7  UNL     1      21.476   3.740  50.167  1.00  0.00     0.209 C 
HETATM    8  N2  UNL     1      23.767   3.586  51.104  1.00  0.00    -0.309 N 
HETATM    9  C9  UNL     1      24.635   2.628  51.555  1.00  0.00     0.064 A 
HETATM   10  C10 UNL     1      25.890   2.719  51.027  1.00  0.00     0.001 A 
HETATM   11  C11 UNL     1      25.829   3.800  50.196  1.00  0.00     0.003 A 
HETATM   12  C12 UNL     1      26.826   4.342  49.419  1.00  0.00     0.014 A 
HETATM   13  C13 UNL     1      26.536   5.451  48.657  1.00  0.00     0.001 A 
HETATM   14  C14 UNL     1      25.266   5.976  48.700  1.00  0.00     0.002 A 
HETATM   15  C15 UNL     1      24.327   5.375  49.503  1.00  0.00     0.030 A 
HETATM   16  C16 UNL     1      24.538   4.276  50.283  1.00  0.00     0.049 A 
HETATM   17  C17 UNL     1      26.687   1.768  51.409  1.00  0.00    -0.008 C 
HETATM   18  C18 UNL     1      27.116   0.582  52.092  1.00  0.00     0.061 C 
HETATM   19  C19 UNL     1      26.117  -0.304  52.746  1.00  0.00    -0.083 C 
HETATM   20  C20 UNL     1      26.912  -1.472  53.324  1.00  0.00     0.043 C 
HETATM   21  C21 UNL     1      24.834  -0.583  53.092  1.00  0.00    -0.005 C 
HETATM   22  C22 UNL     1      23.391  -0.280  53.129  1.00  0.00     0.152 C 
HETATM   23  N3  UNL     1      23.064   0.993  52.515  1.00  0.00    -0.358 N 
HETATM   24  C23 UNL     1      24.256   1.755  52.471  1.00  0.00     0.119 C 
ENDROOT
BRANCH   1  25
HETATM   25  N1  UNL     1      19.569   2.263  50.610  1.00  0.00     0.086 N 
HETATM   26  C1  UNL     1      18.721   1.266  50.021  1.00  0.00     0.307 C 
HETATM   27  H4  UNL     1      19.667   2.037  51.636  1.00  0.00     0.316 HD
ENDBRANCH   1  25
BRANCH   7  28
HETATM   28  O2  UNL     1      20.383   4.603  50.405  1.00  0.00    -0.384 OA
HETATM   29  C8  UNL     1      20.070   5.405  49.338  1.00  0.00     0.202 C 
ENDBRANCH   7  28
TORSDOF 2
ENDMDL
MODEL 4
REMARK VINA RESULT:      -8.4      1.949      4.982
REMARK  2 active torsions:
REMARK  status: ('A' for Active; 'I' for Inactive)
REMARK    1  A    between atoms: N1_2  and  C2_3 
REMARK    2  A    between atoms: C7_9  and  O2_10 
ROOT
HETATM    1  C2  UNL     1      20.039   2.976  49.253  1.00  0.00     0.257 C 
HETATM    2  C3  UNL     1      20.205   1.834  50.266  1.00  0.00     0.092 C 
HETATM    3  C4  UNL     1      19.982   2.447  51.616  1.00  0.00     0.228 C 
HETATM    4  O1  UNL     1      20.445   3.739  51.716  1.00  0.00    -0.334 OA
HETATM    5  C5  UNL     1      21.502   4.123  50.952  1.00  0.00     0.168 C 
HETATM    6  C6  UNL     1      21.806   5.568  51.302  1.00  0.00     0.074 C 
HETATM    7  C7  UNL     1      21.078   4.057  49.515  1.00  0.00     0.209 C 
HETATM    8  N2  UNL     1      22.730   3.386  51.238  1.00  0.00    -0.309 N 
HETATM    9  C9  UNL     1      22.963   2.341  52.092  1.00  0.00     0.064 A 
HETATM   10  C10 UNL     1      24.241   1.864  52.054  1.00  0.00     0.001 A 
HETATM   11  C11 UNL     1      24.867   2.649  51.131  1.00  0.00     0.003 A 
HETATM   12  C12 UNL     1      26.177   2.604  50.712  1.00  0.00     0.014 A 
HETATM   13  C13 UNL     1      26.596   3.510  49.765  1.00  0.00     0.001 A 
HETATM   14  C14 UNL     1      25.695   4.425  49.273  1.00  0.00     0.002 A 
HETATM   15  C15 UNL     1      24.405   4.404  49.744  1.00  0.00     0.030 A 
HETATM   16  C16 UNL     1      23.916   3.539  50.678  1.00  0.00     0.049 A 
HETATM   17  C17 UNL     1      24.435   0.832  52.819  1.00  0.00    -0.008 C 
HETATM   18  C18 UNL     1      24.128  -0.211  53.754  1.00  0.00     0.061 C 
HETATM   19  C19 UNL     1      22.714  -0.508  54.101  1.00  0.00    -0.083 C 
HETATM   20  C20 UNL     1      22.761  -1.685  55.072  1.00  0.00     0.043 C 
HETATM   21  C21 UNL     1      21.388  -0.238  53.984  1.00  0.00    -0.005 C 
HETATM   22  C22 UNL     1      20.249   0.533  53.451  1.00  0.00     0.152 C 
HETATM   23  N3  UNL     1      20.660   1.638  52.605  1.00  0.00    -0.358 N 
HETATM   24  C23 UNL     1      22.015   1.914  52.907  1.00  0.00     0.119 C 
ENDROOT
BRANCH   1  25
HETATM   25  N1  UNL     1      18.697   3.477  49.408  1.00  0.00     0.086 N 
HETATM   26  C1  UNL     1      17.761   2.843  48.525  1.00  0.00     0.307 C 
HETATM   27  H4  UNL     1      18.338   3.362  50.394  1.00  0.00     0.316 HD
ENDBRANCH   1  25
BRANCH   7  28
HETATM   28  O2  UNL     1      20.411   5.269  49.225  1.00  0.00    -0.384 OA
HETATM   29  C8  UNL     1      20.721   5.789  47.996  1.00  0.00     0.202 C 
ENDBRANCH   7  28
TORSDOF 2
ENDMDL
MODEL 5
REMARK VINA RESULT:      -8.2      1.649      2.643
REMARK  2 active torsions:
REMARK  status: ('A' for Active; 'I' for Inactive)
REMARK    1  A    between atoms: N1_2  and  C2_3 
REMARK    2  A    between atoms: C7_9  and  O2_10 
ROOT
HETATM    1  C2  UNL     1      22.852   5.186  50.941  1.00  0.00     0.257 C 
HETATM    2  C3  UNL     1      23.579   4.340  51.996  1.00  0.00     0.092 C 
HETATM    3  C4  UNL     1      24.579   3.515  51.244  1.00  0.00     0.228 C 
HETATM    4  O1  UNL     1      24.140   3.120  50.001  1.00  0.00    -0.334 OA
HETATM    5  C5  UNL     1      22.808   2.943  49.795  1.00  0.00     0.168 C 
HETATM    6  C6  UNL     1      22.634   2.477  48.361  1.00  0.00     0.074 C 
HETATM    7  C7  UNL     1      22.140   4.277  49.949  1.00  0.00     0.209 C 
HETATM    8  N2  UNL     1      22.221   1.892  50.621  1.00  0.00    -0.309 N 
HETATM    9  C9  UNL     1      22.779   1.115  51.602  1.00  0.00     0.064 A 
HETATM   10  C10 UNL     1      21.900   0.263  52.205  1.00  0.00     0.001 A 
HETATM   11  C11 UNL     1      20.714   0.498  51.573  1.00  0.00     0.003 A 
HETATM   12  C12 UNL     1      19.494  -0.101  51.786  1.00  0.00     0.014 A 
HETATM   13  C13 UNL     1      18.424   0.295  51.017  1.00  0.00     0.001 A 
HETATM   14  C14 UNL     1      18.611   1.270  50.066  1.00  0.00     0.002 A 
HETATM   15  C15 UNL     1      19.861   1.818  49.915  1.00  0.00     0.030 A 
HETATM   16  C16 UNL     1      20.967   1.480  50.638  1.00  0.00     0.049 A 
HETATM   17  C17 UNL     1      22.421  -0.422  53.177  1.00  0.00    -0.008 C 
HETATM   18  C18 UNL     1      23.422  -0.886  54.094  1.00  0.00     0.061 C 
HETATM   19  C19 UNL     1      24.714  -0.162  54.217  1.00  0.00    -0.083 C 
HETATM   20  C20 UNL     1      25.502  -0.895  55.299  1.00  0.00     0.043 C 
HETATM   21  C21 UNL     1      25.549   0.836  53.828  1.00  0.00    -0.005 C 
HETATM   22  C22 UNL     1      25.899   2.006  53.000  1.00  0.00     0.152 C 
HETATM   23  N3  UNL     1      24.877   2.332  52.022  1.00  0.00    -0.358 N 
HETATM   24  C23 UNL     1      24.073   1.179  51.856  1.00  0.00     0.119 C 
ENDROOT
BRANCH   1  25
HETATM   25  N1  UNL     1      23.854   5.997  50.296  1.00  0.00     0.086 N 
HETATM   26  C1  UNL     1      24.056   7.257  50.952  1.00  0.00     0.307 C 
HETATM   27  H4  UNL     1      24.789   5.510  50.240  1.00  0.00     0.316 HD
ENDBRANCH   1  25
BRANCH   7  28
HETATM   28  O2  UNL     1      22.257   4.944  48.708  1.00  0.00    -0.384 OA
HETATM   29  C8  UNL     1      21.118   5.603  48.326  1.00  0.00     0.202 C 
ENDBRANCH   7  28
TORSDOF 2
ENDMDL
MODEL 6
REMARK VINA RESULT:      -8.1      2.042      4.035
REMARK  2 active torsions:
REMARK  status: ('A' for Active; 'I' for Inactive)
REMARK    1  A    between atoms: N1_2  and  C2_3 
REMARK    2  A    between atoms: C7_9  and  O2_10 
ROOT
HETATM    1  C2  UNL     1      19.852   3.499  51.550  1.00  0.00     0.257 C 
HETATM    2  C3  UNL     1      20.992   4.363  50.994  1.00  0.00     0.092 C 
HETATM    3  C4  UNL     1      21.202   3.906  49.581  1.00  0.00     0.228 C 
HETATM    4  O1  UNL     1      21.004   2.556  49.406  1.00  0.00    -0.334 OA
HETATM    5  C5  UNL     1      21.242   1.712  50.446  1.00  0.00     0.168 C 
HETATM    6  C6  UNL     1      20.976   0.303  49.949  1.00  0.00     0.074 C 
HETATM    7  C7  UNL     1      20.256   2.032  51.531  1.00  0.00     0.209 C 
HETATM    8  N2  UNL     1      22.631   1.713  50.894  1.00  0.00    -0.309 N 
HETATM    9  C9  UNL     1      23.700   2.465  50.483  1.00  0.00     0.064 A 
HETATM   10  C10 UNL     1      24.850   2.227  51.178  1.00  0.00     0.001 A 
HETATM   11  C11 UNL     1      24.506   1.262  52.079  1.00  0.00     0.003 A 
HETATM   12  C12 UNL     1      25.296   0.649  53.024  1.00  0.00     0.014 A 
HETATM   13  C13 UNL     1      24.731  -0.313  53.829  1.00  0.00     0.001 A 
HETATM   14  C14 UNL     1      23.403  -0.626  53.663  1.00  0.00     0.002 A 
HETATM   15  C15 UNL     1      22.683   0.033  52.697  1.00  0.00     0.030 A 
HETATM   16  C16 UNL     1      23.170   0.996  51.863  1.00  0.00     0.049 A 
HETATM   17  C17 UNL     1      25.840   2.991  50.826  1.00  0.00    -0.008 C 
HETATM   18  C18 UNL     1      26.545   4.014  50.110  1.00  0.00     0.061 C 
HETATM   19  C19 UNL     1      25.798   4.978  49.259  1.00  0.00    -0.083 C 
HETATM   20  C20 UNL     1      26.845   5.935  48.697  1.00  0.00     0.043 C 
HETATM   21  C21 UNL     1      24.631   5.424  48.726  1.00  0.00    -0.005 C 
HETATM   22  C22 UNL     1      23.172   5.358  48.524  1.00  0.00     0.152 C 
HETATM   23  N3  UNL     1      22.559   4.225  49.193  1.00  0.00    -0.358 N 
HETATM   24  C23 UNL     1      23.587   3.288  49.456  1.00  0.00     0.119 C 
ENDROOT
BRANCH   1  25
HETATM   25  N1  UNL     1      18.700   3.745  50.720  1.00  0.00     0.086 N 
HETATM   26  C1  UNL     1      17.563   4.201  51.467  1.00  0.00     0.307 C 
HETATM   27  H4  UNL     1      18.895   4.456  49.965  1.00  0.00     0.316 HD
ENDBRANCH   1  25
BRANCH   7  28
HETATM   28  O2  UNL     1      19.064   1.338  51.223  1.00  0.00    -0.384 OA
HETATM   29  C8  UNL     1      18.642   0.498  52.220  1.00  0.00     0.202 C 
ENDBRANCH   7  28
TORSDOF 2
ENDMDL
MODEL 7
REMARK VINA RESULT:      -7.8      8.789     11.973
REMARK  2 active torsions:
REMARK  status: ('A' for Active; 'I' for Inactive)
REMARK    1  A    between atoms: N1_2  and  C2_3 
REMARK    2  A    between atoms: C7_9  and  O2_10 
ROOT
HETATM    1  C2  UNL     1      32.065   9.773  45.584  1.00  0.00     0.257 C 
HETATM    2  C3  UNL     1      30.636   9.496  46.072  1.00  0.00     0.092 C 
HETATM    3  C4  UNL     1      30.648   9.757  47.548  1.00  0.00     0.228 C 
HETATM    4  O1  UNL     1      31.831   9.408  48.158  1.00  0.00    -0.334 OA
HETATM    5  C5  UNL     1      32.573   8.397  47.632  1.00  0.00     0.168 C 
HETATM    6  C6  UNL     1      33.785   8.218  48.528  1.00  0.00     0.074 C 
HETATM    7  C7  UNL     1      33.041   8.830  46.274  1.00  0.00     0.209 C 
HETATM    8  N2  UNL     1      31.890   7.107  47.635  1.00  0.00    -0.309 N 
HETATM    9  C9  UNL     1      30.617   6.773  48.016  1.00  0.00     0.064 A 
HETATM   10  C10 UNL     1      30.305   5.459  47.825  1.00  0.00     0.001 A 
HETATM   11  C11 UNL     1      31.440   4.915  47.300  1.00  0.00     0.003 A 
HETATM   12  C12 UNL     1      31.674   3.610  46.928  1.00  0.00     0.014 A 
HETATM   13  C13 UNL     1      32.911   3.284  46.422  1.00  0.00     0.001 A 
HETATM   14  C14 UNL     1      33.866   4.267  46.307  1.00  0.00     0.002 A 
HETATM   15  C15 UNL     1      33.552   5.544  46.701  1.00  0.00     0.030 A 
HETATM   16  C16 UNL     1      32.351   5.945  47.209  1.00  0.00     0.049 A 
HETATM   17  C17 UNL     1      29.076   5.166  48.128  1.00  0.00    -0.008 C 
HETATM   18  C18 UNL     1      27.728   5.369  48.572  1.00  0.00     0.061 C 
HETATM   19  C19 UNL     1      27.199   6.748  48.741  1.00  0.00    -0.083 C 
HETATM   20  C20 UNL     1      25.744   6.587  49.172  1.00  0.00     0.043 C 
HETATM   21  C21 UNL     1      27.379   8.094  48.706  1.00  0.00    -0.005 C 
HETATM   22  C22 UNL     1      28.197   9.302  48.491  1.00  0.00     0.152 C 
HETATM   23  N3  UNL     1      29.576   8.999  48.157  1.00  0.00    -0.358 N 
HETATM   24  C23 UNL     1      29.826   7.671  48.575  1.00  0.00     0.119 C 
ENDROOT
BRANCH   1  25
HETATM   25  N1  UNL     1      32.349  11.152  45.891  1.00  0.00     0.086 N 
HETATM   26  C1  UNL     1      32.098  12.031  44.785  1.00  0.00     0.307 C 
HETATM   27  H4  UNL     1      31.790  11.503  46.715  1.00  0.00     0.316 HD
ENDBRANCH   1  25
BRANCH   7  28
HETATM   28  O2  UNL     1      34.208   9.604  46.467  1.00  0.00    -0.384 OA
HETATM   29  C8  UNL     1      35.199   9.343  45.558  1.00  0.00     0.202 C 
ENDBRANCH   7  28
TORSDOF 2
ENDMDL
MODEL 8
REMARK VINA RESULT:      -7.6      1.645      5.429
REMARK  2 active torsions:
REMARK  status: ('A' for Active; 'I' for Inactive)
REMARK    1  A    between atoms: N1_2  and  C2_3 
REMARK    2  A    between atoms: C7_9  and  O2_10 
ROOT
HETATM    1  C2  UNL     1      25.684   2.840  50.428  1.00  0.00     0.257 C 
HETATM    2  C3  UNL     1      24.347   3.424  49.950  1.00  0.00     0.092 C 
HETATM    3  C4  UNL     1      24.024   4.540  50.899  1.00  0.00     0.228 C 
HETATM    4  O1  UNL     1      24.424   4.294  52.192  1.00  0.00    -0.334 OA
HETATM    5  C5  UNL     1      24.480   3.009  52.634  1.00  0.00     0.168 C 
HETATM    6  C6  UNL     1      24.911   3.054  54.089  1.00  0.00     0.074 C 
HETATM    7  C7  UNL     1      25.537   2.298  51.843  1.00  0.00     0.209 C 
HETATM    8  N2  UNL     1      23.186   2.332  52.631  1.00  0.00    -0.309 N 
HETATM    9  C9  UNL     1      21.959   2.757  52.197  1.00  0.00     0.064 A 
HETATM   10  C10 UNL     1      20.974   1.819  52.302  1.00  0.00     0.001 A 
HETATM   11  C11 UNL     1      21.599   0.732  52.840  1.00  0.00     0.003 A 
HETATM   12  C12 UNL     1      21.064  -0.493  53.164  1.00  0.00     0.014 A 
HETATM   13  C13 UNL     1      21.891  -1.449  53.708  1.00  0.00     0.001 A 
HETATM   14  C14 UNL     1      23.217  -1.146  53.908  1.00  0.00     0.002 A 
HETATM   15  C15 UNL     1      23.673   0.101  53.558  1.00  0.00     0.030 A 
HETATM   16  C16 UNL     1      22.917   1.097  53.014  1.00  0.00     0.049 A 
HETATM   17  C17 UNL     1      19.829   2.209  51.828  1.00  0.00    -0.008 C 
HETATM   18  C18 UNL     1      18.867   3.075  51.211  1.00  0.00     0.061 C 
HETATM   19  C19 UNL     1      19.313   4.321  50.533  1.00  0.00    -0.083 C 
HETATM   20  C20 UNL     1      18.050   4.959  49.962  1.00  0.00     0.043 C 
HETATM   21  C21 UNL     1      20.301   5.182  50.177  1.00  0.00    -0.005 C 
HETATM   22  C22 UNL     1      21.708   5.623  50.146  1.00  0.00     0.152 C 
HETATM   23  N3  UNL     1      22.592   4.747  50.892  1.00  0.00    -0.358 N 
HETATM   24  C23 UNL     1      21.785   4.000  51.784  1.00  0.00     0.119 C 
ENDROOT
BRANCH   1  25
HETATM   25  N1  UNL     1      26.650   3.907  50.364  1.00  0.00     0.086 N 
HETATM   26  C1  UNL     1      27.066   4.201  49.023  1.00  0.00     0.307 C 
HETATM   27  H4  UNL     1      26.289   4.802  50.792  1.00  0.00     0.316 HD
ENDBRANCH   1  25
BRANCH   7  28
HETATM   28  O2  UNL     1      26.776   2.579  52.462  1.00  0.00    -0.384 OA
HETATM   29  C8  UNL     1      27.545   1.468  52.688  1.00  0.00     0.202 C 
ENDBRANCH   7  28
TORSDOF 2
ENDMDL
MODEL 9
REMARK VINA RESULT:      -7.6      6.151      9.430
REMARK  2 active torsions:
REMARK  status: ('A' for Active; 'I' for Inactive)
REMARK    1  A    between atoms: N1_2  and  C2_3 
REMARK    2  A    between atoms: C7_9  and  O2_10 
ROOT
HETATM    1  C2  UNL     1      26.000   9.348  45.728  1.00  0.00     0.257 C 
HETATM    2  C3  UNL     1      25.231   8.151  46.303  1.00  0.00     0.092 C 
HETATM    3  C4  UNL     1      24.944   8.497  47.734  1.00  0.00     0.228 C 
HETATM    4  O1  UNL     1      25.945   9.225  48.334  1.00  0.00    -0.334 OA
HETATM    5  C5  UNL     1      27.226   9.062  47.910  1.00  0.00     0.168 C 
HETATM    6  C6  UNL     1      28.101   9.955  48.772  1.00  0.00     0.074 C 
HETATM    7  C7  UNL     1      27.303   9.543  46.490  1.00  0.00     0.209 C 
HETATM    8  N2  UNL     1      27.740   7.709  48.101  1.00  0.00    -0.309 N 
HETATM    9  C9  UNL     1      27.124   6.580  48.573  1.00  0.00     0.064 A 
HETATM   10  C10 UNL     1      27.913   5.468  48.560  1.00  0.00     0.001 A 
HETATM   11  C11 UNL     1      29.105   5.905  48.062  1.00  0.00     0.003 A 
HETATM   12  C12 UNL     1      30.260   5.188  47.847  1.00  0.00     0.014 A 
HETATM   13  C13 UNL     1      31.356   5.846  47.337  1.00  0.00     0.001 A 
HETATM   14  C14 UNL     1      31.259   7.189  47.061  1.00  0.00     0.002 A 
HETATM   15  C15 UNL     1      30.069   7.832  47.304  1.00  0.00     0.030 A 
HETATM   16  C16 UNL     1      28.942   7.250  47.806  1.00  0.00     0.049 A 
HETATM   17  C17 UNL     1      27.300   4.389  48.946  1.00  0.00    -0.008 C 
HETATM   18  C18 UNL     1      26.227   3.561  49.415  1.00  0.00     0.061 C 
HETATM   19  C19 UNL     1      24.835   4.083  49.431  1.00  0.00    -0.083 C 
HETATM   20  C20 UNL     1      23.966   2.935  49.938  1.00  0.00     0.043 C 
HETATM   21  C21 UNL     1      23.950   5.092  49.221  1.00  0.00    -0.005 C 
HETATM   22  C22 UNL     1      23.601   6.469  48.824  1.00  0.00     0.152 C 
HETATM   23  N3  UNL     1      24.762   7.267  48.475  1.00  0.00    -0.358 N 
HETATM   24  C23 UNL     1      25.892   6.636  49.046  1.00  0.00     0.119 C 
ENDROOT
BRANCH   1  25
HETATM   25  N1  UNL     1      25.136  10.495  45.848  1.00  0.00     0.086 N 
HETATM   26  C1  UNL     1      24.436  10.794  44.632  1.00  0.00     0.307 C 
HETATM   27  H4  UNL     1      24.417  10.377  46.612  1.00  0.00     0.316 HD
ENDBRANCH   1  25
BRANCH   7  28
HETATM   28  O2  UNL     1      27.482  10.944  46.538  1.00  0.00    -0.384 OA
HETATM   29  C8  UNL     1      28.405  11.413  45.640  1.00  0.00     0.202 C 
ENDBRANCH   7  28
TORSDOF 2
ENDMDL
