MODEL 1
REMARK VINA RESULT:      -8.4      0.000      0.000
REMARK  9 active torsions:
REMARK  status: ('A' for Active; 'I' for Inactive)
REMARK    1  A    between atoms: C5_6  and  N2_7 
REMARK    2  A    between atoms: N2_7  and  C6_8 
REMARK    3  A    between atoms: C7_9  and  C8_10 
REMARK    4  A    between atoms: C10_13  and  N4_14 
REMARK    5  A    between atoms: C11_15  and  O1_16 
REMARK    6  A    between atoms: O1_16  and  C12_17 
REMARK    7  A    between atoms: C14_20  and  O2_21 
REMARK    8  A    between atoms: O2_21  and  C15_22 
REMARK    9  A    between atoms: C16_23  and  C17_24 
ROOT
HETATM    1  C8  UNL     1      22.363  -0.728  53.936  1.00  0.00    -0.000 A 
HETATM    2  C9  UNL     1      21.376  -1.580  54.390  1.00  0.00     0.131 A 
HETATM    3  N3  UNL     1      20.124  -1.380  53.908  1.00  0.00    -0.245 NA
HETATM    4  C10 UNL     1      19.846  -0.401  53.029  1.00  0.00     0.134 A 
HETATM    5  C11 UNL     1      20.787   0.483  52.538  1.00  0.00     0.116 A 
HETATM    6  C21 UNL     1      22.073   0.275  53.035  1.00  0.00     0.054 A 
ENDROOT
BRANCH   1   7
HETATM    7  C7  UNL     1      23.769  -0.830  54.373  1.00  0.00     0.039 A 
HETATM    8  C6  UNL     1      24.998  -0.686  53.900  1.00  0.00     0.136 A 
HETATM    9  N5  UNL     1      25.560  -1.023  55.156  1.00  0.00    -0.242 NA
HETATM   10  C22 UNL     1      24.385  -1.177  55.665  1.00  0.00     0.135 A 
BRANCH   8  11
HETATM   11  N2  UNL     1      25.583  -0.337  52.652  1.00  0.00    -0.367 N 
HETATM   12  H11 UNL     1      25.528  -1.066  51.893  1.00  0.00     0.161 HD
BRANCH  11  13
HETATM   13  C5  UNL     1      26.228   0.953  52.409  1.00  0.00     0.117 C 
HETATM   14  C2  UNL     1      25.785   1.936  53.443  1.00  0.00     0.239 C 
HETATM   15  C1  UNL     1      24.812   2.959  52.892  1.00  0.00     0.045 C 
HETATM   16  N1  UNL     1      26.956   2.577  53.997  1.00  0.00     0.089 N 
HETATM   17  C3  UNL     1      27.987   1.564  53.925  1.00  0.00     0.272 C 
HETATM   18  H5  UNL     1      26.730   2.854  54.978  1.00  0.00     0.316 HD
HETATM   19  C4  UNL     1      27.708   0.803  52.645  1.00  0.00     0.057 C 
ENDBRANCH  11  13
ENDBRANCH   8  11
ENDBRANCH   1   7
BRANCH   5  20
HETATM   20  O1  UNL     1      20.386   1.438  51.645  1.00  0.00    -0.310 OA
BRANCH  20  21
HETATM   21  C12 UNL     1      21.125   1.903  50.570  1.00  0.00     0.078 A 
HETATM   22  C13 UNL     1      21.681   3.095  50.706  1.00  0.00     0.097 A 
HETATM   23 CL1  UNL     1      21.501   4.048  52.163  1.00  0.00    -0.079 Cl
HETATM   24  C14 UNL     1      22.463   3.646  49.612  1.00  0.00     0.095 A 
HETATM   25  C18 UNL     1      22.569   2.899  48.523  1.00  0.00     0.013 A 
HETATM   26  C19 UNL     1      21.996   1.558  48.251  1.00  0.00     0.037 A 
HETATM   27  C20 UNL     1      21.201   1.000  49.400  1.00  0.00     0.071 A 
BRANCH  24  28
HETATM   28  O2  UNL     1      23.071   4.889  49.691  1.00  0.00    -0.322 OA
BRANCH  28  29
HETATM   29  C15 UNL     1      24.251   5.168  49.058  1.00  0.00     0.141 C 
HETATM   30  C16 UNL     1      25.494   4.944  49.447  1.00  0.00     0.029 C 
BRANCH  30  31
HETATM   31  C17 UNL     1      26.805   5.220  48.813  1.00  0.00     0.251 C 
HETATM   32  F1  UNL     1      27.487   4.006  48.768  1.00  0.00    -0.251 F 
ENDBRANCH  30  31
ENDBRANCH  28  29
ENDBRANCH  24  28
ENDBRANCH  20  21
ENDBRANCH   5  20
BRANCH   4  33
HETATM   33  N4  UNL     1      18.493  -0.300  52.603  1.00  0.00    -0.285 NA
HETATM   34  H13 UNL     1      18.239  -1.304  52.430  1.00  0.00     0.125 HD
HETATM   35  H14 UNL     1      17.658  -0.825  52.288  1.00  0.00     0.125 HD
ENDBRANCH   4  33
TORSDOF 9
ENDMDL
MODEL 2
REMARK VINA RESULT:      -7.8      3.837      6.810
REMARK  9 active torsions:
REMARK  status: ('A' for Active; 'I' for Inactive)
REMARK    1  A    between atoms: C5_6  and  N2_7 
REMARK    2  A    between atoms: N2_7  and  C6_8 
REMARK    3  A    between atoms: C7_9  and  C8_10 
REMARK    4  A    between atoms: C10_13  and  N4_14 
REMARK    5  A    between atoms: C11_15  and  O1_16 
REMARK    6  A    between atoms: O1_16  and  C12_17 
REMARK    7  A    between atoms: C14_20  and  O2_21 
REMARK    8  A    between atoms: O2_21  and  C15_22 
REMARK    9  A    between atoms: C16_23  and  C17_24 
ROOT
HETATM    1  C8  UNL     1      23.937   3.521  51.120  1.00  0.00    -0.000 A 
HETATM    2  C9  UNL     1      23.373   4.650  51.678  1.00  0.00     0.131 A 
HETATM    3  N3  UNL     1      22.077   4.560  52.068  1.00  0.00    -0.245 NA
HETATM    4  C10 UNL     1      21.366   3.428  51.923  1.00  0.00     0.134 A 
HETATM    5  C11 UNL     1      21.872   2.266  51.373  1.00  0.00     0.116 A 
HETATM    6  C21 UNL     1      23.205   2.362  50.973  1.00  0.00     0.054 A 
ENDROOT
BRANCH   1   7
HETATM    7  C7  UNL     1      25.337   3.475  50.654  1.00  0.00     0.039 A 
HETATM    8  C6  UNL     1      26.450   2.779  50.832  1.00  0.00     0.136 A 
HETATM    9  N5  UNL     1      27.149   3.590  49.905  1.00  0.00    -0.242 NA
HETATM   10  C22 UNL     1      26.092   4.299  49.695  1.00  0.00     0.135 A 
BRANCH   8  11
HETATM   11  N2  UNL     1      26.847   1.663  51.619  1.00  0.00    -0.367 N 
HETATM   12  H11 UNL     1      27.078   0.781  51.092  1.00  0.00     0.161 HD
BRANCH  11  13
HETATM   13  C5  UNL     1      26.939   1.712  53.078  1.00  0.00     0.117 C 
HETATM   14  C2  UNL     1      27.013   0.322  53.621  1.00  0.00     0.239 C 
HETATM   15  C1  UNL     1      25.722  -0.112  54.283  1.00  0.00     0.045 C 
HETATM   16  N1  UNL     1      28.122   0.250  54.546  1.00  0.00     0.089 N 
HETATM   17  C3  UNL     1      29.085   1.197  54.026  1.00  0.00     0.272 C 
HETATM   18  H5  UNL     1      28.477  -0.732  54.538  1.00  0.00     0.316 HD
HETATM   19  C4  UNL     1      28.258   2.332  53.457  1.00  0.00     0.057 C 
ENDBRANCH  11  13
ENDBRANCH   8  11
ENDBRANCH   1   7
BRANCH   5  20
HETATM   20  O1  UNL     1      21.053   1.175  51.279  1.00  0.00    -0.310 OA
BRANCH  20  21
HETATM   21  C12 UNL     1      20.856   0.223  52.266  1.00  0.00     0.078 A 
HETATM   22  C13 UNL     1      19.607  -0.158  52.479  1.00  0.00     0.097 A 
HETATM   23 CL1  UNL     1      18.263   0.497  51.568  1.00  0.00    -0.079 Cl
HETATM   24  C14 UNL     1      19.329  -1.146  53.507  1.00  0.00     0.095 A 
HETATM   25  C18 UNL     1      20.370  -1.612  54.180  1.00  0.00     0.013 A 
HETATM   26  C19 UNL     1      21.806  -1.265  54.037  1.00  0.00     0.037 A 
HETATM   27  C20 UNL     1      22.074  -0.250  52.959  1.00  0.00     0.071 A 
BRANCH  24  28
HETATM   28  O2  UNL     1      18.043  -1.588  53.779  1.00  0.00    -0.322 OA
BRANCH  28  29
HETATM   29  C15 UNL     1      17.649  -2.877  53.549  1.00  0.00     0.141 C 
HETATM   30  C16 UNL     1      16.466  -3.349  53.194  1.00  0.00     0.029 C 
BRANCH  30  31
HETATM   31  C17 UNL     1      15.977  -4.724  52.931  1.00  0.00     0.251 C 
HETATM   32  F1  UNL     1      16.723  -5.572  53.748  1.00  0.00    -0.251 F 
ENDBRANCH  30  31
ENDBRANCH  28  29
ENDBRANCH  24  28
ENDBRANCH  20  21
ENDBRANCH   5  20
BRANCH   4  33
HETATM   33  N4  UNL     1      20.018   3.467  52.373  1.00  0.00    -0.285 NA
HETATM   34  H13 UNL     1      19.538   2.826  51.695  1.00  0.00     0.125 HD
HETATM   35  H14 UNL     1      19.056   3.118  52.214  1.00  0.00     0.125 HD
ENDBRANCH   4  33
TORSDOF 9
ENDMDL
MODEL 3
REMARK VINA RESULT:      -7.7      2.456      3.138
REMARK  9 active torsions:
REMARK  status: ('A' for Active; 'I' for Inactive)
REMARK    1  A    between atoms: C5_6  and  N2_7 
REMARK    2  A    between atoms: N2_7  and  C6_8 
REMARK    3  A    between atoms: C7_9  and  C8_10 
REMARK    4  A    between atoms: C10_13  and  N4_14 
REMARK    5  A    between atoms: C11_15  and  O1_16 
REMARK    6  A    between atoms: O1_16  and  C12_17 
REMARK    7  A    between atoms: C14_20  and  O2_21 
REMARK    8  A    between atoms: O2_21  and  C15_22 
REMARK    9  A    between atoms: C16_23  and  C17_24 
ROOT
HETATM    1  C8  UNL     1      23.011   0.112  52.974  1.00  0.00    -0.000 A 
HETATM    2  C9  UNL     1      21.680  -0.193  53.172  1.00  0.00     0.131 A 
HETATM    3  N3  UNL     1      20.785   0.389  52.334  1.00  0.00    -0.245 NA
HETATM    4  C10 UNL     1      21.167   1.225  51.353  1.00  0.00     0.134 A 
HETATM    5  C11 UNL     1      22.482   1.570  51.104  1.00  0.00     0.116 A 
HETATM    6  C21 UNL     1      23.398   0.970  51.967  1.00  0.00     0.054 A 
ENDROOT
BRANCH   1   7
HETATM    7  C7  UNL     1      24.091  -0.449  53.808  1.00  0.00     0.039 A 
HETATM    8  C6  UNL     1      25.353  -0.845  53.715  1.00  0.00     0.136 A 
HETATM    9  N5  UNL     1      25.384  -1.191  55.088  1.00  0.00    -0.242 NA
HETATM   10  C22 UNL     1      24.157  -0.820  55.232  1.00  0.00     0.135 A 
BRANCH   8  11
HETATM   11  N2  UNL     1      26.332  -0.918  52.686  1.00  0.00    -0.367 N 
HETATM   12  H11 UNL     1      26.146  -1.612  51.916  1.00  0.00     0.161 HD
BRANCH  11  13
HETATM   13  C5  UNL     1      27.536  -0.087  52.674  1.00  0.00     0.117 C 
HETATM   14  C2  UNL     1      27.265   1.197  53.388  1.00  0.00     0.239 C 
HETATM   15  C1  UNL     1      27.132   2.371  52.439  1.00  0.00     0.045 C 
HETATM   16  N1  UNL     1      28.322   1.420  54.347  1.00  0.00     0.089 N 
HETATM   17  C3  UNL     1      28.725   0.091  54.753  1.00  0.00     0.272 C 
HETATM   18  H5  UNL     1      27.924   1.979  55.134  1.00  0.00     0.316 HD
HETATM   19  C4  UNL     1      28.594  -0.761  53.507  1.00  0.00     0.057 C 
ENDBRANCH  11  13
ENDBRANCH   8  11
ENDBRANCH   1   7
BRANCH   5  20
HETATM   20  O1  UNL     1      22.749   2.431  50.075  1.00  0.00    -0.310 OA
BRANCH  20  21
HETATM   21  C12 UNL     1      23.703   3.436  50.089  1.00  0.00     0.078 A 
HETATM   22  C13 UNL     1      23.356   4.572  50.671  1.00  0.00     0.097 A 
HETATM   23 CL1  UNL     1      21.779   4.808  51.391  1.00  0.00    -0.079 Cl
HETATM   24  C14 UNL     1      24.307   5.671  50.711  1.00  0.00     0.095 A 
HETATM   25  C18 UNL     1      25.486   5.457  50.148  1.00  0.00     0.013 A 
HETATM   26  C19 UNL     1      25.989   4.238  49.468  1.00  0.00     0.037 A 
HETATM   27  C20 UNL     1      24.995   3.108  49.448  1.00  0.00     0.071 A 
BRANCH  24  28
HETATM   28  O2  UNL     1      24.005   6.886  51.306  1.00  0.00    -0.322 OA
BRANCH  28  29
HETATM   29  C15 UNL     1      23.634   7.984  50.581  1.00  0.00     0.141 C 
HETATM   30  C16 UNL     1      22.706   8.107  49.647  1.00  0.00     0.029 C 
BRANCH  30  31
HETATM   31  C17 UNL     1      22.258   9.259  48.829  1.00  0.00     0.251 C 
HETATM   32  F1  UNL     1      21.175   9.824  49.500  1.00  0.00    -0.251 F 
ENDBRANCH  30  31
ENDBRANCH  28  29
ENDBRANCH  24  28
ENDBRANCH  20  21
ENDBRANCH   5  20
BRANCH   4  33
HETATM   33  N4  UNL     1      20.130   1.767  50.546  1.00  0.00    -0.285 NA
HETATM   34  H13 UNL     1      20.259   2.799  50.680  1.00  0.00     0.125 HD
HETATM   35  H14 UNL     1      19.676   2.636  50.211  1.00  0.00     0.125 HD
ENDBRANCH   4  33
TORSDOF 9
ENDMDL
MODEL 4
REMARK VINA RESULT:      -7.6      1.414      1.827
REMARK  9 active torsions:
REMARK  status: ('A' for Active; 'I' for Inactive)
REMARK    1  A    between atoms: C5_6  and  N2_7 
REMARK    2  A    between atoms: N2_7  and  C6_8 
REMARK    3  A    between atoms: C7_9  and  C8_10 
REMARK    4  A    between atoms: C10_13  and  N4_14 
REMARK    5  A    between atoms: C11_15  and  O1_16 
REMARK    6  A    between atoms: O1_16  and  C12_17 
REMARK    7  A    between atoms: C14_20  and  O2_21 
REMARK    8  A    between atoms: O2_21  and  C15_22 
REMARK    9  A    between atoms: C16_23  and  C17_24 
ROOT
HETATM    1  C8  UNL     1      22.978  -0.670  54.124  1.00  0.00    -0.000 A 
HETATM    2  C9  UNL     1      22.203  -1.602  54.785  1.00  0.00     0.131 A 
HETATM    3  N3  UNL     1      20.869  -1.577  54.536  1.00  0.00    -0.245 NA
HETATM    4  C10 UNL     1      20.318  -0.691  53.688  1.00  0.00     0.134 A 
HETATM    5  C11 UNL     1      21.039   0.264  52.998  1.00  0.00     0.116 A 
HETATM    6  C21 UNL     1      22.409   0.236  53.255  1.00  0.00     0.054 A 
ENDROOT
BRANCH   1   7
HETATM    7  C7  UNL     1      24.441  -0.582  54.297  1.00  0.00     0.039 A 
HETATM    8  C6  UNL     1      25.515  -0.105  53.684  1.00  0.00     0.136 A 
HETATM    9  N5  UNL     1      26.360  -0.578  54.718  1.00  0.00    -0.242 NA
HETATM   10  C22 UNL     1      25.348  -1.061  55.354  1.00  0.00     0.135 A 
BRANCH   8  11
HETATM   11  N2  UNL     1      25.778   0.603  52.479  1.00  0.00    -0.367 N 
HETATM   12  H11 UNL     1      25.782   0.031  51.595  1.00  0.00     0.161 HD
BRANCH  11  13
HETATM   13  C5  UNL     1      26.033   2.043  52.442  1.00  0.00     0.117 C 
HETATM   14  C2  UNL     1      25.418   2.629  51.214  1.00  0.00     0.239 C 
HETATM   15  C1  UNL     1      26.449   2.994  50.165  1.00  0.00     0.045 C 
HETATM   16  N1  UNL     1      24.636   3.782  51.599  1.00  0.00     0.089 N 
HETATM   17  C3  UNL     1      24.162   3.466  52.929  1.00  0.00     0.272 C 
HETATM   18  H5  UNL     1      23.861   3.884  50.907  1.00  0.00     0.316 HD
HETATM   19  C4  UNL     1      25.289   2.693  53.579  1.00  0.00     0.057 C 
ENDBRANCH  11  13
ENDBRANCH   8  11
ENDBRANCH   1   7
BRANCH   5  20
HETATM   20  O1  UNL     1      20.367   1.112  52.160  1.00  0.00    -0.310 OA
BRANCH  20  21
HETATM   21  C12 UNL     1      20.820   1.559  50.929  1.00  0.00     0.078 A 
HETATM   22  C13 UNL     1      20.904   2.869  50.771  1.00  0.00     0.097 A 
HETATM   23 CL1  UNL     1      20.472   3.992  52.042  1.00  0.00    -0.079 Cl
HETATM   24  C14 UNL     1      21.362   3.405  49.501  1.00  0.00     0.095 A 
HETATM   25  C18 UNL     1      21.672   2.525  48.562  1.00  0.00     0.013 A 
HETATM   26  C19 UNL     1      21.618   1.043  48.617  1.00  0.00     0.037 A 
HETATM   27  C20 UNL     1      21.153   0.507  49.943  1.00  0.00     0.071 A 
BRANCH  24  28
HETATM   28  O2  UNL     1      21.474   4.768  49.272  1.00  0.00    -0.322 OA
BRANCH  28  29
HETATM   29  C15 UNL     1      22.656   5.440  49.417  1.00  0.00     0.141 C 
HETATM   30  C16 UNL     1      23.706   5.488  48.615  1.00  0.00     0.029 C 
BRANCH  30  31
HETATM   31  C17 UNL     1      25.007   6.191  48.714  1.00  0.00     0.251 C 
HETATM   32  F1  UNL     1      25.115   6.988  47.576  1.00  0.00    -0.251 F 
ENDBRANCH  30  31
ENDBRANCH  28  29
ENDBRANCH  24  28
ENDBRANCH  20  21
ENDBRANCH   5  20
BRANCH   4  33
HETATM   33  N4  UNL     1      18.910  -0.774  53.517  1.00  0.00    -0.285 NA
HETATM   34  H13 UNL     1      18.699   0.103  52.980  1.00  0.00     0.125 HD
HETATM   35  H14 UNL     1      18.071  -0.313  53.121  1.00  0.00     0.125 HD
ENDBRANCH   4  33
TORSDOF 9
ENDMDL
MODEL 5
REMARK VINA RESULT:      -7.6      1.379      1.831
REMARK  9 active torsions:
REMARK  status: ('A' for Active; 'I' for Inactive)
REMARK    1  A    between atoms: C5_6  and  N2_7 
REMARK    2  A    between atoms: N2_7  and  C6_8 
REMARK    3  A    between atoms: C7_9  and  C8_10 
REMARK    4  A    between atoms: C10_13  and  N4_14 
REMARK    5  A    between atoms: C11_15  and  O1_16 
REMARK    6  A    between atoms: O1_16  and  C12_17 
REMARK    7  A    between atoms: C14_20  and  O2_21 
REMARK    8  A    between atoms: O2_21  and  C15_22 
REMARK    9  A    between atoms: C16_23  and  C17_24 
ROOT
HETATM    1  C8  UNL     1      22.135  -0.614  53.657  1.00  0.00    -0.000 A 
HETATM    2  C9  UNL     1      21.098  -1.159  54.387  1.00  0.00     0.131 A 
HETATM    3  N3  UNL     1      19.848  -1.018  53.877  1.00  0.00    -0.245 NA
HETATM    4  C10 UNL     1      19.620  -0.377  52.717  1.00  0.00     0.134 A 
HETATM    5  C11 UNL     1      20.613   0.189  51.942  1.00  0.00     0.116 A 
HETATM    6  C21 UNL     1      21.896   0.042  52.468  1.00  0.00     0.054 A 
ENDROOT
BRANCH   1   7
HETATM    7  C7  UNL     1      23.544  -0.695  54.090  1.00  0.00     0.039 A 
HETATM    8  C6  UNL     1      24.750  -0.291  53.719  1.00  0.00     0.136 A 
HETATM    9  N5  UNL     1      25.345  -0.924  54.838  1.00  0.00    -0.242 NA
HETATM   10  C22 UNL     1      24.194  -1.341  55.242  1.00  0.00     0.135 A 
BRANCH   8  11
HETATM   11  N2  UNL     1      25.293   0.469  52.646  1.00  0.00    -0.367 N 
HETATM   12  H11 UNL     1      25.430  -0.043  51.736  1.00  0.00     0.161 HD
BRANCH  11  13
HETATM   13  C5  UNL     1      25.650   1.882  52.774  1.00  0.00     0.117 C 
HETATM   14  C2  UNL     1      27.001   2.113  52.180  1.00  0.00     0.239 C 
HETATM   15  C1  UNL     1      28.067   2.333  53.234  1.00  0.00     0.045 C 
HETATM   16  N1  UNL     1      26.919   3.239  51.279  1.00  0.00     0.089 N 
HETATM   17  C3  UNL     1      25.570   3.185  50.759  1.00  0.00     0.272 C 
HETATM   18  H5  UNL     1      27.643   3.105  50.538  1.00  0.00     0.316 HD
HETATM   19  C4  UNL     1      24.719   2.693  51.911  1.00  0.00     0.057 C 
ENDBRANCH  11  13
ENDBRANCH   8  11
ENDBRANCH   1   7
BRANCH   5  20
HETATM   20  O1  UNL     1      20.259   0.815  50.779  1.00  0.00    -0.310 OA
BRANCH  20  21
HETATM   21  C12 UNL     1      21.021   1.752  50.100  1.00  0.00     0.078 A 
HETATM   22  C13 UNL     1      20.962   2.996  50.546  1.00  0.00     0.097 A 
HETATM   23 CL1  UNL     1      19.979   3.450  51.920  1.00  0.00    -0.079 Cl
HETATM   24  C14 UNL     1      21.729   4.031  49.873  1.00  0.00     0.095 A 
HETATM   25  C18 UNL     1      22.454   3.651  48.832  1.00  0.00     0.013 A 
HETATM   26  C19 UNL     1      22.600   2.298  48.239  1.00  0.00     0.037 A 
HETATM   27  C20 UNL     1      21.808   1.239  48.957  1.00  0.00     0.071 A 
BRANCH  24  28
HETATM   28  O2  UNL     1      21.711   5.353  50.291  1.00  0.00    -0.322 OA
BRANCH  28  29
HETATM   29  C15 UNL     1      22.836   5.997  50.726  1.00  0.00     0.141 C 
HETATM   30  C16 UNL     1      23.673   6.779  50.066  1.00  0.00     0.029 C 
BRANCH  30  31
HETATM   31  C17 UNL     1      24.900   7.502  50.477  1.00  0.00     0.251 C 
HETATM   32  F1  UNL     1      25.956   6.606  50.328  1.00  0.00    -0.251 F 
ENDBRANCH  30  31
ENDBRANCH  28  29
ENDBRANCH  24  28
ENDBRANCH  20  21
ENDBRANCH   5  20
BRANCH   4  33
HETATM   33  N4  UNL     1      18.265  -0.299  52.296  1.00  0.00    -0.285 NA
HETATM   34  H13 UNL     1      18.332  -0.554  51.280  1.00  0.00     0.125 HD
HETATM   35  H14 UNL     1      17.613  -0.406  51.498  1.00  0.00     0.125 HD
ENDBRANCH   4  33
TORSDOF 9
ENDMDL
MODEL 6
REMARK VINA RESULT:      -7.6      3.252      6.050
REMARK  9 active torsions:
REMARK  status: ('A' for Active; 'I' for Inactive)
REMARK    1  A    between atoms: C5_6  and  N2_7 
REMARK    2  A    between atoms: N2_7  and  C6_8 
REMARK    3  A    between atoms: C7_9  and  C8_10 
REMARK    4  A    between atoms: C10_13  and  N4_14 
REMARK    5  A    between atoms: C11_15  and  O1_16 
REMARK    6  A    between atoms: O1_16  and  C12_17 
REMARK    7  A    between atoms: C14_20  and  O2_21 
REMARK    8  A    between atoms: O2_21  and  C15_22 
REMARK    9  A    between atoms: C16_23  and  C17_24 
ROOT
HETATM    1  C8  UNL     1      19.828   0.434  51.935  1.00  0.00    -0.000 A 
HETATM    2  C9  UNL     1      19.011  -0.152  52.880  1.00  0.00     0.131 A 
HETATM    3  N3  UNL     1      19.617  -0.905  53.833  1.00  0.00    -0.245 NA
HETATM    4  C10 UNL     1      20.950  -1.078  53.863  1.00  0.00     0.134 A 
HETATM    5  C11 UNL     1      21.820  -0.519  52.947  1.00  0.00     0.116 A 
HETATM    6  C21 UNL     1      21.195   0.254  51.970  1.00  0.00     0.054 A 
ENDROOT
BRANCH   1   7
HETATM    7  C7  UNL     1      19.307   1.280  50.843  1.00  0.00     0.039 A 
HETATM    8  C6  UNL     1      19.440   2.500  50.344  1.00  0.00     0.136 A 
HETATM    9  N5  UNL     1      18.486   2.229  49.333  1.00  0.00    -0.242 NA
HETATM   10  C22 UNL     1      18.319   1.031  49.779  1.00  0.00     0.135 A 
BRANCH   8  11
HETATM   11  N2  UNL     1      20.209   3.656  50.652  1.00  0.00    -0.367 N 
HETATM   12  H11 UNL     1      19.682   4.567  50.695  1.00  0.00     0.161 HD
BRANCH  11  13
HETATM   13  C5  UNL     1      21.650   3.609  50.899  1.00  0.00     0.117 C 
HETATM   14  C2  UNL     1      22.382   4.065  49.679  1.00  0.00     0.239 C 
HETATM   15  C1  UNL     1      23.045   2.921  48.939  1.00  0.00     0.045 C 
HETATM   16  N1  UNL     1      23.351   5.062  50.073  1.00  0.00     0.089 N 
HETATM   17  C3  UNL     1      22.744   5.724  51.208  1.00  0.00     0.272 C 
HETATM   18  H5  UNL     1      23.493   5.703  49.260  1.00  0.00     0.316 HD
HETATM   19  C4  UNL     1      21.992   4.637  51.946  1.00  0.00     0.057 C 
ENDBRANCH  11  13
ENDBRANCH   8  11
ENDBRANCH   1   7
BRANCH   5  20
HETATM   20  O1  UNL     1      23.159  -0.765  53.082  1.00  0.00    -0.310 OA
BRANCH  20  21
HETATM   21  C12 UNL     1      24.160   0.193  53.095  1.00  0.00     0.078 A 
HETATM   22  C13 UNL     1      25.079   0.074  54.039  1.00  0.00     0.097 A 
HETATM   23 CL1  UNL     1      25.045  -1.220  55.217  1.00  0.00    -0.079 Cl
HETATM   24  C14 UNL     1      26.152   1.051  54.116  1.00  0.00     0.095 A 
HETATM   25  C18 UNL     1      26.139   2.019  53.213  1.00  0.00     0.013 A 
HETATM   26  C19 UNL     1      25.171   2.259  52.115  1.00  0.00     0.037 A 
HETATM   27  C20 UNL     1      24.075   1.231  52.044  1.00  0.00     0.071 A 
BRANCH  24  28
HETATM   28  O2  UNL     1      27.145   0.982  55.081  1.00  0.00    -0.322 OA
BRANCH  28  29
HETATM   29  C15 UNL     1      28.262   0.208  54.928  1.00  0.00     0.141 C 
HETATM   30  C16 UNL     1      28.958  -0.067  53.839  1.00  0.00     0.029 C 
BRANCH  30  31
HETATM   31  C17 UNL     1      30.167  -0.892  53.608  1.00  0.00     0.251 C 
HETATM   32  F1  UNL     1      29.793  -2.216  53.832  1.00  0.00    -0.251 F 
ENDBRANCH  30  31
ENDBRANCH  28  29
ENDBRANCH  24  28
ENDBRANCH  20  21
ENDBRANCH   5  20
BRANCH   4  33
HETATM   33  N4  UNL     1      21.457  -1.890  54.914  1.00  0.00    -0.285 NA
HETATM   34  H13 UNL     1      21.749  -2.759  54.403  1.00  0.00     0.125 HD
HETATM   35  H14 UNL     1      21.884  -2.802  55.156  1.00  0.00     0.125 HD
ENDBRANCH   4  33
TORSDOF 9
ENDMDL
MODEL 7
REMARK VINA RESULT:      -7.6      3.494      5.209
REMARK  9 active torsions:
REMARK  status: ('A' for Active; 'I' for Inactive)
REMARK    1  A    between atoms: C5_6  and  N2_7 
REMARK    2  A    between atoms: N2_7  and  C6_8 
REMARK    3  A    between atoms: C7_9  and  C8_10 
REMARK    4  A    between atoms: C10_13  and  N4_14 
REMARK    5  A    between atoms: C11_15  and  O1_16 
REMARK    6  A    between atoms: O1_16  and  C12_17 
REMARK    7  A    between atoms: C14_20  and  O2_21 
REMARK    8  A    between atoms: O2_21  and  C15_22 
REMARK    9  A    between atoms: C16_23  and  C17_24 
ROOT
HETATM    1  C8  UNL     1      23.303   1.873  51.361  1.00  0.00    -0.000 A 
HETATM    2  C9  UNL     1      22.433   1.630  50.318  1.00  0.00     0.131 A 
HETATM    3  N3  UNL     1      22.298   2.611  49.390  1.00  0.00    -0.245 NA
HETATM    4  C10 UNL     1      22.976   3.769  49.474  1.00  0.00     0.134 A 
HETATM    5  C11 UNL     1      23.861   4.072  50.491  1.00  0.00     0.116 A 
HETATM    6  C21 UNL     1      23.997   3.061  51.442  1.00  0.00     0.054 A 
ENDROOT
BRANCH   1   7
HETATM    7  C7  UNL     1      23.550   0.895  52.439  1.00  0.00     0.039 A 
HETATM    8  C6  UNL     1      24.478   0.564  53.325  1.00  0.00     0.136 A 
HETATM    9  N5  UNL     1      23.675  -0.489  53.827  1.00  0.00    -0.242 NA
HETATM   10  C22 UNL     1      22.741  -0.208  52.984  1.00  0.00     0.135 A 
BRANCH   8  11
HETATM   11  N2  UNL     1      25.772   1.035  53.679  1.00  0.00    -0.367 N 
HETATM   12  H11 UNL     1      25.810   1.770  54.433  1.00  0.00     0.161 HD
BRANCH  11  13
HETATM   13  C5  UNL     1      26.997   0.544  53.047  1.00  0.00     0.117 C 
HETATM   14  C2  UNL     1      27.840  -0.154  54.065  1.00  0.00     0.239 C 
HETATM   15  C1  UNL     1      29.051   0.660  54.471  1.00  0.00     0.045 C 
HETATM   16  N1  UNL     1      28.231  -1.439  53.531  1.00  0.00     0.089 N 
HETATM   17  C3  UNL     1      27.127  -1.825  52.680  1.00  0.00     0.272 C 
HETATM   18  H5  UNL     1      28.365  -2.088  54.338  1.00  0.00     0.316 HD
HETATM   19  C4  UNL     1      26.631  -0.535  52.062  1.00  0.00     0.057 C 
ENDBRANCH  11  13
ENDBRANCH   8  11
ENDBRANCH   1   7
BRANCH   5  20
HETATM   20  O1  UNL     1      24.494   5.283  50.468  1.00  0.00    -0.310 OA
BRANCH  20  21
HETATM   21  C12 UNL     1      25.667   5.571  49.788  1.00  0.00     0.078 A 
HETATM   22  C13 UNL     1      25.945   6.851  49.606  1.00  0.00     0.097 A 
HETATM   23 CL1  UNL     1      24.898   8.126  50.188  1.00  0.00    -0.079 Cl
HETATM   24  C14 UNL     1      27.155   7.221  48.891  1.00  0.00     0.095 A 
HETATM   25  C18 UNL     1      27.917   6.229  48.459  1.00  0.00     0.013 A 
HETATM   26  C19 UNL     1      27.713   4.765  48.598  1.00  0.00     0.037 A 
HETATM   27  C20 UNL     1      26.462   4.402  49.351  1.00  0.00     0.071 A 
BRANCH  24  28
HETATM   28  O2  UNL     1      27.505   8.544  48.667  1.00  0.00    -0.322 OA
BRANCH  28  29
HETATM   29  C15 UNL     1      28.807   8.956  48.600  1.00  0.00     0.141 C 
HETATM   30  C16 UNL     1      29.321  10.165  48.748  1.00  0.00     0.029 C 
BRANCH  30  31
HETATM   31  C17 UNL     1      30.712  10.673  48.687  1.00  0.00     0.251 C 
HETATM   32  F1  UNL     1      30.824  11.643  49.682  1.00  0.00    -0.251 F 
ENDBRANCH  30  31
ENDBRANCH  28  29
ENDBRANCH  24  28
ENDBRANCH  20  21
ENDBRANCH   5  20
BRANCH   4  33
HETATM   33  N4  UNL     1      22.744   4.712  48.436  1.00  0.00    -0.285 NA
HETATM   34  H13 UNL     1      22.571   5.597  48.974  1.00  0.00     0.125 HD
HETATM   35  H14 UNL     1      22.527   5.701  48.216  1.00  0.00     0.125 HD
ENDBRANCH   4  33
TORSDOF 9
ENDMDL
MODEL 8
REMARK VINA RESULT:      -7.5      2.117      2.657
REMARK  9 active torsions:
REMARK  status: ('A' for Active; 'I' for Inactive)
REMARK    1  A    between atoms: C5_6  and  N2_7 
REMARK    2  A    between atoms: N2_7  and  C6_8 
REMARK    3  A    between atoms: C7_9  and  C8_10 
REMARK    4  A    between atoms: C10_13  and  N4_14 
REMARK    5  A    between atoms: C11_15  and  O1_16 
REMARK    6  A    between atoms: O1_16  and  C12_17 
REMARK    7  A    between atoms: C14_20  and  O2_21 
REMARK    8  A    between atoms: O2_21  and  C15_22 
REMARK    9  A    between atoms: C16_23  and  C17_24 
ROOT
HETATM    1  C8  UNL     1      22.459  -0.800  54.128  1.00  0.00    -0.000 A 
HETATM    2  C9  UNL     1      21.566  -1.805  54.439  1.00  0.00     0.131 A 
HETATM    3  N3  UNL     1      20.285  -1.638  54.023  1.00  0.00    -0.245 NA
HETATM    4  C10 UNL     1      19.894  -0.548  53.340  1.00  0.00     0.134 A 
HETATM    5  C11 UNL     1      20.738   0.491  52.999  1.00  0.00     0.116 A 
HETATM    6  C21 UNL     1      22.054   0.316  53.427  1.00  0.00     0.054 A 
ENDROOT
BRANCH   1   7
HETATM    7  C7  UNL     1      23.883  -0.850  54.514  1.00  0.00     0.039 A 
HETATM    8  C6  UNL     1      25.089  -0.673  53.993  1.00  0.00     0.136 A 
HETATM    9  N5  UNL     1      25.707  -0.972  55.232  1.00  0.00    -0.242 NA
HETATM   10  C22 UNL     1      24.557  -1.156  55.787  1.00  0.00     0.135 A 
BRANCH   8  11
HETATM   11  N2  UNL     1      25.615  -0.324  52.719  1.00  0.00    -0.367 N 
HETATM   12  H11 UNL     1      25.635  -1.092  51.998  1.00  0.00     0.161 HD
BRANCH  11  13
HETATM   13  C5  UNL     1      26.106   1.017  52.402  1.00  0.00     0.117 C 
HETATM   14  C2  UNL     1      25.715   1.963  53.489  1.00  0.00     0.239 C 
HETATM   15  C1  UNL     1      24.593   2.893  53.074  1.00  0.00     0.045 C 
HETATM   16  N1  UNL     1      26.886   2.709  53.891  1.00  0.00     0.089 N 
HETATM   17  C3  UNL     1      27.985   1.791  53.681  1.00  0.00     0.272 C 
HETATM   18  H5  UNL     1      26.765   2.971  54.894  1.00  0.00     0.316 HD
HETATM   19  C4  UNL     1      27.612   1.001  52.444  1.00  0.00     0.057 C 
ENDBRANCH  11  13
ENDBRANCH   8  11
ENDBRANCH   1   7
BRANCH   5  20
HETATM   20  O1  UNL     1      20.225   1.549  52.301  1.00  0.00    -0.310 OA
BRANCH  20  21
HETATM   21  C12 UNL     1      20.964   2.502  51.618  1.00  0.00     0.078 A 
HETATM   22  C13 UNL     1      21.526   2.114  50.485  1.00  0.00     0.097 A 
HETATM   23 CL1  UNL     1      21.355   0.485  49.869  1.00  0.00    -0.079 Cl
HETATM   24  C14 UNL     1      22.322   3.061  49.724  1.00  0.00     0.095 A 
HETATM   25  C18 UNL     1      22.435   4.281  50.227  1.00  0.00     0.013 A 
HETATM   26  C19 UNL     1      21.859   4.833  51.478  1.00  0.00     0.037 A 
HETATM   27  C20 UNL     1      21.028   3.841  52.245  1.00  0.00     0.071 A 
BRANCH  24  28
HETATM   28  O2  UNL     1      22.937   2.717  48.530  1.00  0.00    -0.322 OA
BRANCH  28  29
HETATM   29  C15 UNL     1      22.288   2.780  47.328  1.00  0.00     0.141 C 
HETATM   30  C16 UNL     1      21.822   3.829  46.672  1.00  0.00     0.029 C 
BRANCH  30  31
HETATM   31  C17 UNL     1      21.114   3.963  45.376  1.00  0.00     0.251 C 
HETATM   32  F1  UNL     1      19.952   4.688  45.633  1.00  0.00    -0.251 F 
ENDBRANCH  30  31
ENDBRANCH  28  29
ENDBRANCH  24  28
ENDBRANCH  20  21
ENDBRANCH   5  20
BRANCH   4  33
HETATM   33  N4  UNL     1      18.524  -0.497  52.965  1.00  0.00    -0.285 NA
HETATM   34  H13 UNL     1      18.115   0.133  53.699  1.00  0.00     0.125 HD
HETATM   35  H14 UNL     1      17.591  -0.109  53.194  1.00  0.00     0.125 HD
ENDBRANCH   4  33
TORSDOF 9
ENDMDL
MODEL 9
REMARK VINA RESULT:      -7.5      2.271      2.896
REMARK  9 active torsions:
REMARK  status: ('A' for Active; 'I' for Inactive)
REMARK    1  A    between atoms: C5_6  and  N2_7 
REMARK    2  A    between atoms: N2_7  and  C6_8 
REMARK    3  A    between atoms: C7_9  and  C8_10 
REMARK    4  A    between atoms: C10_13  and  N4_14 
REMARK    5  A    between atoms: C11_15  and  O1_16 
REMARK    6  A    between atoms: O1_16  and  C12_17 
REMARK    7  A    between atoms: C14_20  and  O2_21 
REMARK    8  A    between atoms: O2_21  and  C15_22 
REMARK    9  A    between atoms: C16_23  and  C17_24 
ROOT
HETATM    1  C8  UNL     1      23.146  -0.024  52.878  1.00  0.00    -0.000 A 
HETATM    2  C9  UNL     1      21.855  -0.509  52.894  1.00  0.00     0.131 A 
HETATM    3  N3  UNL     1      20.986   0.030  52.001  1.00  0.00    -0.245 NA
HETATM    4  C10 UNL     1      21.356   0.992  51.138  1.00  0.00     0.134 A 
HETATM    5  C11 UNL     1      22.631   1.519  51.073  1.00  0.00     0.116 A 
HETATM    6  C21 UNL     1      23.521   0.963  51.992  1.00  0.00     0.054 A 
ENDROOT
BRANCH   1   7
HETATM    7  C7  UNL     1      24.196  -0.518  53.791  1.00  0.00     0.039 A 
HETATM    8  C6  UNL     1      25.468  -0.889  53.778  1.00  0.00     0.136 A 
HETATM    9  N5  UNL     1      25.439  -1.166  55.167  1.00  0.00    -0.242 NA
HETATM   10  C22 UNL     1      24.199  -0.816  55.233  1.00  0.00     0.135 A 
BRANCH   8  11
HETATM   11  N2  UNL     1      26.497  -0.990  52.802  1.00  0.00    -0.367 N 
HETATM   12  H11 UNL     1      26.385  -1.753  52.085  1.00  0.00     0.161 HD
BRANCH  11  13
HETATM   13  C5  UNL     1      27.656  -0.097  52.774  1.00  0.00     0.117 C 
HETATM   14  C2  UNL     1      27.293   1.214  53.392  1.00  0.00     0.239 C 
HETATM   15  C1  UNL     1      27.133   2.315  52.364  1.00  0.00     0.045 C 
HETATM   16  N1  UNL     1      28.303   1.555  54.367  1.00  0.00     0.089 N 
HETATM   17  C3  UNL     1      28.760   0.279  54.873  1.00  0.00     0.272 C 
HETATM   18  H5  UNL     1      27.848   2.141  55.102  1.00  0.00     0.316 HD
HETATM   19  C4  UNL     1      28.718  -0.658  53.683  1.00  0.00     0.057 C 
ENDBRANCH  11  13
ENDBRANCH   8  11
ENDBRANCH   1   7
BRANCH   5  20
HETATM   20  O1  UNL     1      22.890   2.495  50.151  1.00  0.00    -0.310 OA
BRANCH  20  21
HETATM   21  C12 UNL     1      23.116   3.833  50.431  1.00  0.00     0.078 A 
HETATM   22  C13 UNL     1      24.308   4.310  50.114  1.00  0.00     0.097 A 
HETATM   23 CL1  UNL     1      25.546   3.316  49.377  1.00  0.00    -0.079 Cl
HETATM   24  C14 UNL     1      24.614   5.704  50.390  1.00  0.00     0.095 A 
HETATM   25  C18 UNL     1      23.656   6.422  50.955  1.00  0.00     0.013 A 
HETATM   26  C19 UNL     1      22.290   6.004  51.357  1.00  0.00     0.037 A 
HETATM   27  C20 UNL     1      21.988   4.562  51.052  1.00  0.00     0.071 A 
BRANCH  24  28
HETATM   28  O2  UNL     1      25.844   6.265  50.081  1.00  0.00    -0.322 OA
BRANCH  28  29
HETATM   29  C15 UNL     1      26.163   6.678  48.817  1.00  0.00     0.141 C 
HETATM   30  C16 UNL     1      25.716   7.713  48.127  1.00  0.00     0.029 C 
BRANCH  30  31
HETATM   31  C17 UNL     1      26.019   8.211  46.764  1.00  0.00     0.251 C 
HETATM   32  F1  UNL     1      24.991   7.757  45.938  1.00  0.00    -0.251 F 
ENDBRANCH  30  31
ENDBRANCH  28  29
ENDBRANCH  24  28
ENDBRANCH  20  21
ENDBRANCH   5  20
BRANCH   4  33
HETATM   33  N4  UNL     1      20.349   1.470  50.256  1.00  0.00    -0.285 NA
HETATM   34  H13 UNL     1      20.178   2.440  50.619  1.00  0.00     0.125 HD
HETATM   35  H14 UNL     1      19.738   2.270  50.014  1.00  0.00     0.125 HD
ENDBRANCH   4  33
TORSDOF 9
ENDMDL
