MODEL 1
REMARK VINA RESULT:      -8.1      0.000      0.000
REMARK  6 active torsions:
REMARK  status: ('A' for Active; 'I' for Inactive)
REMARK    1  A    between atoms: C3_3  and  C4_4 
REMARK    2  A    between atoms: C4_4  and  N1_5 
REMARK       I    between atoms: N1_5  and  C5_6 
REMARK       I    between atoms: C5_6  and  N2_8 
REMARK    3  A    between atoms: N2_8  and  C6_9 
REMARK    4  A    between atoms: N2_8  and  C12_16 
REMARK    5  A    between atoms: C6_9  and  C7_10 
REMARK    6  A    between atoms: C12_16  and  C13_17 
ROOT
HETATM    1  N1  UNL     1      26.273   3.692  50.739  1.00  0.00    -0.340 N 
HETATM    2  C5  UNL     1      25.254   2.776  51.096  1.00  0.00     0.318 C 
HETATM    3  O1  UNL     1      24.360   2.880  50.205  1.00  0.00    -0.247 OA
HETATM    4  N2  UNL     1      25.222   1.887  52.249  1.00  0.00    -0.328 N 
HETATM    5  H8  UNL     1      27.123   3.771  51.340  1.00  0.00     0.164 HD
ENDROOT
BRANCH   4   6
HETATM    6  C6  UNL     1      26.392   2.014  53.094  1.00  0.00     0.162 C 
BRANCH   6   7
HETATM    7  C7  UNL     1      27.280   0.864  53.161  1.00  0.00    -0.056 A 
HETATM    8  C8  UNL     1      28.586   0.888  53.497  1.00  0.00     0.046 A 
HETATM    9  C9  UNL     1      29.212  -0.419  53.474  1.00  0.00     0.113 A 
HETATM   10  F1  UNL     1      30.500  -0.720  53.758  1.00  0.00    -0.206 F 
HETATM   11  C10 UNL     1      28.240  -1.238  53.117  1.00  0.00     0.020 A 
HETATM   12  C11 UNL     1      26.936  -0.575  52.882  1.00  0.00     0.066 A 
ENDBRANCH   6   7
ENDBRANCH   4   6
BRANCH   4  13
HETATM   13  C12 UNL     1      24.081   1.028  52.191  1.00  0.00     0.158 C 
BRANCH  13  14
HETATM   14  C13 UNL     1      22.893   1.210  53.030  1.00  0.00     0.139 C 
HETATM   15  N3  UNL     1      21.936   1.914  52.102  1.00  0.00    -0.387 N 
HETATM   16  C14 UNL     1      20.663   1.569  51.577  1.00  0.00     0.102 C 
HETATM   17  H18 UNL     1      22.390   2.838  51.847  1.00  0.00     0.159 HD
HETATM   18  C15 UNL     1      20.167   0.492  52.165  1.00  0.00     0.027 C 
HETATM   19 BR1  UNL     1      18.465   0.090  51.429  1.00  0.00    -0.050 Br
HETATM   20  C16 UNL     1      20.941  -0.254  53.182  1.00  0.00     0.037 C 
HETATM   21  C17 UNL     1      22.187   0.070  53.591  1.00  0.00     0.014 C 
HETATM   22 BR2  UNL     1      22.557  -1.207  54.985  1.00  0.00    -0.053 Br
ENDBRANCH  13  14
ENDBRANCH   4  13
BRANCH   1  23
HETATM   23  C4  UNL     1      26.144   4.497  49.562  1.00  0.00     0.151 C 
BRANCH  23  24
HETATM   24  C3  UNL     1      27.450   4.646  48.860  1.00  0.00    -0.012 C 
HETATM   25  C2  UNL     1      27.919   5.838  48.459  1.00  0.00    -0.033 C 
HETATM   26  C1  UNL     1      29.181   6.211  47.752  1.00  0.00     0.036 C 
ENDBRANCH  23  24
ENDBRANCH   1  23
TORSDOF 6
ENDMDL
MODEL 2
REMARK VINA RESULT:      -7.8      1.968      2.273
REMARK  6 active torsions:
REMARK  status: ('A' for Active; 'I' for Inactive)
REMARK    1  A    between atoms: C3_3  and  C4_4 
REMARK    2  A    between atoms: C4_4  and  N1_5 
REMARK       I    between atoms: N1_5  and  C5_6 
REMARK       I    between atoms: C5_6  and  N2_8 
REMARK    3  A    between atoms: N2_8  and  C6_9 
REMARK    4  A    between atoms: N2_8  and  C12_16 
REMARK    5  A    between atoms: C6_9  and  C7_10 
REMARK    6  A    between atoms: C12_16  and  C13_17 
ROOT
HETATM    1  N1  UNL     1      26.876   4.732  49.520  1.00  0.00    -0.340 N 
HETATM    2  C5  UNL     1      25.652   4.133  49.908  1.00  0.00     0.318 C 
HETATM    3  O1  UNL     1      24.740   4.781  49.313  1.00  0.00    -0.247 OA
HETATM    4  N2  UNL     1      25.461   3.002  50.804  1.00  0.00    -0.328 N 
HETATM    5  H8  UNL     1      27.773   4.349  49.894  1.00  0.00     0.164 HD
ENDROOT
BRANCH   4   6
HETATM    6  C6  UNL     1      26.705   2.486  51.337  1.00  0.00     0.162 C 
BRANCH   6   7
HETATM    7  C7  UNL     1      26.607   1.376  52.273  1.00  0.00    -0.056 A 
HETATM    8  C8  UNL     1      26.449   1.475  53.608  1.00  0.00     0.046 A 
HETATM    9  C9  UNL     1      26.387   0.191  54.279  1.00  0.00     0.113 A 
HETATM   10  F1  UNL     1      26.235  -0.039  55.603  1.00  0.00    -0.206 F 
HETATM   11  C10 UNL     1      26.510  -0.690  53.303  1.00  0.00     0.020 A 
HETATM   12  C11 UNL     1      26.657  -0.095  51.955  1.00  0.00     0.066 A 
ENDBRANCH   6   7
ENDBRANCH   4   6
BRANCH   4  13
HETATM   13  C12 UNL     1      24.085   2.617  50.843  1.00  0.00     0.158 C 
BRANCH  13  14
HETATM   14  C13 UNL     1      23.208   2.874  51.989  1.00  0.00     0.139 C 
HETATM   15  N3  UNL     1      22.354   4.017  51.505  1.00  0.00    -0.387 N 
HETATM   16  C14 UNL     1      20.958   4.160  51.287  1.00  0.00     0.102 C 
HETATM   17  H18 UNL     1      23.013   4.826  51.316  1.00  0.00     0.159 HD
HETATM   18  C15 UNL     1      20.280   3.132  51.771  1.00  0.00     0.027 C 
HETATM   19 BR1  UNL     1      18.426   3.388  51.458  1.00  0.00    -0.050 Br
HETATM   20  C16 UNL     1      20.970   1.975  52.382  1.00  0.00     0.037 C 
HETATM   21  C17 UNL     1      22.310   1.848  52.493  1.00  0.00     0.014 C 
HETATM   22 BR2  UNL     1      22.535   0.202  53.467  1.00  0.00    -0.053 Br
ENDBRANCH  13  14
ENDBRANCH   4  13
BRANCH   1  23
HETATM   23  C4  UNL     1      26.885   5.847  48.623  1.00  0.00     0.151 C 
BRANCH  23  24
HETATM   24  C3  UNL     1      28.274   6.215  48.228  1.00  0.00    -0.012 C 
HETATM   25  C2  UNL     1      29.272   5.318  48.192  1.00  0.00    -0.033 C 
HETATM   26  C1  UNL     1      30.715   5.466  47.832  1.00  0.00     0.036 C 
ENDBRANCH  23  24
ENDBRANCH   1  23
TORSDOF 6
ENDMDL
MODEL 3
REMARK VINA RESULT:      -7.7      3.795      6.928
REMARK  6 active torsions:
REMARK  status: ('A' for Active; 'I' for Inactive)
REMARK    1  A    between atoms: C3_3  and  C4_4 
REMARK    2  A    between atoms: C4_4  and  N1_5 
REMARK       I    between atoms: N1_5  and  C5_6 
REMARK       I    between atoms: C5_6  and  N2_8 
REMARK    3  A    between atoms: N2_8  and  C6_9 
REMARK    4  A    between atoms: N2_8  and  C12_16 
REMARK    5  A    between atoms: C6_9  and  C7_10 
REMARK    6  A    between atoms: C12_16  and  C13_17 
ROOT
HETATM    1  N1  UNL     1      24.753   0.567  53.305  1.00  0.00    -0.340 N 
HETATM    2  C5  UNL     1      23.904   1.664  53.016  1.00  0.00     0.318 C 
HETATM    3  O1  UNL     1      24.539   2.701  53.371  1.00  0.00    -0.247 OA
HETATM    4  N2  UNL     1      22.572   1.627  52.432  1.00  0.00    -0.328 N 
HETATM    5  H8  UNL     1      24.429  -0.401  53.086  1.00  0.00     0.164 HD
ENDROOT
BRANCH   4   6
HETATM    6  C6  UNL     1      22.116   0.282  52.148  1.00  0.00     0.162 C 
BRANCH   6   7
HETATM    7  C7  UNL     1      20.681   0.050  52.205  1.00  0.00    -0.056 A 
HETATM    8  C8  UNL     1      20.011  -0.536  53.218  1.00  0.00     0.046 A 
HETATM    9  C9  UNL     1      18.582  -0.630  52.987  1.00  0.00     0.113 A 
HETATM   10  F1  UNL     1      17.649  -1.163  53.809  1.00  0.00    -0.206 F 
HETATM   11  C10 UNL     1      18.409  -0.078  51.801  1.00  0.00     0.020 A 
HETATM   12  C11 UNL     1      19.653   0.413  51.165  1.00  0.00     0.066 A 
ENDBRANCH   6   7
ENDBRANCH   4   6
BRANCH   4  13
HETATM   13  C12 UNL     1      22.094   2.950  52.183  1.00  0.00     0.158 C 
BRANCH  13  14
HETATM   14  C13 UNL     1      22.278   3.648  50.907  1.00  0.00     0.139 C 
HETATM   15  N3  UNL     1      23.319   4.685  51.243  1.00  0.00    -0.387 N 
HETATM   16  C14 UNL     1      24.637   4.925  50.772  1.00  0.00     0.102 C 
HETATM   17  H18 UNL     1      22.891   5.312  51.984  1.00  0.00     0.159 HD
HETATM   18  C15 UNL     1      24.920   4.183  49.713  1.00  0.00     0.027 C 
HETATM   19 BR1  UNL     1      26.685   4.556  49.127  1.00  0.00    -0.050 Br
HETATM   20  C16 UNL     1      23.956   3.191  49.189  1.00  0.00     0.037 C 
HETATM   21  C17 UNL     1      22.740   2.942  49.724  1.00  0.00     0.014 C 
HETATM   22 BR2  UNL     1      21.965   1.655  48.518  1.00  0.00    -0.053 Br
ENDBRANCH  13  14
ENDBRANCH   4  13
BRANCH   1  23
HETATM   23  C4  UNL     1      26.044   0.783  53.885  1.00  0.00     0.151 C 
BRANCH  23  24
HETATM   24  C3  UNL     1      27.049  -0.174  53.342  1.00  0.00    -0.012 C 
HETATM   25  C2  UNL     1      28.295  -0.264  53.833  1.00  0.00    -0.033 C 
HETATM   26  C1  UNL     1      29.444  -1.137  53.447  1.00  0.00     0.036 C 
ENDBRANCH  23  24
ENDBRANCH   1  23
TORSDOF 6
ENDMDL
MODEL 4
REMARK VINA RESULT:      -7.6      3.208      5.696
REMARK  6 active torsions:
REMARK  status: ('A' for Active; 'I' for Inactive)
REMARK    1  A    between atoms: C3_3  and  C4_4 
REMARK    2  A    between atoms: C4_4  and  N1_5 
REMARK       I    between atoms: N1_5  and  C5_6 
REMARK       I    between atoms: C5_6  and  N2_8 
REMARK    3  A    between atoms: N2_8  and  C6_9 
REMARK    4  A    between atoms: N2_8  and  C12_16 
REMARK    5  A    between atoms: C6_9  and  C7_10 
REMARK    6  A    between atoms: C12_16  and  C13_17 
ROOT
HETATM    1  N1  UNL     1      25.293   1.182  51.769  1.00  0.00    -0.340 N 
HETATM    2  C5  UNL     1      24.635   2.337  52.260  1.00  0.00     0.318 C 
HETATM    3  O1  UNL     1      24.544   2.182  53.514  1.00  0.00    -0.247 OA
HETATM    4  N2  UNL     1      24.156   3.478  51.495  1.00  0.00    -0.328 N 
HETATM    5  H8  UNL     1      25.481   1.097  50.745  1.00  0.00     0.164 HD
ENDROOT
BRANCH   4   6
HETATM    6  C6  UNL     1      24.398   3.349  50.073  1.00  0.00     0.162 C 
BRANCH   6   7
HETATM    7  C7  UNL     1      25.438   4.193  49.505  1.00  0.00    -0.056 A 
HETATM    8  C8  UNL     1      26.706   3.818  49.236  1.00  0.00     0.046 A 
HETATM    9  C9  UNL     1      27.515   4.883  48.675  1.00  0.00     0.113 A 
HETATM   10  F1  UNL     1      28.814   4.820  48.304  1.00  0.00    -0.206 F 
HETATM   11  C10 UNL     1      26.693   5.914  48.610  1.00  0.00     0.020 A 
HETATM   12  C11 UNL     1      25.324   5.639  49.099  1.00  0.00     0.066 A 
ENDBRANCH   6   7
ENDBRANCH   4   6
BRANCH   4  13
HETATM   13  C12 UNL     1      23.659   4.496  52.367  1.00  0.00     0.158 C 
BRANCH  13  14
HETATM   14  C13 UNL     1      22.242   4.860  52.458  1.00  0.00     0.139 C 
HETATM   15  N3  UNL     1      22.176   6.136  51.659  1.00  0.00    -0.387 N 
HETATM   16  C14 UNL     1      21.481   6.505  50.476  1.00  0.00     0.102 C 
HETATM   17  H18 UNL     1      22.801   6.835  52.155  1.00  0.00     0.159 HD
HETATM   18  C15 UNL     1      20.598   5.586  50.121  1.00  0.00     0.027 C 
HETATM   19 BR1  UNL     1      19.699   6.142  48.545  1.00  0.00    -0.050 Br
HETATM   20  C16 UNL     1      20.462   4.319  50.872  1.00  0.00     0.037 C 
HETATM   21  C17 UNL     1      21.206   3.978  51.948  1.00  0.00     0.014 C 
HETATM   22 BR2  UNL     1      20.457   2.293  52.505  1.00  0.00    -0.053 Br
ENDBRANCH  13  14
ENDBRANCH   4  13
BRANCH   1  23
HETATM   23  C4  UNL     1      25.702   0.144  52.666  1.00  0.00     0.151 C 
BRANCH  23  24
HETATM   24  C3  UNL     1      27.120  -0.248  52.432  1.00  0.00    -0.012 C 
HETATM   25  C2  UNL     1      27.931  -0.642  53.427  1.00  0.00    -0.033 C 
HETATM   26  C1  UNL     1      29.362  -1.073  53.417  1.00  0.00     0.036 C 
ENDBRANCH  23  24
ENDBRANCH   1  23
TORSDOF 6
ENDMDL
MODEL 5
REMARK VINA RESULT:      -7.6      1.914      2.381
REMARK  6 active torsions:
REMARK  status: ('A' for Active; 'I' for Inactive)
REMARK    1  A    between atoms: C3_3  and  C4_4 
REMARK    2  A    between atoms: C4_4  and  N1_5 
REMARK       I    between atoms: N1_5  and  C5_6 
REMARK       I    between atoms: C5_6  and  N2_8 
REMARK    3  A    between atoms: N2_8  and  C6_9 
REMARK    4  A    between atoms: N2_8  and  C12_16 
REMARK    5  A    between atoms: C6_9  and  C7_10 
REMARK    6  A    between atoms: C12_16  and  C13_17 
ROOT
HETATM    1  N1  UNL     1      25.708   4.449  50.406  1.00  0.00    -0.340 N 
HETATM    2  C5  UNL     1      24.569   3.809  50.955  1.00  0.00     0.318 C 
HETATM    3  O1  UNL     1      23.569   4.287  50.343  1.00  0.00    -0.247 OA
HETATM    4  N2  UNL     1      24.536   2.804  52.008  1.00  0.00    -0.328 N 
HETATM    5  H8  UNL     1      26.656   4.200  50.765  1.00  0.00     0.164 HD
ENDROOT
BRANCH   4   6
HETATM    6  C6  UNL     1      25.851   2.476  52.518  1.00  0.00     0.162 C 
BRANCH   6   7
HETATM    7  C7  UNL     1      26.085   1.087  52.883  1.00  0.00    -0.056 A 
HETATM    8  C8  UNL     1      26.394   0.085  52.035  1.00  0.00     0.046 A 
HETATM    9  C9  UNL     1      26.567  -1.195  52.693  1.00  0.00     0.113 A 
HETATM   10  F1  UNL     1      26.876  -2.381  52.119  1.00  0.00    -0.206 F 
HETATM   11  C10 UNL     1      26.356  -0.934  53.970  1.00  0.00     0.020 A 
HETATM   12  C11 UNL     1      26.039   0.483  54.261  1.00  0.00     0.066 A 
ENDBRANCH   6   7
ENDBRANCH   4   6
BRANCH   4  13
HETATM   13  C12 UNL     1      23.207   2.314  52.194  1.00  0.00     0.158 C 
BRANCH  13  14
HETATM   14  C13 UNL     1      22.714   1.072  51.592  1.00  0.00     0.139 C 
HETATM   15  N3  UNL     1      22.071   0.369  52.760  1.00  0.00    -0.387 N 
HETATM   16  C14 UNL     1      20.740  -0.047  53.029  1.00  0.00     0.102 C 
HETATM   17  H18 UNL     1      22.842   0.192  53.466  1.00  0.00     0.159 HD
HETATM   18  C15 UNL     1      19.968   0.065  51.960  1.00  0.00     0.027 C 
HETATM   19 BR1  UNL     1      18.210  -0.515  52.380  1.00  0.00    -0.050 Br
HETATM   20  C16 UNL     1      20.482   0.635  50.696  1.00  0.00     0.037 C 
HETATM   21  C17 UNL     1      21.740   1.094  50.514  1.00  0.00     0.014 C 
HETATM   22 BR2  UNL     1      21.783   1.579  48.650  1.00  0.00    -0.053 Br
ENDBRANCH  13  14
ENDBRANCH   4  13
BRANCH   1  23
HETATM   23  C4  UNL     1      25.561   5.423  49.367  1.00  0.00     0.151 C 
BRANCH  23  24
HETATM   24  C3  UNL     1      26.882   5.960  48.937  1.00  0.00    -0.012 C 
HETATM   25  C2  UNL     1      27.902   5.163  48.583  1.00  0.00    -0.033 C 
HETATM   26  C1  UNL     1      29.289   5.483  48.127  1.00  0.00     0.036 C 
ENDBRANCH  23  24
ENDBRANCH   1  23
TORSDOF 6
ENDMDL
MODEL 6
REMARK VINA RESULT:      -7.5      2.676      5.285
REMARK  6 active torsions:
REMARK  status: ('A' for Active; 'I' for Inactive)
REMARK    1  A    between atoms: C3_3  and  C4_4 
REMARK    2  A    between atoms: C4_4  and  N1_5 
REMARK       I    between atoms: N1_5  and  C5_6 
REMARK       I    between atoms: C5_6  and  N2_8 
REMARK    3  A    between atoms: N2_8  and  C6_9 
REMARK    4  A    between atoms: N2_8  and  C12_16 
REMARK    5  A    between atoms: C6_9  and  C7_10 
REMARK    6  A    between atoms: C12_16  and  C13_17 
ROOT
HETATM    1  N1  UNL     1      27.613   1.794  52.633  1.00  0.00    -0.340 N 
HETATM    2  C5  UNL     1      26.327   2.258  53.007  1.00  0.00     0.318 C 
HETATM    3  O1  UNL     1      26.298   2.232  54.273  1.00  0.00    -0.247 OA
HETATM    4  N2  UNL     1      25.246   2.682  52.129  1.00  0.00    -0.328 N 
HETATM    5  H8  UNL     1      27.860   1.737  51.621  1.00  0.00     0.164 HD
ENDROOT
BRANCH   4   6
HETATM    6  C6  UNL     1      25.585   2.582  50.724  1.00  0.00     0.162 C 
BRANCH   6   7
HETATM    7  C7  UNL     1      25.948   3.817  50.047  1.00  0.00    -0.056 A 
HETATM    8  C8  UNL     1      27.024   4.000  49.254  1.00  0.00     0.046 A 
HETATM    9  C9  UNL     1      27.125   5.345  48.720  1.00  0.00     0.113 A 
HETATM   10  F1  UNL     1      28.083   5.836  47.902  1.00  0.00    -0.206 F 
HETATM   11  C10 UNL     1      26.071   5.968  49.213  1.00  0.00     0.020 A 
HETATM   12  C11 UNL     1      25.212   5.130  50.081  1.00  0.00     0.066 A 
ENDBRANCH   6   7
ENDBRANCH   4   6
BRANCH   4  13
HETATM   13  C12 UNL     1      24.152   3.199  52.890  1.00  0.00     0.158 C 
BRANCH  13  14
HETATM   14  C13 UNL     1      22.767   2.752  52.717  1.00  0.00     0.139 C 
HETATM   15  N3  UNL     1      22.241   3.699  51.669  1.00  0.00    -0.387 N 
HETATM   16  C14 UNL     1      21.737   3.509  50.355  1.00  0.00     0.102 C 
HETATM   17  H18 UNL     1      22.299   4.672  52.087  1.00  0.00     0.159 HD
HETATM   18  C15 UNL     1      21.545   2.228  50.086  1.00  0.00     0.027 C 
HETATM   19 BR1  UNL     1      20.862   2.043  48.325  1.00  0.00    -0.050 Br
HETATM   20  C16 UNL     1      21.908   1.175  51.059  1.00  0.00     0.037 C 
HETATM   21  C17 UNL     1      22.462   1.403  52.270  1.00  0.00     0.014 C 
HETATM   22 BR2  UNL     1      22.569  -0.349  53.061  1.00  0.00    -0.053 Br
ENDBRANCH  13  14
ENDBRANCH   4  13
BRANCH   1  23
HETATM   23  C4  UNL     1      28.564   1.414  53.633  1.00  0.00     0.151 C 
BRANCH  23  24
HETATM   24  C3  UNL     1      28.520  -0.053  53.893  1.00  0.00    -0.012 C 
HETATM   25  C2  UNL     1      29.366  -0.913  53.305  1.00  0.00    -0.033 C 
HETATM   26  C1  UNL     1      29.497  -2.397  53.419  1.00  0.00     0.036 C 
ENDBRANCH  23  24
ENDBRANCH   1  23
TORSDOF 6
ENDMDL
MODEL 7
REMARK VINA RESULT:      -7.4      3.816      5.990
REMARK  6 active torsions:
REMARK  status: ('A' for Active; 'I' for Inactive)
REMARK    1  A    between atoms: C3_3  and  C4_4 
REMARK    2  A    between atoms: C4_4  and  N1_5 
REMARK       I    between atoms: N1_5  and  C5_6 
REMARK       I    between atoms: C5_6  and  N2_8 
REMARK    3  A    between atoms: N2_8  and  C6_9 
REMARK    4  A    between atoms: N2_8  and  C12_16 
REMARK    5  A    between atoms: C6_9  and  C7_10 
REMARK    6  A    between atoms: C12_16  and  C13_17 
ROOT
HETATM    1  N1  UNL     1      26.692   2.453  53.277  1.00  0.00    -0.340 N 
HETATM    2  C5  UNL     1      26.156   2.437  51.965  1.00  0.00     0.318 C 
HETATM    3  O1  UNL     1      27.150   2.408  51.181  1.00  0.00    -0.247 OA
HETATM    4  N2  UNL     1      24.753   2.451  51.579  1.00  0.00    -0.328 N 
HETATM    5  H8  UNL     1      26.042   2.473  54.094  1.00  0.00     0.164 HD
ENDROOT
BRANCH   4   6
HETATM    6  C6  UNL     1      23.853   2.500  52.713  1.00  0.00     0.162 C 
BRANCH   6   7
HETATM    7  C7  UNL     1      23.173   1.263  53.065  1.00  0.00    -0.056 A 
HETATM    8  C8  UNL     1      21.839   1.068  53.079  1.00  0.00     0.046 A 
HETATM    9  C9  UNL     1      21.456  -0.273  53.475  1.00  0.00     0.113 A 
HETATM   10  F1  UNL     1      20.204  -0.773  53.586  1.00  0.00    -0.206 F 
HETATM   11  C10 UNL     1      22.605  -0.885  53.696  1.00  0.00     0.020 A 
HETATM   12  C11 UNL     1      23.801  -0.042  53.476  1.00  0.00     0.066 A 
ENDBRANCH   6   7
ENDBRANCH   4   6
BRANCH   4  13
HETATM   13  C12 UNL     1      24.619   2.301  50.164  1.00  0.00     0.158 C 
BRANCH  13  14
HETATM   14  C13 UNL     1      24.256   3.402  49.267  1.00  0.00     0.139 C 
HETATM   15  N3  UNL     1      22.789   3.595  49.555  1.00  0.00    -0.387 N 
HETATM   16  C14 UNL     1      22.036   4.684  50.070  1.00  0.00     0.102 C 
HETATM   17  H18 UNL     1      22.308   2.687  49.290  1.00  0.00     0.159 HD
HETATM   18  C15 UNL     1      22.762   5.788  50.143  1.00  0.00     0.027 C 
HETATM   19 BR1  UNL     1      21.699   7.204  50.826  1.00  0.00    -0.050 Br
HETATM   20  C16 UNL     1      24.198   5.790  49.788  1.00  0.00     0.037 C 
HETATM   21  C17 UNL     1      24.891   4.704  49.379  1.00  0.00     0.014 C 
HETATM   22 BR2  UNL     1      26.639   5.404  48.974  1.00  0.00    -0.053 Br
ENDBRANCH  13  14
ENDBRANCH   4  13
BRANCH   1  23
HETATM   23  C4  UNL     1      28.108   2.435  53.481  1.00  0.00     0.151 C 
BRANCH  23  24
HETATM   24  C3  UNL     1      28.558   1.134  54.052  1.00  0.00    -0.012 C 
HETATM   25  C2  UNL     1      29.362   0.294  53.381  1.00  0.00    -0.033 C 
HETATM   26  C1  UNL     1      29.925  -1.038  53.757  1.00  0.00     0.036 C 
ENDBRANCH  23  24
ENDBRANCH   1  23
TORSDOF 6
ENDMDL
MODEL 8
REMARK VINA RESULT:      -7.4      3.558      6.412
REMARK  6 active torsions:
REMARK  status: ('A' for Active; 'I' for Inactive)
REMARK    1  A    between atoms: C3_3  and  C4_4 
REMARK    2  A    between atoms: C4_4  and  N1_5 
REMARK       I    between atoms: N1_5  and  C5_6 
REMARK       I    between atoms: C5_6  and  N2_8 
REMARK    3  A    between atoms: N2_8  and  C6_9 
REMARK    4  A    between atoms: N2_8  and  C12_16 
REMARK    5  A    between atoms: C6_9  and  C7_10 
REMARK    6  A    between atoms: C12_16  and  C13_17 
ROOT
HETATM    1  N1  UNL     1      27.118   1.960  53.646  1.00  0.00    -0.340 N 
HETATM    2  C5  UNL     1      26.515   2.466  52.469  1.00  0.00     0.318 C 
HETATM    3  O1  UNL     1      27.464   2.728  51.672  1.00  0.00    -0.247 OA
HETATM    4  N2  UNL     1      25.095   2.655  52.209  1.00  0.00    -0.328 N 
HETATM    5  H8  UNL     1      26.513   1.671  54.447  1.00  0.00     0.164 HD
ENDROOT
BRANCH   4   6
HETATM    6  C6  UNL     1      24.259   2.274  53.329  1.00  0.00     0.162 C 
BRANCH   6   7
HETATM    7  C7  UNL     1      23.289   1.215  53.093  1.00  0.00    -0.056 A 
HETATM    8  C8  UNL     1      23.291  -0.005  53.669  1.00  0.00     0.046 A 
HETATM    9  C9  UNL     1      22.196  -0.849  53.234  1.00  0.00     0.113 A 
HETATM   10  F1  UNL     1      21.927  -2.116  53.625  1.00  0.00    -0.206 F 
HETATM   11  C10 UNL     1      21.528  -0.098  52.378  1.00  0.00     0.020 A 
HETATM   12  C11 UNL     1      22.095   1.255  52.177  1.00  0.00     0.066 A 
ENDBRANCH   6   7
ENDBRANCH   4   6
BRANCH   4  13
HETATM   13  C12 UNL     1      24.881   3.070  50.859  1.00  0.00     0.158 C 
BRANCH  13  14
HETATM   14  C13 UNL     1      24.038   4.211  50.490  1.00  0.00     0.139 C 
HETATM   15  N3  UNL     1      24.907   5.393  50.838  1.00  0.00    -0.387 N 
HETATM   16  C14 UNL     1      25.469   6.444  50.067  1.00  0.00     0.102 C 
HETATM   17  H18 UNL     1      25.078   5.342  51.884  1.00  0.00     0.159 HD
HETATM   18  C15 UNL     1      24.982   6.463  48.837  1.00  0.00     0.027 C 
HETATM   19 BR1  UNL     1      25.762   7.893  47.864  1.00  0.00    -0.050 Br
HETATM   20  C16 UNL     1      24.028   5.432  48.372  1.00  0.00     0.037 C 
HETATM   21  C17 UNL     1      23.584   4.400  49.122  1.00  0.00     0.014 C 
HETATM   22 BR2  UNL     1      22.305   3.523  47.981  1.00  0.00    -0.053 Br
ENDBRANCH  13  14
ENDBRANCH   4  13
BRANCH   1  23
HETATM   23  C4  UNL     1      28.542   1.839  53.736  1.00  0.00     0.151 C 
BRANCH  23  24
HETATM   24  C3  UNL     1      28.945   0.462  54.139  1.00  0.00    -0.012 C 
HETATM   25  C2  UNL     1      29.222  -0.497  53.241  1.00  0.00    -0.033 C 
HETATM   26  C1  UNL     1      29.639  -1.921  53.420  1.00  0.00     0.036 C 
ENDBRANCH  23  24
ENDBRANCH   1  23
TORSDOF 6
ENDMDL
MODEL 9
REMARK VINA RESULT:      -7.3      4.079      6.310
REMARK  6 active torsions:
REMARK  status: ('A' for Active; 'I' for Inactive)
REMARK    1  A    between atoms: C3_3  and  C4_4 
REMARK    2  A    between atoms: C4_4  and  N1_5 
REMARK       I    between atoms: N1_5  and  C5_6 
REMARK       I    between atoms: C5_6  and  N2_8 
REMARK    3  A    between atoms: N2_8  and  C6_9 
REMARK    4  A    between atoms: N2_8  and  C12_16 
REMARK    5  A    between atoms: C6_9  and  C7_10 
REMARK    6  A    between atoms: C12_16  and  C13_17 
ROOT
HETATM    1  N1  UNL     1      25.293   1.375  51.722  1.00  0.00    -0.340 N 
HETATM    2  C5  UNL     1      24.617   2.533  52.182  1.00  0.00     0.318 C 
HETATM    3  O1  UNL     1      24.545   2.420  53.442  1.00  0.00    -0.247 OA
HETATM    4  N2  UNL     1      24.104   3.637  51.386  1.00  0.00    -0.328 N 
HETATM    5  H8  UNL     1      25.469   1.260  50.700  1.00  0.00     0.164 HD
ENDROOT
BRANCH   4   6
HETATM    6  C6  UNL     1      24.332   3.465  49.965  1.00  0.00     0.162 C 
BRANCH   6   7
HETATM    7  C7  UNL     1      23.206   2.995  49.173  1.00  0.00    -0.056 A 
HETATM    8  C8  UNL     1      22.677   3.616  48.099  1.00  0.00     0.046 A 
HETATM    9  C9  UNL     1      21.555   2.906  47.516  1.00  0.00     0.113 A 
HETATM   10  F1  UNL     1      20.820   3.271  46.441  1.00  0.00    -0.206 F 
HETATM   11  C10 UNL     1      21.425   1.831  48.271  1.00  0.00     0.020 A 
HETATM   12  C11 UNL     1      22.407   1.735  49.375  1.00  0.00     0.066 A 
ENDBRANCH   6   7
ENDBRANCH   4   6
BRANCH   4  13
HETATM   13  C12 UNL     1      23.599   4.675  52.229  1.00  0.00     0.158 C 
BRANCH  13  14
HETATM   14  C13 UNL     1      22.169   4.948  52.401  1.00  0.00     0.139 C 
HETATM   15  N3  UNL     1      21.963   6.182  51.561  1.00  0.00    -0.387 N 
HETATM   16  C14 UNL     1      21.170   6.453  50.415  1.00  0.00     0.102 C 
HETATM   17  H18 UNL     1      22.570   6.941  51.986  1.00  0.00     0.159 HD
HETATM   18  C15 UNL     1      20.329   5.464  50.156  1.00  0.00     0.027 C 
HETATM   19 BR1  UNL     1      19.294   5.891  48.625  1.00  0.00    -0.050 Br
HETATM   20  C16 UNL     1      20.330   4.224  50.963  1.00  0.00     0.037 C 
HETATM   21  C17 UNL     1      21.164   3.979  51.998  1.00  0.00     0.014 C 
HETATM   22 BR2  UNL     1      20.570   2.275  52.669  1.00  0.00    -0.053 Br
ENDBRANCH  13  14
ENDBRANCH   4  13
BRANCH   1  23
HETATM   23  C4  UNL     1      25.733   0.378  52.649  1.00  0.00     0.151 C 
BRANCH  23  24
HETATM   24  C3  UNL     1      27.201   0.146  52.538  1.00  0.00    -0.012 C 
HETATM   25  C2  UNL     1      27.876  -0.623  53.408  1.00  0.00    -0.033 C 
HETATM   26  C1  UNL     1      29.323  -0.986  53.484  1.00  0.00     0.036 C 
ENDBRANCH  23  24
ENDBRANCH   1  23
TORSDOF 6
ENDMDL
