MODEL 1
REMARK VINA RESULT:      -7.5      0.000      0.000
REMARK  11 active torsions:
REMARK  status: ('A' for Active; 'I' for Inactive)
REMARK    1  A    between atoms: C2_2  and  C3_3 
REMARK    2  A    between atoms: C2_2  and  C15_17 
REMARK    3  A    between atoms: C3_3  and  C4_4 
REMARK    4  A    between atoms: C5_5  and  C6_6 
REMARK    5  A    between atoms: C6_6  and  C7_7 
REMARK    6  A    between atoms: C6_6  and  C8_9 
REMARK    7  A    between atoms: C7_7  and  O1_8 
REMARK    8  A    between atoms: C8_9  and  C9_10 
REMARK    9  A    between atoms: C14_15  and  O2_16 
REMARK   10  A    between atoms: C15_17  and  C16_18 
REMARK   11  A    between atoms: C16_18  and  N1_19 
ROOT
HETATM    1  C4  UNL     1      23.527   2.067  51.888  1.00  0.00    -0.029 C 
HETATM    2  C5  UNL     1      23.304   3.362  51.777  1.00  0.00    -0.024 C 
ENDROOT
BRANCH   2   3
HETATM    3  C6  UNL     1      24.132   4.420  51.127  1.00  0.00     0.036 C 
BRANCH   3   4
HETATM    4  C7  UNL     1      23.609   5.759  51.518  1.00  0.00     0.172 C 
BRANCH   4   5
HETATM    5  O1  UNL     1      24.453   6.489  52.346  1.00  0.00    -0.400 OA
HETATM    6  H10 UNL     1      24.690   5.957  53.149  1.00  0.00     0.209 HD
ENDBRANCH   4   5
ENDBRANCH   3   4
BRANCH   3   7
HETATM    7  C8  UNL     1      24.283   4.189  49.663  1.00  0.00     0.052 C 
BRANCH   7   8
HETATM    8  C9  UNL     1      25.501   4.874  49.178  1.00  0.00    -0.024 A 
HETATM    9  C10 UNL     1      25.478   6.176  48.672  1.00  0.00     0.010 A 
HETATM   10  C11 UNL     1      26.577   6.860  48.199  1.00  0.00     0.001 A 
HETATM   11  C12 UNL     1      27.802   6.217  48.224  1.00  0.00     0.003 A 
HETATM   12  C13 UNL     1      27.879   4.930  48.715  1.00  0.00     0.037 A 
HETATM   13  C14 UNL     1      26.755   4.280  49.178  1.00  0.00     0.071 A 
BRANCH  13  14
HETATM   14  O2  UNL     1      26.888   2.967  49.668  1.00  0.00    -0.360 OA
HETATM   15  H17 UNL     1      27.853   2.705  49.901  1.00  0.00     0.217 HD
ENDBRANCH  13  14
ENDBRANCH   7   8
ENDBRANCH   3   7
ENDBRANCH   2   3
BRANCH   1  16
HETATM   16  C3  UNL     1      23.034   0.781  52.395  1.00  0.00     0.037 C 
BRANCH  16  17
HETATM   17  C2  UNL     1      23.915   0.197  53.443  1.00  0.00    -0.028 C 
HETATM   18  C1  UNL     1      23.427  -0.837  54.116  1.00  0.00     0.011 C 
BRANCH  17  19
HETATM   19  C15 UNL     1      25.263   0.776  53.688  1.00  0.00     0.041 C 
BRANCH  19  20
HETATM   20  C16 UNL     1      26.282  -0.280  53.416  1.00  0.00     0.273 C 
BRANCH  20  21
HETATM   21  N1  UNL     1      27.467   0.221  52.751  1.00  0.00     0.092 N 
HETATM   22  C17 UNL     1      27.398   1.670  52.804  1.00  0.00     0.298 C 
HETATM   23  C18 UNL     1      28.569   2.249  53.583  1.00  0.00     0.198 C 
HETATM   24  O3  UNL     1      28.752   1.659  54.812  1.00  0.00    -0.388 OA
HETATM   25  C19 UNL     1      28.727   0.281  54.814  1.00  0.00     0.198 C 
HETATM   26  C20 UNL     1      28.681  -0.195  53.393  1.00  0.00     0.298 C 
ENDBRANCH  20  21
ENDBRANCH  19  20
ENDBRANCH  17  19
ENDBRANCH  16  17
ENDBRANCH   1  16
TORSDOF 11
ENDMDL
MODEL 2
REMARK VINA RESULT:      -7.4      2.900      7.027
REMARK  11 active torsions:
REMARK  status: ('A' for Active; 'I' for Inactive)
REMARK    1  A    between atoms: C2_2  and  C3_3 
REMARK    2  A    between atoms: C2_2  and  C15_17 
REMARK    3  A    between atoms: C3_3  and  C4_4 
REMARK    4  A    between atoms: C5_5  and  C6_6 
REMARK    5  A    between atoms: C6_6  and  C7_7 
REMARK    6  A    between atoms: C6_6  and  C8_9 
REMARK    7  A    between atoms: C7_7  and  O1_8 
REMARK    8  A    between atoms: C8_9  and  C9_10 
REMARK    9  A    between atoms: C14_15  and  O2_16 
REMARK   10  A    between atoms: C15_17  and  C16_18 
REMARK   11  A    between atoms: C16_18  and  N1_19 
ROOT
HETATM    1  C4  UNL     1      26.512   3.444  50.274  1.00  0.00    -0.029 C 
HETATM    2  C5  UNL     1      26.463   2.364  51.030  1.00  0.00    -0.024 C 
ENDROOT
BRANCH   2   3
HETATM    3  C6  UNL     1      25.693   2.112  52.284  1.00  0.00     0.036 C 
BRANCH   3   4
HETATM    4  C7  UNL     1      24.489   2.988  52.302  1.00  0.00     0.172 C 
BRANCH   4   5
HETATM    5  O1  UNL     1      24.414   3.845  53.394  1.00  0.00    -0.400 OA
HETATM    6  H10 UNL     1      24.981   3.505  54.134  1.00  0.00     0.209 HD
ENDBRANCH   4   5
ENDBRANCH   3   4
BRANCH   3   7
HETATM    7  C8  UNL     1      26.559   2.181  53.493  1.00  0.00     0.052 C 
BRANCH   7   8
HETATM    8  C9  UNL     1      27.531   1.065  53.469  1.00  0.00    -0.024 A 
HETATM    9  C10 UNL     1      27.177  -0.229  53.081  1.00  0.00     0.010 A 
HETATM   10  C11 UNL     1      28.035  -1.306  53.048  1.00  0.00     0.001 A 
HETATM   11  C12 UNL     1      29.351  -1.101  53.424  1.00  0.00     0.003 A 
HETATM   12  C13 UNL     1      29.752   0.160  53.816  1.00  0.00     0.037 A 
HETATM   13  C14 UNL     1      28.861   1.212  53.836  1.00  0.00     0.071 A 
BRANCH  13  14
HETATM   14  O2  UNL     1      29.321   2.478  54.244  1.00  0.00    -0.360 OA
HETATM   15  H17 UNL     1      30.319   2.503  54.480  1.00  0.00     0.217 HD
ENDBRANCH  13  14
ENDBRANCH   7   8
ENDBRANCH   3   7
ENDBRANCH   2   3
BRANCH   1  16
HETATM   16  C3  UNL     1      27.077   4.070  49.073  1.00  0.00     0.037 C 
BRANCH  16  17
HETATM   17  C2  UNL     1      26.718   5.510  48.949  1.00  0.00    -0.028 C 
HETATM   18  C1  UNL     1      25.563   5.879  49.488  1.00  0.00     0.011 C 
BRANCH  17  19
HETATM   19  C15 UNL     1      27.637   6.447  48.249  1.00  0.00     0.041 C 
BRANCH  19  20
HETATM   20  C16 UNL     1      28.999   5.838  48.225  1.00  0.00     0.273 C 
BRANCH  20  21
HETATM   21  N1  UNL     1      30.014   6.720  47.687  1.00  0.00     0.092 N 
HETATM   22  C17 UNL     1      29.937   7.959  48.440  1.00  0.00     0.298 C 
HETATM   23  C18 UNL     1      31.235   8.233  49.183  1.00  0.00     0.198 C 
HETATM   24  O3  UNL     1      31.675   7.163  49.927  1.00  0.00    -0.388 OA
HETATM   25  C19 UNL     1      31.671   5.949  49.273  1.00  0.00     0.198 C 
HETATM   26  C20 UNL     1      31.340   6.189  47.830  1.00  0.00     0.298 C 
ENDBRANCH  20  21
ENDBRANCH  19  20
ENDBRANCH  17  19
ENDBRANCH  16  17
ENDBRANCH   1  16
TORSDOF 11
ENDMDL
MODEL 3
REMARK VINA RESULT:      -7.3      2.876      7.624
REMARK  11 active torsions:
REMARK  status: ('A' for Active; 'I' for Inactive)
REMARK    1  A    between atoms: C2_2  and  C3_3 
REMARK    2  A    between atoms: C2_2  and  C15_17 
REMARK    3  A    between atoms: C3_3  and  C4_4 
REMARK    4  A    between atoms: C5_5  and  C6_6 
REMARK    5  A    between atoms: C6_6  and  C7_7 
REMARK    6  A    between atoms: C6_6  and  C8_9 
REMARK    7  A    between atoms: C7_7  and  O1_8 
REMARK    8  A    between atoms: C8_9  and  C9_10 
REMARK    9  A    between atoms: C14_15  and  O2_16 
REMARK   10  A    between atoms: C15_17  and  C16_18 
REMARK   11  A    between atoms: C16_18  and  N1_19 
ROOT
HETATM    1  C4  UNL     1      26.394   3.231  50.256  1.00  0.00    -0.029 C 
HETATM    2  C5  UNL     1      26.666   2.544  51.348  1.00  0.00    -0.024 C 
ENDROOT
BRANCH   2   3
HETATM    3  C6  UNL     1      25.750   2.061  52.424  1.00  0.00     0.036 C 
BRANCH   3   4
HETATM    4  C7  UNL     1      24.522   2.904  52.434  1.00  0.00     0.172 C 
BRANCH   4   5
HETATM    5  O1  UNL     1      24.512   3.897  53.407  1.00  0.00    -0.400 OA
HETATM    6  H10 UNL     1      25.436   4.207  53.590  1.00  0.00     0.209 HD
ENDBRANCH   4   5
ENDBRANCH   3   4
BRANCH   3   7
HETATM    7  C8  UNL     1      26.450   1.926  53.732  1.00  0.00     0.052 C 
BRANCH   7   8
HETATM    8  C9  UNL     1      27.514   0.904  53.619  1.00  0.00    -0.024 A 
HETATM    9  C10 UNL     1      27.251  -0.416  53.246  1.00  0.00     0.010 A 
HETATM   10  C11 UNL     1      28.198  -1.409  53.132  1.00  0.00     0.001 A 
HETATM   11  C12 UNL     1      29.515  -1.086  53.406  1.00  0.00     0.003 A 
HETATM   12  C13 UNL     1      29.829   0.205  53.779  1.00  0.00     0.037 A 
HETATM   13  C14 UNL     1      28.850   1.171  53.882  1.00  0.00     0.071 A 
BRANCH  13  14
HETATM   14  O2  UNL     1      29.224   2.472  54.267  1.00  0.00    -0.360 OA
HETATM   15  H17 UNL     1      29.060   2.677  55.258  1.00  0.00     0.217 HD
ENDBRANCH  13  14
ENDBRANCH   7   8
ENDBRANCH   3   7
ENDBRANCH   2   3
BRANCH   1  16
HETATM   16  C3  UNL     1      26.930   3.858  49.042  1.00  0.00     0.037 C 
BRANCH  16  17
HETATM   17  C2  UNL     1      26.742   5.335  49.023  1.00  0.00    -0.028 C 
HETATM   18  C1  UNL     1      25.689   5.804  49.678  1.00  0.00     0.011 C 
BRANCH  17  19
HETATM   19  C15 UNL     1      27.712   6.198  48.296  1.00  0.00     0.041 C 
BRANCH  19  20
HETATM   20  C16 UNL     1      27.034   7.484  47.960  1.00  0.00     0.273 C 
BRANCH  20  21
HETATM   21  N1  UNL     1      27.926   8.625  47.975  1.00  0.00     0.092 N 
HETATM   22  C17 UNL     1      27.175   9.752  47.451  1.00  0.00     0.298 C 
HETATM   23  C18 UNL     1      27.046  10.856  48.488  1.00  0.00     0.198 C 
HETATM   24  O3  UNL     1      26.591  10.410  49.707  1.00  0.00    -0.388 OA
HETATM   25  C19 UNL     1      27.217   9.282  50.192  1.00  0.00     0.198 C 
HETATM   26  C20 UNL     1      28.375   8.960  49.296  1.00  0.00     0.298 C 
ENDBRANCH  20  21
ENDBRANCH  19  20
ENDBRANCH  17  19
ENDBRANCH  16  17
ENDBRANCH   1  16
TORSDOF 11
ENDMDL
MODEL 4
REMARK VINA RESULT:      -7.2      2.290      7.193
REMARK  11 active torsions:
REMARK  status: ('A' for Active; 'I' for Inactive)
REMARK    1  A    between atoms: C2_2  and  C3_3 
REMARK    2  A    between atoms: C2_2  and  C15_17 
REMARK    3  A    between atoms: C3_3  and  C4_4 
REMARK    4  A    between atoms: C5_5  and  C6_6 
REMARK    5  A    between atoms: C6_6  and  C7_7 
REMARK    6  A    between atoms: C6_6  and  C8_9 
REMARK    7  A    between atoms: C7_7  and  O1_8 
REMARK    8  A    between atoms: C8_9  and  C9_10 
REMARK    9  A    between atoms: C14_15  and  O2_16 
REMARK   10  A    between atoms: C15_17  and  C16_18 
REMARK   11  A    between atoms: C16_18  and  N1_19 
ROOT
HETATM    1  C4  UNL     1      26.384   2.753  50.908  1.00  0.00    -0.029 C 
HETATM    2  C5  UNL     1      26.214   1.553  51.427  1.00  0.00    -0.024 C 
ENDROOT
BRANCH   2   3
HETATM    3  C6  UNL     1      25.888   1.157  52.829  1.00  0.00     0.036 C 
BRANCH   3   4
HETATM    4  C7  UNL     1      26.882   1.771  53.753  1.00  0.00     0.172 C 
BRANCH   4   5
HETATM    5  O1  UNL     1      26.924   1.199  55.019  1.00  0.00    -0.400 OA
HETATM    6  H10 UNL     1      27.157   0.237  54.952  1.00  0.00     0.209 HD
ENDBRANCH   4   5
ENDBRANCH   3   4
BRANCH   3   7
HETATM    7  C8  UNL     1      25.705  -0.314  52.965  1.00  0.00     0.052 C 
BRANCH   7   8
HETATM    8  C9  UNL     1      24.386  -0.593  53.575  1.00  0.00    -0.024 A 
HETATM    9  C10 UNL     1      23.187  -0.426  52.879  1.00  0.00     0.010 A 
HETATM   10  C11 UNL     1      21.933  -0.662  53.398  1.00  0.00     0.001 A 
HETATM   11  C12 UNL     1      21.843  -1.098  54.708  1.00  0.00     0.003 A 
HETATM   12  C13 UNL     1      22.999  -1.279  55.439  1.00  0.00     0.037 A 
HETATM   13  C14 UNL     1      24.236  -1.031  54.883  1.00  0.00     0.071 A 
BRANCH  13  14
HETATM   14  O2  UNL     1      25.383  -1.231  55.673  1.00  0.00    -0.360 OA
HETATM   15  H17 UNL     1      26.000  -1.976  55.331  1.00  0.00     0.217 HD
ENDBRANCH  13  14
ENDBRANCH   7   8
ENDBRANCH   3   7
ENDBRANCH   2   3
BRANCH   1  16
HETATM   16  C3  UNL     1      26.685   3.531  49.700  1.00  0.00     0.037 C 
BRANCH  16  17
HETATM   17  C2  UNL     1      25.541   4.375  49.256  1.00  0.00    -0.028 C 
HETATM   18  C1  UNL     1      25.809   5.651  49.013  1.00  0.00     0.011 C 
BRANCH  17  19
HETATM   19  C15 UNL     1      24.189   3.773  49.107  1.00  0.00     0.041 C 
BRANCH  19  20
HETATM   20  C16 UNL     1      23.173   4.833  49.378  1.00  0.00     0.273 C 
BRANCH  20  21
HETATM   21  N1  UNL     1      22.169   4.433  50.343  1.00  0.00     0.092 N 
HETATM   22  C17 UNL     1      22.542   3.113  50.817  1.00  0.00     0.298 C 
HETATM   23  C18 UNL     1      22.820   3.122  52.311  1.00  0.00     0.198 C 
HETATM   24  O3  UNL     1      23.691   4.113  52.699  1.00  0.00    -0.388 OA
HETATM   25  C19 UNL     1      23.423   5.365  52.189  1.00  0.00     0.198 C 
HETATM   26  C20 UNL     1      22.106   5.315  51.474  1.00  0.00     0.298 C 
ENDBRANCH  20  21
ENDBRANCH  19  20
ENDBRANCH  17  19
ENDBRANCH  16  17
ENDBRANCH   1  16
TORSDOF 11
ENDMDL
MODEL 5
REMARK VINA RESULT:      -7.2      2.966      6.119
REMARK  11 active torsions:
REMARK  status: ('A' for Active; 'I' for Inactive)
REMARK    1  A    between atoms: C2_2  and  C3_3 
REMARK    2  A    between atoms: C2_2  and  C15_17 
REMARK    3  A    between atoms: C3_3  and  C4_4 
REMARK    4  A    between atoms: C5_5  and  C6_6 
REMARK    5  A    between atoms: C6_6  and  C7_7 
REMARK    6  A    between atoms: C6_6  and  C8_9 
REMARK    7  A    between atoms: C7_7  and  O1_8 
REMARK    8  A    between atoms: C8_9  and  C9_10 
REMARK    9  A    between atoms: C14_15  and  O2_16 
REMARK   10  A    between atoms: C15_17  and  C16_18 
REMARK   11  A    between atoms: C16_18  and  N1_19 
ROOT
HETATM    1  C4  UNL     1      23.158   2.573  49.993  1.00  0.00    -0.029 C 
HETATM    2  C5  UNL     1      22.216   1.721  49.639  1.00  0.00    -0.024 C 
ENDROOT
BRANCH   2   3
HETATM    3  C6  UNL     1      21.189   1.034  50.477  1.00  0.00     0.036 C 
BRANCH   3   4
HETATM    4  C7  UNL     1      19.889   1.030  49.750  1.00  0.00     0.172 C 
BRANCH   4   5
HETATM    5  O1  UNL     1      19.885   1.764  48.570  1.00  0.00    -0.400 OA
HETATM    6  H10 UNL     1      19.737   2.725  48.765  1.00  0.00     0.209 HD
ENDBRANCH   4   5
ENDBRANCH   3   4
BRANCH   3   7
HETATM    7  C8  UNL     1      21.150   1.572  51.865  1.00  0.00     0.052 C 
BRANCH   7   8
HETATM    8  C9  UNL     1      21.538   0.509  52.818  1.00  0.00    -0.024 A 
HETATM    9  C10 UNL     1      22.865   0.281  53.188  1.00  0.00     0.010 A 
HETATM   10  C11 UNL     1      23.285  -0.697  54.062  1.00  0.00     0.001 A 
HETATM   11  C12 UNL     1      22.326  -1.522  54.624  1.00  0.00     0.003 A 
HETATM   12  C13 UNL     1      21.000  -1.338  54.291  1.00  0.00     0.037 A 
HETATM   13  C14 UNL     1      20.620  -0.347  53.411  1.00  0.00     0.071 A 
BRANCH  13  14
HETATM   14  O2  UNL     1      19.255  -0.202  53.105  1.00  0.00    -0.360 OA
HETATM   15  H17 UNL     1      19.074   0.272  52.213  1.00  0.00     0.217 HD
ENDBRANCH  13  14
ENDBRANCH   7   8
ENDBRANCH   3   7
ENDBRANCH   2   3
BRANCH   1  16
HETATM   16  C3  UNL     1      24.276   3.413  49.546  1.00  0.00     0.037 C 
BRANCH  16  17
HETATM   17  C2  UNL     1      25.554   3.088  50.238  1.00  0.00    -0.028 C 
HETATM   18  C1  UNL     1      26.668   3.484  49.637  1.00  0.00     0.011 C 
BRANCH  17  19
HETATM   19  C15 UNL     1      25.533   2.357  51.534  1.00  0.00     0.041 C 
BRANCH  19  20
HETATM   20  C16 UNL     1      26.879   1.751  51.751  1.00  0.00     0.273 C 
BRANCH  20  21
HETATM   21  N1  UNL     1      27.384   1.937  53.096  1.00  0.00     0.092 N 
HETATM   22  C17 UNL     1      26.296   1.615  54.002  1.00  0.00     0.298 C 
HETATM   23  C18 UNL     1      26.652   0.437  54.893  1.00  0.00     0.198 C 
HETATM   24  O3  UNL     1      27.130  -0.649  54.198  1.00  0.00    -0.388 OA
HETATM   25  C19 UNL     1      28.098  -0.368  53.259  1.00  0.00     0.198 C 
HETATM   26  C20 UNL     1      28.489   1.074  53.398  1.00  0.00     0.298 C 
ENDBRANCH  20  21
ENDBRANCH  19  20
ENDBRANCH  17  19
ENDBRANCH  16  17
ENDBRANCH   1  16
TORSDOF 11
ENDMDL
MODEL 6
REMARK VINA RESULT:      -7.1      3.244      6.541
REMARK  11 active torsions:
REMARK  status: ('A' for Active; 'I' for Inactive)
REMARK    1  A    between atoms: C2_2  and  C3_3 
REMARK    2  A    between atoms: C2_2  and  C15_17 
REMARK    3  A    between atoms: C3_3  and  C4_4 
REMARK    4  A    between atoms: C5_5  and  C6_6 
REMARK    5  A    between atoms: C6_6  and  C7_7 
REMARK    6  A    between atoms: C6_6  and  C8_9 
REMARK    7  A    between atoms: C7_7  and  O1_8 
REMARK    8  A    between atoms: C8_9  and  C9_10 
REMARK    9  A    between atoms: C14_15  and  O2_16 
REMARK   10  A    between atoms: C15_17  and  C16_18 
REMARK   11  A    between atoms: C16_18  and  N1_19 
ROOT
HETATM    1  C4  UNL     1      22.441  -0.524  53.087  1.00  0.00    -0.029 C 
HETATM    2  C5  UNL     1      23.415  -0.127  53.883  1.00  0.00    -0.024 C 
ENDROOT
BRANCH   2   3
HETATM    3  C6  UNL     1      24.866  -0.482  53.865  1.00  0.00     0.036 C 
BRANCH   3   4
HETATM    4  C7  UNL     1      25.352  -0.615  55.267  1.00  0.00     0.172 C 
BRANCH   4   5
HETATM    5  O1  UNL     1      24.759  -1.644  55.989  1.00  0.00    -0.400 OA
HETATM    6  H10 UNL     1      24.422  -2.344  55.373  1.00  0.00     0.209 HD
ENDBRANCH   4   5
ENDBRANCH   3   4
BRANCH   3   7
HETATM    7  C8  UNL     1      25.653   0.433  52.993  1.00  0.00     0.052 C 
BRANCH   7   8
HETATM    8  C9  UNL     1      27.098   0.213  53.223  1.00  0.00    -0.024 A 
HETATM    9  C10 UNL     1      27.711  -1.024  53.013  1.00  0.00     0.010 A 
HETATM   10  C11 UNL     1      29.047  -1.288  53.218  1.00  0.00     0.001 A 
HETATM   11  C12 UNL     1      29.853  -0.256  53.667  1.00  0.00     0.003 A 
HETATM   12  C13 UNL     1      29.295   0.986  53.890  1.00  0.00     0.037 A 
HETATM   13  C14 UNL     1      27.952   1.210  53.673  1.00  0.00     0.071 A 
BRANCH  13  14
HETATM   14  O2  UNL     1      27.434   2.495  53.918  1.00  0.00    -0.360 OA
HETATM   15  H17 UNL     1      26.428   2.508  54.121  1.00  0.00     0.217 HD
ENDBRANCH  13  14
ENDBRANCH   7   8
ENDBRANCH   3   7
ENDBRANCH   2   3
BRANCH   1  16
HETATM   16  C3  UNL     1      21.011  -0.438  52.770  1.00  0.00     0.037 C 
BRANCH  16  17
HETATM   17  C2  UNL     1      20.742   0.316  51.515  1.00  0.00    -0.028 C 
HETATM   18  C1  UNL     1      19.468   0.507  51.202  1.00  0.00     0.011 C 
BRANCH  17  19
HETATM   19  C15 UNL     1      21.876   0.810  50.688  1.00  0.00     0.041 C 
BRANCH  19  20
HETATM   20  C16 UNL     1      21.855   2.303  50.709  1.00  0.00     0.273 C 
BRANCH  20  21
HETATM   21  N1  UNL     1      21.960   2.861  52.041  1.00  0.00     0.092 N 
HETATM   22  C17 UNL     1      23.328   3.320  52.198  1.00  0.00     0.298 C 
HETATM   23  C18 UNL     1      23.382   4.820  52.435  1.00  0.00     0.198 C 
HETATM   24  O3  UNL     1      22.660   5.545  51.516  1.00  0.00    -0.388 OA
HETATM   25  C19 UNL     1      21.386   5.080  51.269  1.00  0.00     0.198 C 
HETATM   26  C20 UNL     1      21.085   3.980  52.244  1.00  0.00     0.298 C 
ENDBRANCH  20  21
ENDBRANCH  19  20
ENDBRANCH  17  19
ENDBRANCH  16  17
ENDBRANCH   1  16
TORSDOF 11
ENDMDL
MODEL 7
REMARK VINA RESULT:      -7.0      3.849      6.678
REMARK  11 active torsions:
REMARK  status: ('A' for Active; 'I' for Inactive)
REMARK    1  A    between atoms: C2_2  and  C3_3 
REMARK    2  A    between atoms: C2_2  and  C15_17 
REMARK    3  A    between atoms: C3_3  and  C4_4 
REMARK    4  A    between atoms: C5_5  and  C6_6 
REMARK    5  A    between atoms: C6_6  and  C7_7 
REMARK    6  A    between atoms: C6_6  and  C8_9 
REMARK    7  A    between atoms: C7_7  and  O1_8 
REMARK    8  A    between atoms: C8_9  and  C9_10 
REMARK    9  A    between atoms: C14_15  and  O2_16 
REMARK   10  A    between atoms: C15_17  and  C16_18 
REMARK   11  A    between atoms: C16_18  and  N1_19 
ROOT
HETATM    1  C4  UNL     1      22.991  -0.424  53.492  1.00  0.00    -0.029 C 
HETATM    2  C5  UNL     1      24.294  -0.373  53.687  1.00  0.00    -0.024 C 
ENDROOT
BRANCH   2   3
HETATM    3  C6  UNL     1      25.268   0.707  53.347  1.00  0.00     0.036 C 
BRANCH   3   4
HETATM    4  C7  UNL     1      24.536   1.996  53.200  1.00  0.00     0.172 C 
BRANCH   4   5
HETATM    5  O1  UNL     1      25.331   3.072  52.822  1.00  0.00    -0.400 OA
HETATM    6  H10 UNL     1      24.891   3.584  52.095  1.00  0.00     0.209 HD
ENDBRANCH   4   5
ENDBRANCH   3   4
BRANCH   3   7
HETATM    7  C8  UNL     1      26.143   0.329  52.203  1.00  0.00     0.052 C 
BRANCH   7   8
HETATM    8  C9  UNL     1      27.465  -0.099  52.714  1.00  0.00    -0.024 A 
HETATM    9  C10 UNL     1      27.799  -1.443  52.894  1.00  0.00     0.010 A 
HETATM   10  C11 UNL     1      29.007  -1.900  53.373  1.00  0.00     0.001 A 
HETATM   11  C12 UNL     1      29.972  -0.963  53.702  1.00  0.00     0.003 A 
HETATM   12  C13 UNL     1      29.691   0.378  53.541  1.00  0.00     0.037 A 
HETATM   13  C14 UNL     1      28.468   0.794  53.060  1.00  0.00     0.071 A 
BRANCH  13  14
HETATM   14  O2  UNL     1      28.233   2.174  52.916  1.00  0.00    -0.360 OA
HETATM   15  H17 UNL     1      27.311   2.403  52.529  1.00  0.00     0.217 HD
ENDBRANCH  13  14
ENDBRANCH   7   8
ENDBRANCH   3   7
ENDBRANCH   2   3
BRANCH   1  16
HETATM   16  C3  UNL     1      21.762  -1.209  53.652  1.00  0.00     0.037 C 
BRANCH  16  17
HETATM   17  C2  UNL     1      20.528  -0.386  53.512  1.00  0.00    -0.028 C 
HETATM   18  C1  UNL     1      19.375  -1.041  53.544  1.00  0.00     0.011 C 
BRANCH  17  19
HETATM   19  C15 UNL     1      20.634   1.089  53.348  1.00  0.00     0.041 C 
BRANCH  19  20
HETATM   20  C16 UNL     1      20.244   1.433  51.950  1.00  0.00     0.273 C 
BRANCH  20  21
HETATM   21  N1  UNL     1      21.340   1.955  51.159  1.00  0.00     0.092 N 
HETATM   22  C17 UNL     1      21.730   0.905  50.236  1.00  0.00     0.298 C 
HETATM   23  C18 UNL     1      21.538   1.341  48.793  1.00  0.00     0.198 C 
HETATM   24  O3  UNL     1      20.290   1.861  48.540  1.00  0.00    -0.388 OA
HETATM   25  C19 UNL     1      19.845   2.793  49.452  1.00  0.00     0.198 C 
HETATM   26  C20 UNL     1      20.969   3.111  50.393  1.00  0.00     0.298 C 
ENDBRANCH  20  21
ENDBRANCH  19  20
ENDBRANCH  17  19
ENDBRANCH  16  17
ENDBRANCH   1  16
TORSDOF 11
ENDMDL
MODEL 8
REMARK VINA RESULT:      -7.0      2.570      7.174
REMARK  11 active torsions:
REMARK  status: ('A' for Active; 'I' for Inactive)
REMARK    1  A    between atoms: C2_2  and  C3_3 
REMARK    2  A    between atoms: C2_2  and  C15_17 
REMARK    3  A    between atoms: C3_3  and  C4_4 
REMARK    4  A    between atoms: C5_5  and  C6_6 
REMARK    5  A    between atoms: C6_6  and  C7_7 
REMARK    6  A    between atoms: C6_6  and  C8_9 
REMARK    7  A    between atoms: C7_7  and  O1_8 
REMARK    8  A    between atoms: C8_9  and  C9_10 
REMARK    9  A    between atoms: C14_15  and  O2_16 
REMARK   10  A    between atoms: C15_17  and  C16_18 
REMARK   11  A    between atoms: C16_18  and  N1_19 
ROOT
HETATM    1  C4  UNL     1      26.291   3.153  50.426  1.00  0.00    -0.029 C 
HETATM    2  C5  UNL     1      26.597   2.410  51.472  1.00  0.00    -0.024 C 
ENDROOT
BRANCH   2   3
HETATM    3  C6  UNL     1      25.715   1.870  52.549  1.00  0.00     0.036 C 
BRANCH   3   4
HETATM    4  C7  UNL     1      24.455   2.663  52.591  1.00  0.00     0.172 C 
BRANCH   4   5
HETATM    5  O1  UNL     1      24.489   3.755  53.450  1.00  0.00    -0.400 OA
HETATM    6  H10 UNL     1      23.800   3.656  54.157  1.00  0.00     0.209 HD
ENDBRANCH   4   5
ENDBRANCH   3   4
BRANCH   3   7
HETATM    7  C8  UNL     1      26.436   1.735  53.844  1.00  0.00     0.052 C 
BRANCH   7   8
HETATM    8  C9  UNL     1      27.559   0.784  53.688  1.00  0.00    -0.024 A 
HETATM    9  C10 UNL     1      27.365  -0.555  53.343  1.00  0.00     0.010 A 
HETATM   10  C11 UNL     1      28.369  -1.486  53.192  1.00  0.00     0.001 A 
HETATM   11  C12 UNL     1      29.674  -1.072  53.395  1.00  0.00     0.003 A 
HETATM   12  C13 UNL     1      29.920   0.242  53.737  1.00  0.00     0.037 A 
HETATM   13  C14 UNL     1      28.886   1.142  53.880  1.00  0.00     0.071 A 
BRANCH  13  14
HETATM   14  O2  UNL     1      29.191   2.470  54.231  1.00  0.00    -0.360 OA
HETATM   15  H17 UNL     1      28.610   3.171  53.757  1.00  0.00     0.217 HD
ENDBRANCH  13  14
ENDBRANCH   7   8
ENDBRANCH   3   7
ENDBRANCH   2   3
BRANCH   1  16
HETATM   16  C3  UNL     1      26.789   3.843  49.230  1.00  0.00     0.037 C 
BRANCH  16  17
HETATM   17  C2  UNL     1      26.289   5.242  49.121  1.00  0.00    -0.028 C 
HETATM   18  C1  UNL     1      27.071   6.100  48.479  1.00  0.00     0.011 C 
BRANCH  17  19
HETATM   19  C15 UNL     1      24.976   5.610  49.716  1.00  0.00     0.041 C 
BRANCH  19  20
HETATM   20  C16 UNL     1      23.938   5.523  48.648  1.00  0.00     0.273 C 
BRANCH  20  21
HETATM   21  N1  UNL     1      22.639   5.113  49.141  1.00  0.00     0.092 N 
HETATM   22  C17 UNL     1      21.709   5.239  48.034  1.00  0.00     0.298 C 
HETATM   23  C18 UNL     1      21.102   3.894  47.668  1.00  0.00     0.198 C 
HETATM   24  O3  UNL     1      22.038   2.903  47.491  1.00  0.00    -0.388 OA
HETATM   25  C19 UNL     1      22.996   2.815  48.477  1.00  0.00     0.198 C 
HETATM   26  C20 UNL     1      22.621   3.749  49.589  1.00  0.00     0.298 C 
ENDBRANCH  20  21
ENDBRANCH  19  20
ENDBRANCH  17  19
ENDBRANCH  16  17
ENDBRANCH   1  16
TORSDOF 11
ENDMDL
MODEL 9
REMARK VINA RESULT:      -6.9      2.793      7.525
REMARK  11 active torsions:
REMARK  status: ('A' for Active; 'I' for Inactive)
REMARK    1  A    between atoms: C2_2  and  C3_3 
REMARK    2  A    between atoms: C2_2  and  C15_17 
REMARK    3  A    between atoms: C3_3  and  C4_4 
REMARK    4  A    between atoms: C5_5  and  C6_6 
REMARK    5  A    between atoms: C6_6  and  C7_7 
REMARK    6  A    between atoms: C6_6  and  C8_9 
REMARK    7  A    between atoms: C7_7  and  O1_8 
REMARK    8  A    between atoms: C8_9  and  C9_10 
REMARK    9  A    between atoms: C14_15  and  O2_16 
REMARK   10  A    between atoms: C15_17  and  C16_18 
REMARK   11  A    between atoms: C16_18  and  N1_19 
ROOT
HETATM    1  C4  UNL     1      26.087   2.817  50.950  1.00  0.00    -0.029 C 
HETATM    2  C5  UNL     1      26.510   1.742  51.586  1.00  0.00    -0.024 C 
ENDROOT
BRANCH   2   3
HETATM    3  C6  UNL     1      26.156   1.237  52.946  1.00  0.00     0.036 C 
BRANCH   3   4
HETATM    4  C7  UNL     1      27.234   1.614  53.903  1.00  0.00     0.172 C 
BRANCH   4   5
HETATM    5  O1  UNL     1      27.380   0.746  54.978  1.00  0.00    -0.400 OA
HETATM    6  H10 UNL     1      26.607   0.127  55.026  1.00  0.00     0.209 HD
ENDBRANCH   4   5
ENDBRANCH   3   4
BRANCH   3   7
HETATM    7  C8  UNL     1      25.787  -0.205  52.926  1.00  0.00     0.052 C 
BRANCH   7   8
HETATM    8  C9  UNL     1      24.439  -0.378  53.511  1.00  0.00    -0.024 A 
HETATM    9  C10 UNL     1      23.277   0.029  52.851  1.00  0.00     0.010 A 
HETATM   10  C11 UNL     1      21.999  -0.098  53.349  1.00  0.00     0.001 A 
HETATM   11  C12 UNL     1      21.843  -0.673  54.598  1.00  0.00     0.003 A 
HETATM   12  C13 UNL     1      22.959  -1.093  55.292  1.00  0.00     0.037 A 
HETATM   13  C14 UNL     1      24.222  -0.946  54.758  1.00  0.00     0.071 A 
BRANCH  13  14
HETATM   14  O2  UNL     1      25.327  -1.390  55.507  1.00  0.00    -0.360 OA
HETATM   15  H17 UNL     1      25.119  -2.178  56.131  1.00  0.00     0.217 HD
ENDBRANCH  13  14
ENDBRANCH   7   8
ENDBRANCH   3   7
ENDBRANCH   2   3
BRANCH   1  16
HETATM   16  C3  UNL     1      26.163   3.621  49.724  1.00  0.00     0.037 C 
BRANCH  16  17
HETATM   17  C2  UNL     1      24.836   4.137  49.289  1.00  0.00    -0.028 C 
HETATM   18  C1  UNL     1      23.853   3.250  49.213  1.00  0.00     0.011 C 
BRANCH  17  19
HETATM   19  C15 UNL     1      24.669   5.580  48.969  1.00  0.00     0.041 C 
BRANCH  19  20
HETATM   20  C16 UNL     1      25.834   6.323  49.533  1.00  0.00     0.273 C 
BRANCH  20  21
HETATM   21  N1  UNL     1      26.052   7.612  48.908  1.00  0.00     0.092 N 
HETATM   22  C17 UNL     1      26.822   8.409  49.846  1.00  0.00     0.298 C 
HETATM   23  C18 UNL     1      28.170   8.797  49.262  1.00  0.00     0.198 C 
HETATM   24  O3  UNL     1      28.868   7.731  48.743  1.00  0.00    -0.388 OA
HETATM   25  C19 UNL     1      28.141   6.895  47.922  1.00  0.00     0.198 C 
HETATM   26  C20 UNL     1      26.796   7.515  47.685  1.00  0.00     0.298 C 
ENDBRANCH  20  21
ENDBRANCH  19  20
ENDBRANCH  17  19
ENDBRANCH  16  17
ENDBRANCH   1  16
TORSDOF 11
ENDMDL
