MODEL 1
REMARK VINA RESULT:      -8.1      0.000      0.000
REMARK  5 active torsions:
REMARK  status: ('A' for Active; 'I' for Inactive)
REMARK    1  A    between atoms: N1_1  and  S1_2 
REMARK    2  A    between atoms: S1_2  and  C1_5 
REMARK    3  A    between atoms: C1_5  and  C2_6 
REMARK    4  A    between atoms: C2_6  and  C4_9 
REMARK    5  A    between atoms: C8_15  and  P1_16 
ROOT
HETATM    1  C4  UNL     1      24.399   1.113  52.328  1.00  0.00     0.039 C 
HETATM    2  C5  UNL     1      23.532   0.494  53.081  1.00  0.00     0.048 A 
HETATM    3  N2  UNL     1      23.693  -0.609  53.998  1.00  0.00    -0.323 N 
HETATM    4  C6  UNL     1      22.466  -0.995  54.605  1.00  0.00     0.246 A 
HETATM    5  O3  UNL     1      22.305  -1.920  55.440  1.00  0.00    -0.268 OA
HETATM    6  C7  UNL     1      21.520  -0.080  54.026  1.00  0.00     0.090 A 
HETATM    7  C8  UNL     1      22.096   0.749  53.181  1.00  0.00     0.021 A 
HETATM    8  H7  UNL     1      24.593  -1.088  54.234  1.00  0.00     0.169 HD
ENDROOT
BRANCH   1   9
HETATM    9  C2  UNL     1      25.801   0.888  52.165  1.00  0.00    -0.034 C 
HETATM   10  C3  UNL     1      26.373   1.794  51.333  1.00  0.00     0.064 C 
HETATM   11 BR1  UNL     1      26.471   3.301  50.154  1.00  0.00    -0.063 Br
BRANCH   9  12
HETATM   12  C1  UNL     1      26.823  -0.053  52.639  1.00  0.00     0.196 C 
BRANCH  12  13
HETATM   13  S1  UNL     1      27.398   0.227  54.279  1.00  0.00     0.211 S 
HETATM   14  O1  UNL     1      27.704   1.649  54.587  1.00  0.00    -0.211 OA
HETATM   15  O2  UNL     1      28.663  -0.549  54.562  1.00  0.00    -0.211 OA
BRANCH  13  16
HETATM   16  N1  UNL     1      26.222  -0.396  55.410  1.00  0.00    -0.229 NA
HETATM   17  H1  UNL     1      25.288  -0.228  54.962  1.00  0.00     0.136 HD
HETATM   18  H2  UNL     1      26.330   0.121  56.311  1.00  0.00     0.136 HD
ENDBRANCH  13  16
ENDBRANCH  12  13
ENDBRANCH   9  12
ENDBRANCH   1   9
BRANCH   7  19
HETATM   19  P1  UNL     1      21.198   2.042  52.263  1.00  0.00     0.014 P 
HETATM   20  C9  UNL     1      22.132   2.739  50.879  1.00  0.00     0.061 C 
HETATM   21  C10 UNL     1      22.254   1.856  49.665  1.00  0.00     0.006 C 
HETATM   22  C11 UNL     1      21.265   0.733  49.805  1.00  0.00     0.002 C 
HETATM   23  C12 UNL     1      19.887   1.316  49.696  1.00  0.00     0.019 C 
HETATM   24  C13 UNL     1      19.058   1.073  50.920  1.00  0.00     0.118 C 
HETATM   25  N3  UNL     1      19.505   1.781  52.079  1.00  0.00    -0.394 N 
HETATM   26  H19 UNL     1      18.887   2.586  52.340  1.00  0.00     0.158 HD
ENDBRANCH   7  19
TORSDOF 5
ENDMDL
MODEL 2
REMARK VINA RESULT:      -8.0      1.428      2.148
REMARK  5 active torsions:
REMARK  status: ('A' for Active; 'I' for Inactive)
REMARK    1  A    between atoms: N1_1  and  S1_2 
REMARK    2  A    between atoms: S1_2  and  C1_5 
REMARK    3  A    between atoms: C1_5  and  C2_6 
REMARK    4  A    between atoms: C2_6  and  C4_9 
REMARK    5  A    between atoms: C8_15  and  P1_16 
ROOT
HETATM    1  C4  UNL     1      24.654   0.928  52.056  1.00  0.00     0.039 C 
HETATM    2  C5  UNL     1      23.855   0.320  52.887  1.00  0.00     0.048 A 
HETATM    3  N2  UNL     1      24.135  -0.473  54.061  1.00  0.00    -0.323 N 
HETATM    4  C6  UNL     1      22.955  -0.978  54.671  1.00  0.00     0.246 A 
HETATM    5  O3  UNL     1      22.896  -1.696  55.701  1.00  0.00    -0.268 OA
HETATM    6  C7  UNL     1      21.911  -0.464  53.826  1.00  0.00     0.090 A 
HETATM    7  C8  UNL     1      22.395   0.255  52.835  1.00  0.00     0.021 A 
HETATM    8  H7  UNL     1      25.083  -0.666  54.462  1.00  0.00     0.169 HD
ENDROOT
BRANCH   1   9
HETATM    9  C2  UNL     1      26.081   0.999  52.038  1.00  0.00    -0.034 C 
HETATM   10  C3  UNL     1      26.536   1.994  51.236  1.00  0.00     0.064 C 
HETATM   11 BR1  UNL     1      26.441   3.475  50.023  1.00  0.00    -0.063 Br
BRANCH   9  12
HETATM   12  C1  UNL     1      27.222   0.298  52.639  1.00  0.00     0.196 C 
BRANCH  12  13
HETATM   13  S1  UNL     1      27.660   0.829  54.259  1.00  0.00     0.211 S 
HETATM   14  O1  UNL     1      28.458  -0.158  55.032  1.00  0.00    -0.211 OA
HETATM   15  O2  UNL     1      26.437   1.131  55.092  1.00  0.00    -0.211 OA
BRANCH  13  16
HETATM   16  N1  UNL     1      28.519   2.346  54.150  1.00  0.00    -0.229 NA
HETATM   17  H1  UNL     1      28.372   2.679  53.165  1.00  0.00     0.136 HD
HETATM   18  H2  UNL     1      29.525   2.168  54.363  1.00  0.00     0.136 HD
ENDBRANCH  13  16
ENDBRANCH  12  13
ENDBRANCH   9  12
ENDBRANCH   1   9
BRANCH   7  19
HETATM   19  P1  UNL     1      21.358   1.060  51.570  1.00  0.00     0.014 P 
HETATM   20  C9  UNL     1      20.417   2.477  52.188  1.00  0.00     0.061 C 
HETATM   21  C10 UNL     1      21.215   3.729  52.440  1.00  0.00     0.006 C 
HETATM   22  C11 UNL     1      22.558   3.566  51.784  1.00  0.00     0.002 C 
HETATM   23  C12 UNL     1      22.347   3.558  50.299  1.00  0.00     0.019 C 
HETATM   24  C13 UNL     1      22.820   2.291  49.654  1.00  0.00     0.118 C 
HETATM   25  N3  UNL     1      22.043   1.139  49.991  1.00  0.00    -0.394 N 
HETATM   26  H19 UNL     1      21.430   0.806  49.210  1.00  0.00     0.158 HD
ENDBRANCH   7  19
TORSDOF 5
ENDMDL
MODEL 3
REMARK VINA RESULT:      -7.6      2.716      4.006
REMARK  5 active torsions:
REMARK  status: ('A' for Active; 'I' for Inactive)
REMARK    1  A    between atoms: N1_1  and  S1_2 
REMARK    2  A    between atoms: S1_2  and  C1_5 
REMARK    3  A    between atoms: C1_5  and  C2_6 
REMARK    4  A    between atoms: C2_6  and  C4_9 
REMARK    5  A    between atoms: C8_15  and  P1_16 
ROOT
HETATM    1  C4  UNL     1      24.159   1.056  52.271  1.00  0.00     0.039 C 
HETATM    2  C5  UNL     1      24.652   1.951  51.462  1.00  0.00     0.048 A 
HETATM    3  N2  UNL     1      26.013   2.218  51.061  1.00  0.00    -0.323 N 
HETATM    4  C6  UNL     1      26.111   3.319  50.167  1.00  0.00     0.246 A 
HETATM    5  O3  UNL     1      27.166   3.774  49.657  1.00  0.00    -0.268 OA
HETATM    6  C7  UNL     1      24.744   3.737  50.021  1.00  0.00     0.090 A 
HETATM    7  C8  UNL     1      23.925   2.990  50.732  1.00  0.00     0.021 A 
HETATM    8  H7  UNL     1      26.859   1.676  51.355  1.00  0.00     0.169 HD
ENDROOT
BRANCH   1   9
HETATM    9  C2  UNL     1      24.819   0.042  53.033  1.00  0.00    -0.034 C 
HETATM   10  C3  UNL     1      23.970  -0.608  53.868  1.00  0.00     0.064 C 
HETATM   11 BR1  UNL     1      22.309  -1.041  54.720  1.00  0.00    -0.063 Br
BRANCH   9  12
HETATM   12  C1  UNL     1      26.170  -0.512  53.183  1.00  0.00     0.196 C 
BRANCH  12  13
HETATM   13  S1  UNL     1      27.307   0.511  54.056  1.00  0.00     0.211 S 
HETATM   14  O1  UNL     1      28.169  -0.218  55.023  1.00  0.00    -0.211 OA
HETATM   15  O2  UNL     1      26.593   1.581  54.848  1.00  0.00    -0.211 OA
BRANCH  13  16
HETATM   16  N1  UNL     1      28.292   1.381  52.906  1.00  0.00    -0.229 NA
HETATM   17  H1  UNL     1      28.125   2.397  53.108  1.00  0.00     0.136 HD
HETATM   18  H2  UNL     1      27.986   1.112  51.944  1.00  0.00     0.136 HD
ENDBRANCH  13  16
ENDBRANCH  12  13
ENDBRANCH   9  12
ENDBRANCH   1   9
BRANCH   7  19
HETATM   19  P1  UNL     1      22.120   3.236  50.786  1.00  0.00     0.014 P 
HETATM   20  C9  UNL     1      21.277   2.802  49.245  1.00  0.00     0.061 C 
HETATM   21  C10 UNL     1      21.144   1.327  48.969  1.00  0.00     0.006 C 
HETATM   22  C11 UNL     1      21.465   0.584  50.235  1.00  0.00     0.002 C 
HETATM   23  C12 UNL     1      20.375   0.870  51.225  1.00  0.00     0.019 C 
HETATM   24  C13 UNL     1      20.885   1.520  52.476  1.00  0.00     0.118 C 
HETATM   25  N3  UNL     1      21.365   2.853  52.287  1.00  0.00    -0.394 N 
HETATM   26  H19 UNL     1      20.725   3.586  52.676  1.00  0.00     0.158 HD
ENDBRANCH   7  19
TORSDOF 5
ENDMDL
MODEL 4
REMARK VINA RESULT:      -7.6      2.805      3.777
REMARK  5 active torsions:
REMARK  status: ('A' for Active; 'I' for Inactive)
REMARK    1  A    between atoms: N1_1  and  S1_2 
REMARK    2  A    between atoms: S1_2  and  C1_5 
REMARK    3  A    between atoms: C1_5  and  C2_6 
REMARK    4  A    between atoms: C2_6  and  C4_9 
REMARK    5  A    between atoms: C8_15  and  P1_16 
ROOT
HETATM    1  C4  UNL     1      25.330   0.784  52.442  1.00  0.00     0.039 C 
HETATM    2  C5  UNL     1      24.493   1.783  52.414  1.00  0.00     0.048 A 
HETATM    3  N2  UNL     1      24.705   3.200  52.593  1.00  0.00    -0.323 N 
HETATM    4  C6  UNL     1      23.497   3.946  52.507  1.00  0.00     0.246 A 
HETATM    5  O3  UNL     1      23.380   5.192  52.624  1.00  0.00    -0.268 OA
HETATM    6  C7  UNL     1      22.510   2.930  52.264  1.00  0.00     0.090 A 
HETATM    7  C8  UNL     1      23.046   1.729  52.211  1.00  0.00     0.021 A 
HETATM    8  H7  UNL     1      25.626   3.670  52.753  1.00  0.00     0.169 HD
ENDROOT
BRANCH   1   9
HETATM    9  C2  UNL     1      26.742   0.773  52.668  1.00  0.00    -0.034 C 
HETATM   10  C3  UNL     1      27.258  -0.481  52.633  1.00  0.00     0.064 C 
HETATM   11 BR1  UNL     1      27.265  -2.389  52.454  1.00  0.00    -0.063 Br
BRANCH   9  12
HETATM   12  C1  UNL     1      27.817   1.735  52.934  1.00  0.00     0.196 C 
BRANCH  12  13
HETATM   13  S1  UNL     1      28.960   1.257  54.185  1.00  0.00     0.211 S 
HETATM   14  O1  UNL     1      28.363   0.450  55.283  1.00  0.00    -0.211 OA
HETATM   15  O2  UNL     1      29.598   2.459  54.841  1.00  0.00    -0.211 OA
BRANCH  13  16
HETATM   16  N1  UNL     1      30.283   0.387  53.448  1.00  0.00    -0.229 NA
HETATM   17  H1  UNL     1      31.079   0.462  54.128  1.00  0.00     0.136 HD
HETATM   18  H2  UNL     1      30.500   0.839  52.532  1.00  0.00     0.136 HD
ENDBRANCH  13  16
ENDBRANCH  12  13
ENDBRANCH   9  12
ENDBRANCH   1   9
BRANCH   7  19
HETATM   19  P1  UNL     1      22.089   0.206  51.919  1.00  0.00     0.014 P 
HETATM   20  C9  UNL     1      22.369  -1.083  53.158  1.00  0.00     0.061 C 
HETATM   21  C10 UNL     1      21.727  -0.847  54.500  1.00  0.00     0.006 C 
HETATM   22  C11 UNL     1      20.728   0.265  54.349  1.00  0.00     0.002 C 
HETATM   23  C12 UNL     1      19.606  -0.238  53.490  1.00  0.00     0.019 C 
HETATM   24  C13 UNL     1      19.427   0.569  52.241  1.00  0.00     0.118 C 
HETATM   25  N3  UNL     1      20.497   0.437  51.302  1.00  0.00    -0.394 N 
HETATM   26  H19 UNL     1      20.245  -0.134  50.461  1.00  0.00     0.158 HD
ENDBRANCH   7  19
TORSDOF 5
ENDMDL
MODEL 5
REMARK VINA RESULT:      -7.5      2.210      3.343
REMARK  5 active torsions:
REMARK  status: ('A' for Active; 'I' for Inactive)
REMARK    1  A    between atoms: N1_1  and  S1_2 
REMARK    2  A    between atoms: S1_2  and  C1_5 
REMARK    3  A    between atoms: C1_5  and  C2_6 
REMARK    4  A    between atoms: C2_6  and  C4_9 
REMARK    5  A    between atoms: C8_15  and  P1_16 
ROOT
HETATM    1  C4  UNL     1      24.962   1.353  51.938  1.00  0.00     0.039 C 
HETATM    2  C5  UNL     1      23.967   2.190  52.029  1.00  0.00     0.048 A 
HETATM    3  N2  UNL     1      23.948   3.625  52.188  1.00  0.00    -0.323 N 
HETATM    4  C6  UNL     1      22.628   4.146  52.270  1.00  0.00     0.246 A 
HETATM    5  O3  UNL     1      22.310   5.354  52.410  1.00  0.00    -0.268 OA
HETATM    6  C7  UNL     1      21.810   2.969  52.154  1.00  0.00     0.090 A 
HETATM    7  C8  UNL     1      22.537   1.880  52.021  1.00  0.00     0.021 A 
HETATM    8  H7  UNL     1      24.786   4.251  52.227  1.00  0.00     0.169 HD
ENDROOT
BRANCH   1   9
HETATM    9  C2  UNL     1      26.371   1.593  51.972  1.00  0.00    -0.034 C 
HETATM   10  C3  UNL     1      26.764   2.488  51.032  1.00  0.00     0.064 C 
HETATM   11 BR1  UNL     1      26.583   3.724  49.579  1.00  0.00    -0.063 Br
BRANCH   9  12
HETATM   12  C1  UNL     1      27.541   1.145  52.737  1.00  0.00     0.196 C 
BRANCH  12  13
HETATM   13  S1  UNL     1      27.178   0.220  54.190  1.00  0.00     0.211 S 
HETATM   14  O1  UNL     1      26.407   0.970  55.217  1.00  0.00    -0.211 OA
HETATM   15  O2  UNL     1      28.439  -0.257  54.872  1.00  0.00    -0.211 OA
BRANCH  13  16
HETATM   16  N1  UNL     1      26.327  -1.238  53.742  1.00  0.00    -0.229 NA
HETATM   17  H1  UNL     1      26.627  -1.444  52.757  1.00  0.00     0.136 HD
HETATM   18  H2  UNL     1      25.302  -1.053  53.815  1.00  0.00     0.136 HD
ENDBRANCH  13  16
ENDBRANCH  12  13
ENDBRANCH   9  12
ENDBRANCH   1   9
BRANCH   7  19
HETATM   19  P1  UNL     1      21.833   0.208  51.848  1.00  0.00     0.014 P 
HETATM   20  C9  UNL     1      22.397  -0.958  53.112  1.00  0.00     0.061 C 
HETATM   21  C10 UNL     1      21.804  -0.768  54.484  1.00  0.00     0.006 C 
HETATM   22  C11 UNL     1      20.626   0.157  54.358  1.00  0.00     0.002 C 
HETATM   23  C12 UNL     1      19.555  -0.564  53.594  1.00  0.00     0.019 C 
HETATM   24  C13 UNL     1      19.171   0.144  52.330  1.00  0.00     0.118 C 
HETATM   25  N3  UNL     1      20.191   0.145  51.329  1.00  0.00    -0.394 N 
HETATM   26  H19 UNL     1      19.989  -0.498  50.527  1.00  0.00     0.158 HD
ENDBRANCH   7  19
TORSDOF 5
ENDMDL
MODEL 6
REMARK VINA RESULT:      -7.2      2.952      4.083
REMARK  5 active torsions:
REMARK  status: ('A' for Active; 'I' for Inactive)
REMARK    1  A    between atoms: N1_1  and  S1_2 
REMARK    2  A    between atoms: S1_2  and  C1_5 
REMARK    3  A    between atoms: C1_5  and  C2_6 
REMARK    4  A    between atoms: C2_6  and  C4_9 
REMARK    5  A    between atoms: C8_15  and  P1_16 
ROOT
HETATM    1  C4  UNL     1      25.527   1.381  52.875  1.00  0.00     0.039 C 
HETATM    2  C5  UNL     1      25.591   2.123  51.805  1.00  0.00     0.048 A 
HETATM    3  N2  UNL     1      26.717   2.511  50.988  1.00  0.00    -0.323 N 
HETATM    4  C6  UNL     1      26.342   3.361  49.912  1.00  0.00     0.246 A 
HETATM    5  O3  UNL     1      27.109   3.852  49.046  1.00  0.00    -0.268 OA
HETATM    6  C7  UNL     1      24.921   3.492  50.087  1.00  0.00     0.090 A 
HETATM    7  C8  UNL     1      24.492   2.813  51.130  1.00  0.00     0.021 A 
HETATM    8  H7  UNL     1      27.710   2.210  51.125  1.00  0.00     0.169 HD
ENDROOT
BRANCH   1   9
HETATM    9  C2  UNL     1      26.565   0.711  53.593  1.00  0.00    -0.034 C 
HETATM   10  C3  UNL     1      26.776  -0.548  53.137  1.00  0.00     0.064 C 
HETATM   11 BR1  UNL     1      26.524  -2.101  52.042  1.00  0.00    -0.063 Br
BRANCH   9  12
HETATM   12  C1  UNL     1      27.486   0.989  54.702  1.00  0.00     0.196 C 
BRANCH  12  13
HETATM   13  S1  UNL     1      29.071   1.590  54.229  1.00  0.00     0.211 S 
HETATM   14  O1  UNL     1      30.002   0.541  53.737  1.00  0.00    -0.211 OA
HETATM   15  O2  UNL     1      29.772   2.272  55.381  1.00  0.00    -0.211 OA
BRANCH  13  16
HETATM   16  N1  UNL     1      28.872   2.835  53.020  1.00  0.00    -0.229 NA
HETATM   17  H1  UNL     1      29.620   3.543  53.224  1.00  0.00     0.136 HD
HETATM   18  H2  UNL     1      27.912   3.233  53.117  1.00  0.00     0.136 HD
ENDBRANCH  13  16
ENDBRANCH  12  13
ENDBRANCH   9  12
ENDBRANCH   1   9
BRANCH   7  19
HETATM   19  P1  UNL     1      22.746   2.753  51.650  1.00  0.00     0.014 P 
HETATM   20  C9  UNL     1      21.595   3.426  50.427  1.00  0.00     0.061 C 
HETATM   21  C10 UNL     1      21.344   2.557  49.222  1.00  0.00     0.006 C 
HETATM   22  C11 UNL     1      21.877   1.184  49.519  1.00  0.00     0.002 C 
HETATM   23  C12 UNL     1      21.019   0.579  50.590  1.00  0.00     0.019 C 
HETATM   24  C13 UNL     1      21.796   0.226  51.822  1.00  0.00     0.118 C 
HETATM   25  N3  UNL     1      22.287   1.355  52.547  1.00  0.00    -0.394 N 
HETATM   26  H19 UNL     1      21.771   1.535  53.440  1.00  0.00     0.158 HD
ENDBRANCH   7  19
TORSDOF 5
ENDMDL
MODEL 7
REMARK VINA RESULT:      -7.2      3.226      6.110
REMARK  5 active torsions:
REMARK  status: ('A' for Active; 'I' for Inactive)
REMARK    1  A    between atoms: N1_1  and  S1_2 
REMARK    2  A    between atoms: S1_2  and  C1_5 
REMARK    3  A    between atoms: C1_5  and  C2_6 
REMARK    4  A    between atoms: C2_6  and  C4_9 
REMARK    5  A    between atoms: C8_15  and  P1_16 
ROOT
HETATM    1  C4  UNL     1      23.656   1.130  51.965  1.00  0.00     0.039 C 
HETATM    2  C5  UNL     1      23.769   0.296  52.960  1.00  0.00     0.048 A 
HETATM    3  N2  UNL     1      22.807  -0.139  53.945  1.00  0.00    -0.323 N 
HETATM    4  C6  UNL     1      23.362  -1.053  54.882  1.00  0.00     0.246 A 
HETATM    5  O3  UNL     1      22.760  -1.592  55.844  1.00  0.00    -0.268 OA
HETATM    6  C7  UNL     1      24.724  -1.177  54.440  1.00  0.00     0.090 A 
HETATM    7  C8  UNL     1      24.964  -0.437  53.379  1.00  0.00     0.021 A 
HETATM    8  H7  UNL     1      21.801   0.148  53.992  1.00  0.00     0.169 HD
ENDROOT
BRANCH   1   9
HETATM    9  C2  UNL     1      22.530   1.895  51.529  1.00  0.00    -0.034 C 
HETATM   10  C3  UNL     1      22.687   3.221  51.766  1.00  0.00     0.064 C 
HETATM   11 BR1  UNL     1      23.551   4.823  52.367  1.00  0.00    -0.063 Br
BRANCH   9  12
HETATM   12  C1  UNL     1      21.228   1.664  50.893  1.00  0.00     0.196 C 
BRANCH  12  13
HETATM   13  S1  UNL     1      19.854   1.610  51.993  1.00  0.00     0.211 S 
HETATM   14  O1  UNL     1      19.177   2.919  52.191  1.00  0.00    -0.211 OA
HETATM   15  O2  UNL     1      20.264   1.133  53.367  1.00  0.00    -0.211 OA
BRANCH  13  16
HETATM   16  N1  UNL     1      18.712   0.419  51.423  1.00  0.00    -0.229 NA
HETATM   17  H1  UNL     1      19.267  -0.230  50.813  1.00  0.00     0.136 HD
HETATM   18  H2  UNL     1      17.959   0.915  50.895  1.00  0.00     0.136 HD
ENDBRANCH  13  16
ENDBRANCH  12  13
ENDBRANCH   9  12
ENDBRANCH   1   9
BRANCH   7  19
HETATM   19  P1  UNL     1      26.586  -0.350  52.551  1.00  0.00     0.014 P 
HETATM   20  C9  UNL     1      26.820   1.144  51.557  1.00  0.00     0.061 C 
HETATM   21  C10 UNL     1      27.065   2.412  52.334  1.00  0.00     0.006 C 
HETATM   22  C11 UNL     1      27.381   2.034  53.754  1.00  0.00     0.002 C 
HETATM   23  C12 UNL     1      28.711   1.340  53.759  1.00  0.00     0.019 C 
HETATM   24  C13 UNL     1      28.632  -0.057  54.296  1.00  0.00     0.118 C 
HETATM   25  N3  UNL     1      27.915  -0.965  53.458  1.00  0.00    -0.394 N 
HETATM   26  H19 UNL     1      28.533  -1.648  52.958  1.00  0.00     0.158 HD
ENDBRANCH   7  19
TORSDOF 5
ENDMDL
MODEL 8
REMARK VINA RESULT:      -7.2      4.119      7.100
REMARK  5 active torsions:
REMARK  status: ('A' for Active; 'I' for Inactive)
REMARK    1  A    between atoms: N1_1  and  S1_2 
REMARK    2  A    between atoms: S1_2  and  C1_5 
REMARK    3  A    between atoms: C1_5  and  C2_6 
REMARK    4  A    between atoms: C2_6  and  C4_9 
REMARK    5  A    between atoms: C8_15  and  P1_16 
ROOT
HETATM    1  C4  UNL     1      23.346   1.187  52.459  1.00  0.00     0.039 C 
HETATM    2  C5  UNL     1      24.241   1.891  51.823  1.00  0.00     0.048 A 
HETATM    3  N2  UNL     1      24.187   2.555  50.542  1.00  0.00    -0.323 N 
HETATM    4  C6  UNL     1      25.410   3.198  50.210  1.00  0.00     0.246 A 
HETATM    5  O3  UNL     1      25.651   3.850  49.163  1.00  0.00    -0.268 OA
HETATM    6  C7  UNL     1      26.243   2.909  51.346  1.00  0.00     0.090 A 
HETATM    7  C8  UNL     1      25.609   2.186  52.245  1.00  0.00     0.021 A 
HETATM    8  H7  UNL     1      23.357   2.599  49.905  1.00  0.00     0.169 HD
ENDROOT
BRANCH   1   9
HETATM    9  C2  UNL     1      22.012   0.840  52.083  1.00  0.00    -0.034 C 
HETATM   10  C3  UNL     1      21.492  -0.133  52.873  1.00  0.00     0.064 C 
HETATM   11 BR1  UNL     1      21.436  -1.424  54.288  1.00  0.00    -0.063 Br
BRANCH   9  12
HETATM   12  C1  UNL     1      21.020   1.230  51.073  1.00  0.00     0.196 C 
BRANCH  12  13
HETATM   13  S1  UNL     1      20.324   2.833  51.285  1.00  0.00     0.211 S 
HETATM   14  O1  UNL     1      19.943   3.155  52.686  1.00  0.00    -0.211 OA
HETATM   15  O2  UNL     1      19.074   3.008  50.455  1.00  0.00    -0.211 OA
BRANCH  13  16
HETATM   16  N1  UNL     1      21.444   4.027  50.675  1.00  0.00    -0.229 NA
HETATM   17  H1  UNL     1      21.836   4.501  51.526  1.00  0.00     0.136 HD
HETATM   18  H2  UNL     1      20.915   4.686  50.061  1.00  0.00     0.136 HD
ENDBRANCH  13  16
ENDBRANCH  12  13
ENDBRANCH   9  12
ENDBRANCH   1   9
BRANCH   7  19
HETATM   19  P1  UNL     1      26.360   1.635  53.812  1.00  0.00     0.014 P 
HETATM   20  C9  UNL     1      25.849  -0.024  54.324  1.00  0.00     0.061 C 
HETATM   21  C10 UNL     1      26.455  -1.162  53.546  1.00  0.00     0.006 C 
HETATM   22  C11 UNL     1      27.604  -0.618  52.744  1.00  0.00     0.002 C 
HETATM   23  C12 UNL     1      28.684  -0.214  53.703  1.00  0.00     0.019 C 
HETATM   24  C13 UNL     1      29.029   1.241  53.607  1.00  0.00     0.118 C 
HETATM   25  N3  UNL     1      27.995   2.118  54.061  1.00  0.00    -0.394 N 
HETATM   26  H19 UNL     1      28.204   2.566  54.984  1.00  0.00     0.158 HD
ENDBRANCH   7  19
TORSDOF 5
ENDMDL
MODEL 9
REMARK VINA RESULT:      -7.1      4.173      7.166
REMARK  5 active torsions:
REMARK  status: ('A' for Active; 'I' for Inactive)
REMARK    1  A    between atoms: N1_1  and  S1_2 
REMARK    2  A    between atoms: S1_2  and  C1_5 
REMARK    3  A    between atoms: C1_5  and  C2_6 
REMARK    4  A    between atoms: C2_6  and  C4_9 
REMARK    5  A    between atoms: C8_15  and  P1_16 
ROOT
HETATM    1  C4  UNL     1      23.406   2.040  52.230  1.00  0.00     0.039 C 
HETATM    2  C5  UNL     1      24.512   2.416  51.652  1.00  0.00     0.048 A 
HETATM    3  N2  UNL     1      24.746   3.039  50.371  1.00  0.00    -0.323 N 
HETATM    4  C6  UNL     1      26.127   3.262  50.117  1.00  0.00     0.246 A 
HETATM    5  O3  UNL     1      26.622   3.785  49.087  1.00  0.00    -0.268 OA
HETATM    6  C7  UNL     1      26.757   2.750  51.303  1.00  0.00     0.090 A 
HETATM    7  C8  UNL     1      25.876   2.278  52.161  1.00  0.00     0.021 A 
HETATM    8  H7  UNL     1      24.011   3.327  49.682  1.00  0.00     0.169 HD
ENDROOT
BRANCH   1   9
HETATM    9  C2  UNL     1      22.055   2.119  51.770  1.00  0.00    -0.034 C 
HETATM   10  C3  UNL     1      21.201   1.421  52.561  1.00  0.00     0.064 C 
HETATM   11 BR1  UNL     1      20.646   0.314  54.023  1.00  0.00    -0.063 Br
BRANCH   9  12
HETATM   12  C1  UNL     1      21.305   2.741  50.673  1.00  0.00     0.196 C 
BRANCH  12  13
HETATM   13  S1  UNL     1      21.408   1.907  49.126  1.00  0.00     0.211 S 
HETATM   14  O1  UNL     1      21.491   0.426  49.233  1.00  0.00    -0.211 OA
HETATM   15  O2  UNL     1      22.624   2.343  48.342  1.00  0.00    -0.211 OA
BRANCH  13  16
HETATM   16  N1  UNL     1      20.044   2.365  48.137  1.00  0.00    -0.229 NA
HETATM   17  H1  UNL     1      20.373   2.266  47.146  1.00  0.00     0.136 HD
HETATM   18  H2  UNL     1      19.785   3.348  48.374  1.00  0.00     0.136 HD
ENDBRANCH  13  16
ENDBRANCH  12  13
ENDBRANCH   9  12
ENDBRANCH   1   9
BRANCH   7  19
HETATM   19  P1  UNL     1      26.321   1.552  53.772  1.00  0.00     0.014 P 
HETATM   20  C9  UNL     1      25.682  -0.123  54.020  1.00  0.00     0.061 C 
HETATM   21  C10 UNL     1      26.387  -1.210  53.250  1.00  0.00     0.006 C 
HETATM   22  C11 UNL     1      27.674  -0.645  52.719  1.00  0.00     0.002 C 
HETATM   23  C12 UNL     1      28.577  -0.380  53.887  1.00  0.00     0.019 C 
HETATM   24  C13 UNL     1      28.973   1.061  53.997  1.00  0.00     0.118 C 
HETATM   25  N3  UNL     1      27.899   1.936  54.349  1.00  0.00    -0.394 N 
HETATM   26  H19 UNL     1      27.952   2.287  55.334  1.00  0.00     0.158 HD
ENDBRANCH   7  19
TORSDOF 5
ENDMDL
