MODEL 1
REMARK VINA RESULT:      -9.3      0.000      0.000
REMARK  6 active torsions:
REMARK  status: ('A' for Active; 'I' for Inactive)
REMARK    1  A    between atoms: N1_2  and  C2_3 
REMARK    2  A    between atoms: C3_4  and  N2_5 
REMARK    3  A    between atoms: N2_5  and  C4_6 
REMARK    4  A    between atoms: C6_8  and  C7_9 
REMARK    5  A    between atoms: C17_22  and  O1_23 
REMARK    6  A    between atoms: O1_23  and  C18_24 
ROOT
HETATM    1  C2  UNL     1      23.330   3.070  50.635  1.00  0.00     0.128 A 
HETATM    2  C3  UNL     1      22.577   1.919  50.698  1.00  0.00     0.160 A 
HETATM    3  N3  UNL     1      22.053   1.398  49.551  1.00  0.00    -0.222 NA
HETATM    4  C16 UNL     1      22.285   2.024  48.362  1.00  0.00     0.238 A 
HETATM    5  N4  UNL     1      23.027   3.146  48.346  1.00  0.00    -0.215 NA
HETATM    6  C17 UNL     1      23.571   3.710  49.439  1.00  0.00     0.201 A 
ENDROOT
BRANCH   2   7
HETATM    7  N2  UNL     1      22.294   1.230  51.891  1.00  0.00    -0.336 N 
HETATM    8  H5  UNL     1      21.260   1.464  51.941  1.00  0.00     0.168 HD
BRANCH   7   9
HETATM    9  C4  UNL     1      22.787   0.432  52.939  1.00  0.00     0.073 A 
HETATM   10  C5  UNL     1      24.168   0.354  52.895  1.00  0.00     0.045 A 
HETATM   11  C6  UNL     1      24.885  -0.389  53.841  1.00  0.00    -0.024 A 
HETATM   12  C13 UNL     1      24.106  -1.020  54.794  1.00  0.00     0.015 A 
HETATM   13  C14 UNL     1      22.735  -0.981  54.892  1.00  0.00     0.045 A 
HETATM   14  C15 UNL     1      22.116  -0.227  53.922  1.00  0.00     0.143 A 
HETATM   15  F1  UNL     1      20.777  -0.118  53.909  1.00  0.00    -0.204 F 
BRANCH  11  16
HETATM   16  C7  UNL     1      26.341  -0.507  53.840  1.00  0.00    -0.026 A 
HETATM   17  C8  UNL     1      26.972   0.243  54.812  1.00  0.00     0.012 A 
HETATM   18  C9  UNL     1      28.367   0.201  54.900  1.00  0.00     0.001 A 
HETATM   19  C10 UNL     1      29.069  -0.588  54.012  1.00  0.00     0.000 A 
HETATM   20  C11 UNL     1      28.410  -1.326  53.051  1.00  0.00     0.001 A 
HETATM   21  C12 UNL     1      27.025  -1.303  52.941  1.00  0.00     0.012 A 
ENDBRANCH  11  16
ENDBRANCH   7   9
ENDBRANCH   2   7
BRANCH   1  22
HETATM   22  N1  UNL     1      23.907   3.666  51.787  1.00  0.00    -0.388 N 
HETATM   23  C1  UNL     1      23.564   4.582  52.844  1.00  0.00     0.146 C 
HETATM   24  H4  UNL     1      24.880   3.247  51.777  1.00  0.00     0.159 HD
ENDBRANCH   1  22
BRANCH   6  25
HETATM   25  O1  UNL     1      24.333   4.870  49.392  1.00  0.00    -0.294 OA
BRANCH  25  26
HETATM   26  C18 UNL     1      25.680   4.815  49.159  1.00  0.00     0.063 A 
HETATM   27  C19 UNL     1      26.854   4.172  49.185  1.00  0.00     0.013 A 
HETATM   28  C20 UNL     1      27.888   5.117  48.598  1.00  0.00     0.033 A 
HETATM   29  C21 UNL     1      27.663   6.503  48.200  1.00  0.00     0.017 A 
HETATM   30  C22 UNL     1      26.570   5.875  48.630  1.00  0.00     0.036 A 
ENDBRANCH  25  26
ENDBRANCH   6  25
TORSDOF 6
ENDMDL
MODEL 2
REMARK VINA RESULT:      -9.1      2.734      5.436
REMARK  6 active torsions:
REMARK  status: ('A' for Active; 'I' for Inactive)
REMARK    1  A    between atoms: N1_2  and  C2_3 
REMARK    2  A    between atoms: C3_4  and  N2_5 
REMARK    3  A    between atoms: N2_5  and  C4_6 
REMARK    4  A    between atoms: C6_8  and  C7_9 
REMARK    5  A    between atoms: C17_22  and  O1_23 
REMARK    6  A    between atoms: O1_23  and  C18_24 
ROOT
HETATM    1  C2  UNL     1      24.784   2.382  51.207  1.00  0.00     0.128 A 
HETATM    2  C3  UNL     1      24.741   1.858  52.480  1.00  0.00     0.160 A 
HETATM    3  N3  UNL     1      25.902   1.713  53.183  1.00  0.00    -0.222 NA
HETATM    4  C16 UNL     1      27.083   2.089  52.614  1.00  0.00     0.238 A 
HETATM    5  N4  UNL     1      27.078   2.596  51.368  1.00  0.00    -0.215 NA
HETATM    6  C17 UNL     1      25.971   2.765  50.624  1.00  0.00     0.201 A 
ENDROOT
BRANCH   2   7
HETATM    7  N2  UNL     1      23.561   1.444  53.121  1.00  0.00    -0.336 N 
HETATM    8  H5  UNL     1      23.161   2.409  53.308  1.00  0.00     0.168 HD
BRANCH   7   9
HETATM    9  C4  UNL     1      22.776   0.365  53.567  1.00  0.00     0.073 A 
HETATM   10  C5  UNL     1      21.509   0.410  53.011  1.00  0.00     0.045 A 
HETATM   11  C6  UNL     1      20.548  -0.564  53.312  1.00  0.00    -0.024 A 
HETATM   12  C13 UNL     1      20.971  -1.544  54.190  1.00  0.00     0.015 A 
HETATM   13  C14 UNL     1      22.212  -1.644  54.775  1.00  0.00     0.045 A 
HETATM   14  C15 UNL     1      23.090  -0.646  54.422  1.00  0.00     0.143 A 
HETATM   15  F1  UNL     1      24.332  -0.632  54.933  1.00  0.00    -0.204 F 
BRANCH  11  16
HETATM   16  C7  UNL     1      19.198  -0.563  52.754  1.00  0.00    -0.026 A 
HETATM   17  C8  UNL     1      19.058   0.188  51.605  1.00  0.00     0.012 A 
HETATM   18  C9  UNL     1      17.804   0.254  50.987  1.00  0.00     0.001 A 
HETATM   19  C10 UNL     1      16.747  -0.434  51.548  1.00  0.00     0.000 A 
HETATM   20  C11 UNL     1      16.918  -1.176  52.697  1.00  0.00     0.001 A 
HETATM   21  C12 UNL     1      18.152  -1.259  53.331  1.00  0.00     0.012 A 
ENDBRANCH  11  16
ENDBRANCH   7   9
ENDBRANCH   2   7
BRANCH   1  22
HETATM   22  N1  UNL     1      23.616   2.562  50.420  1.00  0.00    -0.388 N 
HETATM   23  C1  UNL     1      22.572   1.788  49.801  1.00  0.00     0.146 C 
HETATM   24  H4  UNL     1      23.596   3.617  50.311  1.00  0.00     0.159 HD
ENDBRANCH   1  22
BRANCH   6  25
HETATM   25  O1  UNL     1      25.996   3.291  49.339  1.00  0.00    -0.294 OA
BRANCH  25  26
HETATM   26  C18 UNL     1      26.444   4.564  49.111  1.00  0.00     0.063 A 
HETATM   27  C19 UNL     1      26.266   5.891  49.104  1.00  0.00     0.013 A 
HETATM   28  C20 UNL     1      27.570   6.509  48.633  1.00  0.00     0.033 A 
HETATM   29  C21 UNL     1      28.747   5.786  48.161  1.00  0.00     0.017 A 
HETATM   30  C22 UNL     1      27.754   5.001  48.575  1.00  0.00     0.036 A 
ENDBRANCH  25  26
ENDBRANCH   6  25
TORSDOF 6
ENDMDL
MODEL 3
REMARK VINA RESULT:      -9.0      2.267      6.672
REMARK  6 active torsions:
REMARK  status: ('A' for Active; 'I' for Inactive)
REMARK    1  A    between atoms: N1_2  and  C2_3 
REMARK    2  A    between atoms: C3_4  and  N2_5 
REMARK    3  A    between atoms: N2_5  and  C4_6 
REMARK    4  A    between atoms: C6_8  and  C7_9 
REMARK    5  A    between atoms: C17_22  and  O1_23 
REMARK    6  A    between atoms: O1_23  and  C18_24 
ROOT
HETATM    1  C2  UNL     1      25.394   0.935  53.760  1.00  0.00     0.128 A 
HETATM    2  C3  UNL     1      24.094   0.627  53.428  1.00  0.00     0.160 A 
HETATM    3  N3  UNL     1      23.490  -0.447  54.014  1.00  0.00    -0.222 NA
HETATM    4  C16 UNL     1      24.183  -1.196  54.919  1.00  0.00     0.238 A 
HETATM    5  N4  UNL     1      25.451  -0.859  55.214  1.00  0.00    -0.215 NA
HETATM    6  C17 UNL     1      26.103   0.186  54.673  1.00  0.00     0.201 A 
ENDROOT
BRANCH   2   7
HETATM    7  N2  UNL     1      23.327   1.351  52.498  1.00  0.00    -0.336 N 
HETATM    8  H5  UNL     1      22.570   1.673  53.168  1.00  0.00     0.168 HD
BRANCH   7   9
HETATM    9  C4  UNL     1      23.180   1.777  51.166  1.00  0.00     0.073 A 
HETATM   10  C5  UNL     1      24.107   2.757  50.853  1.00  0.00     0.045 A 
HETATM   11  C6  UNL     1      24.152   3.335  49.579  1.00  0.00    -0.024 A 
HETATM   12  C13 UNL     1      23.211   2.852  48.689  1.00  0.00     0.015 A 
HETATM   13  C14 UNL     1      22.266   1.884  48.937  1.00  0.00     0.045 A 
HETATM   14  C15 UNL     1      22.297   1.372  50.214  1.00  0.00     0.143 A 
HETATM   15  F1  UNL     1      21.419   0.424  50.579  1.00  0.00    -0.204 F 
BRANCH  11  16
HETATM   16  C7  UNL     1      25.108   4.372  49.197  1.00  0.00    -0.026 A 
HETATM   17  C8  UNL     1      26.425   3.959  49.201  1.00  0.00     0.012 A 
HETATM   18  C9  UNL     1      27.423   4.874  48.848  1.00  0.00     0.001 A 
HETATM   19  C10 UNL     1      27.057   6.161  48.507  1.00  0.00     0.000 A 
HETATM   20  C11 UNL     1      25.733   6.543  48.512  1.00  0.00     0.001 A 
HETATM   21  C12 UNL     1      24.722   5.655  48.859  1.00  0.00     0.012 A 
ENDBRANCH  11  16
ENDBRANCH   7   9
ENDBRANCH   2   7
BRANCH   1  22
HETATM   22  N1  UNL     1      26.084   2.038  53.190  1.00  0.00    -0.388 N 
HETATM   23  C1  UNL     1      27.197   2.313  52.321  1.00  0.00     0.146 C 
HETATM   24  H4  UNL     1      25.537   2.856  53.586  1.00  0.00     0.159 HD
ENDBRANCH   1  22
BRANCH   6  25
HETATM   25  O1  UNL     1      27.414   0.510  54.997  1.00  0.00    -0.294 OA
BRANCH  25  26
HETATM   26  C18 UNL     1      28.464  -0.109  54.376  1.00  0.00     0.063 A 
HETATM   27  C19 UNL     1      29.746  -0.153  53.994  1.00  0.00     0.013 A 
HETATM   28  C20 UNL     1      29.948  -1.474  53.273  1.00  0.00     0.033 A 
HETATM   29  C21 UNL     1      28.910  -2.449  52.951  1.00  0.00     0.017 A 
HETATM   30  C22 UNL     1      28.476  -1.398  53.645  1.00  0.00     0.036 A 
ENDBRANCH  25  26
ENDBRANCH   6  25
TORSDOF 6
ENDMDL
MODEL 4
REMARK VINA RESULT:      -8.8      3.411      7.326
REMARK  6 active torsions:
REMARK  status: ('A' for Active; 'I' for Inactive)
REMARK    1  A    between atoms: N1_2  and  C2_3 
REMARK    2  A    between atoms: C3_4  and  N2_5 
REMARK    3  A    between atoms: N2_5  and  C4_6 
REMARK    4  A    between atoms: C6_8  and  C7_9 
REMARK    5  A    between atoms: C17_22  and  O1_23 
REMARK    6  A    between atoms: O1_23  and  C18_24 
ROOT
HETATM    1  C2  UNL     1      25.415   1.248  53.433  1.00  0.00     0.128 A 
HETATM    2  C3  UNL     1      24.107   0.841  53.289  1.00  0.00     0.160 A 
HETATM    3  N3  UNL     1      23.661  -0.239  53.993  1.00  0.00    -0.222 NA
HETATM    4  C16 UNL     1      24.516  -0.897  54.827  1.00  0.00     0.238 A 
HETATM    5  N4  UNL     1      25.785  -0.466  54.937  1.00  0.00    -0.215 NA
HETATM    6  C17 UNL     1      26.286   0.590  54.273  1.00  0.00     0.201 A 
ENDROOT
BRANCH   2   7
HETATM    7  N2  UNL     1      23.178   1.468  52.441  1.00  0.00    -0.336 N 
HETATM    8  H5  UNL     1      23.335   2.462  52.778  1.00  0.00     0.168 HD
BRANCH   7   9
HETATM    9  C4  UNL     1      22.218   1.318  51.423  1.00  0.00     0.073 A 
HETATM   10  C5  UNL     1      21.060   0.741  51.915  1.00  0.00     0.045 A 
HETATM   11  C6  UNL     1      19.962   0.491  51.083  1.00  0.00    -0.024 A 
HETATM   12  C13 UNL     1      20.139   0.862  49.762  1.00  0.00     0.015 A 
HETATM   13  C14 UNL     1      21.261   1.437  49.213  1.00  0.00     0.045 A 
HETATM   14  C15 UNL     1      22.288   1.645  50.105  1.00  0.00     0.143 A 
HETATM   15  F1  UNL     1      23.439   2.196  49.686  1.00  0.00    -0.204 F 
BRANCH  11  16
HETATM   16  C7  UNL     1      18.717  -0.115  51.550  1.00  0.00    -0.026 A 
HETATM   17  C8  UNL     1      17.678  -0.045  50.645  1.00  0.00     0.012 A 
HETATM   18  C9  UNL     1      16.440  -0.598  50.991  1.00  0.00     0.001 A 
HETATM   19  C10 UNL     1      16.299  -1.196  52.227  1.00  0.00     0.000 A 
HETATM   20  C11 UNL     1      17.357  -1.250  53.110  1.00  0.00     0.001 A 
HETATM   21  C12 UNL     1      18.597  -0.709  52.791  1.00  0.00     0.012 A 
ENDBRANCH  11  16
ENDBRANCH   7   9
ENDBRANCH   2   7
BRANCH   1  22
HETATM   22  N1  UNL     1      25.946   2.363  52.733  1.00  0.00    -0.388 N 
HETATM   23  C1  UNL     1      26.520   2.692  51.455  1.00  0.00     0.146 C 
HETATM   24  H4  UNL     1      25.844   3.133  53.455  1.00  0.00     0.159 HD
ENDBRANCH   1  22
BRANCH   6  25
HETATM   25  O1  UNL     1      27.602   1.014  54.407  1.00  0.00    -0.294 OA
BRANCH  25  26
HETATM   26  C18 UNL     1      28.640   0.215  54.009  1.00  0.00     0.063 A 
HETATM   27  C19 UNL     1      29.939   0.010  53.762  1.00  0.00     0.013 A 
HETATM   28  C20 UNL     1      30.082  -1.434  53.315  1.00  0.00     0.033 A 
HETATM   29  C21 UNL     1      28.991  -2.377  53.081  1.00  0.00     0.017 A 
HETATM   30  C22 UNL     1      28.597  -1.186  53.529  1.00  0.00     0.036 A 
ENDBRANCH  25  26
ENDBRANCH   6  25
TORSDOF 6
ENDMDL
MODEL 5
REMARK VINA RESULT:      -8.7      2.147      3.035
REMARK  6 active torsions:
REMARK  status: ('A' for Active; 'I' for Inactive)
REMARK    1  A    between atoms: N1_2  and  C2_3 
REMARK    2  A    between atoms: C3_4  and  N2_5 
REMARK    3  A    between atoms: N2_5  and  C4_6 
REMARK    4  A    between atoms: C6_8  and  C7_9 
REMARK    5  A    between atoms: C17_22  and  O1_23 
REMARK    6  A    between atoms: O1_23  and  C18_24 
ROOT
HETATM    1  C2  UNL     1      24.525   5.100  50.729  1.00  0.00     0.128 A 
HETATM    2  C3  UNL     1      23.786   4.543  51.749  1.00  0.00     0.160 A 
HETATM    3  N3  UNL     1      22.524   5.004  51.990  1.00  0.00    -0.222 NA
HETATM    4  C16 UNL     1      22.016   6.005  51.217  1.00  0.00     0.238 A 
HETATM    5  N4  UNL     1      22.772   6.520  50.231  1.00  0.00    -0.215 NA
HETATM    6  C17 UNL     1      24.020   6.112  49.942  1.00  0.00     0.201 A 
ENDROOT
BRANCH   2   7
HETATM    7  N2  UNL     1      24.252   3.516  52.587  1.00  0.00    -0.336 N 
HETATM    8  H5  UNL     1      24.778   4.129  53.275  1.00  0.00     0.168 HD
BRANCH   7   9
HETATM    9  C4  UNL     1      24.294   2.134  52.851  1.00  0.00     0.073 A 
HETATM   10  C5  UNL     1      25.601   1.684  52.932  1.00  0.00     0.045 A 
HETATM   11  C6  UNL     1      25.891   0.338  53.186  1.00  0.00    -0.024 A 
HETATM   12  C13 UNL     1      24.784  -0.475  53.343  1.00  0.00     0.015 A 
HETATM   13  C14 UNL     1      23.465  -0.090  53.274  1.00  0.00     0.045 A 
HETATM   14  C15 UNL     1      23.276   1.249  53.022  1.00  0.00     0.143 A 
HETATM   15  F1  UNL     1      22.031   1.744  52.926  1.00  0.00    -0.204 F 
BRANCH  11  16
HETATM   16  C7  UNL     1      27.251  -0.189  53.281  1.00  0.00    -0.026 A 
HETATM   17  C8  UNL     1      27.363  -1.528  52.967  1.00  0.00     0.012 A 
HETATM   18  C9  UNL     1      28.623  -2.134  53.024  1.00  0.00     0.001 A 
HETATM   19  C10 UNL     1      29.713  -1.372  53.392  1.00  0.00     0.000 A 
HETATM   20  C11 UNL     1      29.569  -0.036  53.699  1.00  0.00     0.001 A 
HETATM   21  C12 UNL     1      28.329   0.590  53.651  1.00  0.00     0.012 A 
ENDBRANCH  11  16
ENDBRANCH   7   9
ENDBRANCH   2   7
BRANCH   1  22
HETATM   22  N1  UNL     1      25.842   4.669  50.422  1.00  0.00    -0.388 N 
HETATM   23  C1  UNL     1      26.521   3.609  49.724  1.00  0.00     0.146 C 
HETATM   24  H4  UNL     1      26.425   5.420  50.891  1.00  0.00     0.159 HD
ENDBRANCH   1  22
BRANCH   6  25
HETATM   25  O1  UNL     1      24.779   6.662  48.917  1.00  0.00    -0.294 OA
BRANCH  25  26
HETATM   26  C18 UNL     1      25.275   7.933  49.016  1.00  0.00     0.063 A 
HETATM   27  C19 UNL     1      25.238   9.237  48.717  1.00  0.00     0.013 A 
HETATM   28  C20 UNL     1      26.390   9.893  49.459  1.00  0.00     0.033 A 
HETATM   29  C21 UNL     1      27.412   9.208  50.245  1.00  0.00     0.017 A 
HETATM   30  C22 UNL     1      26.475   8.403  49.746  1.00  0.00     0.036 A 
ENDBRANCH  25  26
ENDBRANCH   6  25
TORSDOF 6
ENDMDL
MODEL 6
REMARK VINA RESULT:      -8.5      3.691      7.160
REMARK  6 active torsions:
REMARK  status: ('A' for Active; 'I' for Inactive)
REMARK    1  A    between atoms: N1_2  and  C2_3 
REMARK    2  A    between atoms: C3_4  and  N2_5 
REMARK    3  A    between atoms: N2_5  and  C4_6 
REMARK    4  A    between atoms: C6_8  and  C7_9 
REMARK    5  A    between atoms: C17_22  and  O1_23 
REMARK    6  A    between atoms: O1_23  and  C18_24 
ROOT
HETATM    1  C2  UNL     1      20.658   0.392  52.917  1.00  0.00     0.128 A 
HETATM    2  C3  UNL     1      21.996   0.484  53.231  1.00  0.00     0.160 A 
HETATM    3  N3  UNL     1      22.545  -0.421  54.092  1.00  0.00    -0.222 NA
HETATM    4  C16 UNL     1      21.761  -1.401  54.626  1.00  0.00     0.238 A 
HETATM    5  N4  UNL     1      20.459  -1.454  54.292  1.00  0.00    -0.215 NA
HETATM    6  C17 UNL     1      19.858  -0.594  53.451  1.00  0.00     0.201 A 
ENDROOT
BRANCH   2   7
HETATM    7  N2  UNL     1      22.856   1.473  52.723  1.00  0.00    -0.336 N 
HETATM    8  H5  UNL     1      22.238   2.310  52.929  1.00  0.00     0.168 HD
BRANCH   7   9
HETATM    9  C4  UNL     1      24.089   1.764  52.110  1.00  0.00     0.073 A 
HETATM   10  C5  UNL     1      25.102   0.982  52.638  1.00  0.00     0.045 A 
HETATM   11  C6  UNL     1      26.421   1.097  52.183  1.00  0.00    -0.024 A 
HETATM   12  C13 UNL     1      26.611   2.038  51.188  1.00  0.00     0.015 A 
HETATM   13  C14 UNL     1      25.650   2.844  50.623  1.00  0.00     0.045 A 
HETATM   14  C15 UNL     1      24.385   2.661  51.131  1.00  0.00     0.143 A 
HETATM   15  F1  UNL     1      23.361   3.395  50.664  1.00  0.00    -0.204 F 
BRANCH  11  16
HETATM   16  C7  UNL     1      27.527   0.298  52.705  1.00  0.00    -0.026 A 
HETATM   17  C8  UNL     1      28.569   1.041  53.223  1.00  0.00     0.012 A 
HETATM   18  C9  UNL     1      29.679   0.373  53.752  1.00  0.00     0.001 A 
HETATM   19  C10 UNL     1      29.696  -1.007  53.738  1.00  0.00     0.000 A 
HETATM   20  C11 UNL     1      28.640  -1.721  53.214  1.00  0.00     0.001 A 
HETATM   21  C12 UNL     1      27.525  -1.083  52.682  1.00  0.00     0.012 A 
ENDBRANCH  11  16
ENDBRANCH   7   9
ENDBRANCH   2   7
BRANCH   1  22
HETATM   22  N1  UNL     1      20.021   1.297  52.028  1.00  0.00    -0.388 N 
HETATM   23  C1  UNL     1      19.323   2.556  52.048  1.00  0.00     0.146 C 
HETATM   24  H4  UNL     1      20.156   0.808  51.097  1.00  0.00     0.159 HD
ENDBRANCH   1  22
BRANCH   6  25
HETATM   25  O1  UNL     1      18.511  -0.673  53.124  1.00  0.00    -0.294 OA
BRANCH  25  26
HETATM   26  C18 UNL     1      17.827  -1.852  53.246  1.00  0.00     0.063 A 
HETATM   27  C19 UNL     1      17.722  -3.112  53.686  1.00  0.00     0.013 A 
HETATM   28  C20 UNL     1      16.363  -3.623  53.243  1.00  0.00     0.033 A 
HETATM   29  C21 UNL     1      15.410  -2.915  52.392  1.00  0.00     0.017 A 
HETATM   30  C22 UNL     1      16.506  -2.217  52.683  1.00  0.00     0.036 A 
ENDBRANCH  25  26
ENDBRANCH   6  25
TORSDOF 6
ENDMDL
MODEL 7
REMARK VINA RESULT:      -8.5      2.229      6.883
REMARK  6 active torsions:
REMARK  status: ('A' for Active; 'I' for Inactive)
REMARK    1  A    between atoms: N1_2  and  C2_3 
REMARK    2  A    between atoms: C3_4  and  N2_5 
REMARK    3  A    between atoms: N2_5  and  C4_6 
REMARK    4  A    between atoms: C6_8  and  C7_9 
REMARK    5  A    between atoms: C17_22  and  O1_23 
REMARK    6  A    between atoms: O1_23  and  C18_24 
ROOT
HETATM    1  C2  UNL     1      24.752   1.179  52.350  1.00  0.00     0.128 A 
HETATM    2  C3  UNL     1      23.643   1.995  52.395  1.00  0.00     0.160 A 
HETATM    3  N3  UNL     1      22.520   1.563  53.039  1.00  0.00    -0.222 NA
HETATM    4  C16 UNL     1      22.515   0.333  53.628  1.00  0.00     0.238 A 
HETATM    5  N4  UNL     1      23.620  -0.431  53.561  1.00  0.00    -0.215 NA
HETATM    6  C17 UNL     1      24.757  -0.064  52.942  1.00  0.00     0.201 A 
ENDROOT
BRANCH   2   7
HETATM    7  N2  UNL     1      23.580   3.268  51.802  1.00  0.00    -0.336 N 
HETATM    8  H5  UNL     1      23.560   3.835  52.699  1.00  0.00     0.168 HD
BRANCH   7   9
HETATM    9  C4  UNL     1      23.537   4.015  50.610  1.00  0.00     0.073 A 
HETATM   10  C5  UNL     1      24.804   4.430  50.240  1.00  0.00     0.045 A 
HETATM   11  C6  UNL     1      25.010   5.192  49.083  1.00  0.00    -0.024 A 
HETATM   12  C13 UNL     1      23.864   5.483  48.368  1.00  0.00     0.015 A 
HETATM   13  C14 UNL     1      22.580   5.101  48.682  1.00  0.00     0.045 A 
HETATM   14  C15 UNL     1      22.473   4.356  49.834  1.00  0.00     0.143 A 
HETATM   15  F1  UNL     1      21.269   3.929  50.248  1.00  0.00    -0.204 F 
BRANCH  11  16
HETATM   16  C7  UNL     1      26.325   5.656  48.647  1.00  0.00    -0.026 A 
HETATM   17  C8  UNL     1      26.335   6.942  48.145  1.00  0.00     0.012 A 
HETATM   18  C9  UNL     1      27.545   7.486  47.701  1.00  0.00     0.001 A 
HETATM   19  C10 UNL     1      28.690   6.719  47.779  1.00  0.00     0.000 A 
HETATM   20  C11 UNL     1      28.648   5.438  48.286  1.00  0.00     0.001 A 
HETATM   21  C12 UNL     1      27.460   4.873  48.734  1.00  0.00     0.012 A 
ENDBRANCH  11  16
ENDBRANCH   7   9
ENDBRANCH   2   7
BRANCH   1  22
HETATM   22  N1  UNL     1      25.954   1.564  51.699  1.00  0.00    -0.388 N 
HETATM   23  C1  UNL     1      27.093   2.420  51.903  1.00  0.00     0.146 C 
HETATM   24  H4  UNL     1      25.901   0.996  50.806  1.00  0.00     0.159 HD
ENDBRANCH   1  22
BRANCH   6  25
HETATM   25  O1  UNL     1      25.883  -0.875  52.888  1.00  0.00    -0.294 OA
BRANCH  25  26
HETATM   26  C18 UNL     1      27.005  -0.565  53.608  1.00  0.00     0.063 A 
HETATM   27  C19 UNL     1      27.610   0.006  54.656  1.00  0.00     0.013 A 
HETATM   28  C20 UNL     1      29.095  -0.282  54.521  1.00  0.00     0.033 A 
HETATM   29  C21 UNL     1      29.746  -0.947  53.395  1.00  0.00     0.017 A 
HETATM   30  C22 UNL     1      28.420  -0.874  53.294  1.00  0.00     0.036 A 
ENDBRANCH  25  26
ENDBRANCH   6  25
TORSDOF 6
ENDMDL
MODEL 8
REMARK VINA RESULT:      -8.3      2.967      8.154
REMARK  6 active torsions:
REMARK  status: ('A' for Active; 'I' for Inactive)
REMARK    1  A    between atoms: N1_2  and  C2_3 
REMARK    2  A    between atoms: C3_4  and  N2_5 
REMARK    3  A    between atoms: N2_5  and  C4_6 
REMARK    4  A    between atoms: C6_8  and  C7_9 
REMARK    5  A    between atoms: C17_22  and  O1_23 
REMARK    6  A    between atoms: O1_23  and  C18_24 
ROOT
HETATM    1  C2  UNL     1      24.803   2.929  51.339  1.00  0.00     0.128 A 
HETATM    2  C3  UNL     1      26.036   3.142  50.765  1.00  0.00     0.160 A 
HETATM    3  N3  UNL     1      27.154   2.659  51.381  1.00  0.00    -0.222 NA
HETATM    4  C16 UNL     1      27.031   1.973  52.553  1.00  0.00     0.238 A 
HETATM    5  N4  UNL     1      25.807   1.787  53.079  1.00  0.00    -0.215 NA
HETATM    6  C17 UNL     1      24.668   2.237  52.522  1.00  0.00     0.201 A 
ENDROOT
BRANCH   2   7
HETATM    7  N2  UNL     1      26.233   3.847  49.565  1.00  0.00    -0.336 N 
HETATM    8  H5  UNL     1      26.004   3.052  48.901  1.00  0.00     0.168 HD
BRANCH   7   9
HETATM    9  C4  UNL     1      26.579   5.067  48.955  1.00  0.00     0.073 A 
HETATM   10  C5  UNL     1      27.921   5.090  48.616  1.00  0.00     0.045 A 
HETATM   11  C6  UNL     1      28.495   6.206  47.996  1.00  0.00    -0.024 A 
HETATM   12  C13 UNL     1      27.623   7.253  47.762  1.00  0.00     0.015 A 
HETATM   13  C14 UNL     1      26.284   7.292  48.074  1.00  0.00     0.045 A 
HETATM   14  C15 UNL     1      25.807   6.153  48.679  1.00  0.00     0.143 A 
HETATM   15  F1  UNL     1      24.515   6.073  49.037  1.00  0.00    -0.204 F 
BRANCH  11  16
HETATM   16  C7  UNL     1      29.905   6.282  47.618  1.00  0.00    -0.026 A 
HETATM   17  C8  UNL     1      30.279   7.488  47.062  1.00  0.00     0.012 A 
HETATM   18  C9  UNL     1      31.609   7.669  46.666  1.00  0.00     0.001 A 
HETATM   19  C10 UNL     1      32.504   6.634  46.845  1.00  0.00     0.000 A 
HETATM   20  C11 UNL     1      32.100   5.440  47.404  1.00  0.00     0.001 A 
HETATM   21  C12 UNL     1      30.785   5.234  47.806  1.00  0.00     0.012 A 
ENDBRANCH  11  16
ENDBRANCH   7   9
ENDBRANCH   2   7
BRANCH   1  22
HETATM   22  N1  UNL     1      23.599   3.401  50.752  1.00  0.00    -0.388 N 
HETATM   23  C1  UNL     1      22.775   3.177  49.593  1.00  0.00     0.146 C 
HETATM   24  H4  UNL     1      23.295   4.134  51.455  1.00  0.00     0.159 HD
ENDBRANCH   1  22
BRANCH   6  25
HETATM   25  O1  UNL     1      23.416   2.030  53.087  1.00  0.00    -0.294 OA
BRANCH  25  26
HETATM   26  C18 UNL     1      22.844   0.787  53.088  1.00  0.00     0.063 A 
HETATM   27  C19 UNL     1      22.195  -0.210  52.475  1.00  0.00     0.013 A 
HETATM   28  C20 UNL     1      22.028  -1.322  53.496  1.00  0.00     0.033 A 
HETATM   29  C21 UNL     1      22.395  -1.259  54.908  1.00  0.00     0.017 A 
HETATM   30  C22 UNL     1      22.704  -0.165  54.215  1.00  0.00     0.036 A 
ENDBRANCH  25  26
ENDBRANCH   6  25
TORSDOF 6
ENDMDL
MODEL 9
REMARK VINA RESULT:      -8.3      3.766      5.456
REMARK  6 active torsions:
REMARK  status: ('A' for Active; 'I' for Inactive)
REMARK    1  A    between atoms: N1_2  and  C2_3 
REMARK    2  A    between atoms: C3_4  and  N2_5 
REMARK    3  A    between atoms: N2_5  and  C4_6 
REMARK    4  A    between atoms: C6_8  and  C7_9 
REMARK    5  A    between atoms: C17_22  and  O1_23 
REMARK    6  A    between atoms: O1_23  and  C18_24 
ROOT
HETATM    1  C2  UNL     1      27.184   6.851  48.788  1.00  0.00     0.128 A 
HETATM    2  C3  UNL     1      27.273   5.477  48.741  1.00  0.00     0.160 A 
HETATM    3  N3  UNL     1      28.462   4.894  48.412  1.00  0.00    -0.222 NA
HETATM    4  C16 UNL     1      29.542   5.680  48.137  1.00  0.00     0.238 A 
HETATM    5  N4  UNL     1      29.411   7.017  48.194  1.00  0.00    -0.215 NA
HETATM    6  C17 UNL     1      28.269   7.653  48.512  1.00  0.00     0.201 A 
ENDROOT
BRANCH   2   7
HETATM    7  N2  UNL     1      26.198   4.611  49.005  1.00  0.00    -0.336 N 
HETATM    8  H5  UNL     1      25.615   4.854  48.152  1.00  0.00     0.168 HD
BRANCH   7   9
HETATM    9  C4  UNL     1      25.643   3.646  49.865  1.00  0.00     0.073 A 
HETATM   10  C5  UNL     1      26.612   3.100  50.689  1.00  0.00     0.045 A 
HETATM   11  C6  UNL     1      26.294   2.114  51.631  1.00  0.00    -0.024 A 
HETATM   12  C13 UNL     1      24.961   1.747  51.659  1.00  0.00     0.015 A 
HETATM   13  C14 UNL     1      23.953   2.249  50.869  1.00  0.00     0.045 A 
HETATM   14  C15 UNL     1      24.358   3.213  49.975  1.00  0.00     0.143 A 
HETATM   15  F1  UNL     1      23.465   3.775  49.144  1.00  0.00    -0.204 F 
BRANCH  11  16
HETATM   16  C7  UNL     1      27.277   1.504  52.523  1.00  0.00    -0.026 A 
HETATM   17  C8  UNL     1      27.260   0.125  52.529  1.00  0.00     0.012 A 
HETATM   18  C9  UNL     1      28.164  -0.561  53.348  1.00  0.00     0.001 A 
HETATM   19  C10 UNL     1      29.043   0.166  54.125  1.00  0.00     0.000 A 
HETATM   20  C11 UNL     1      29.036   1.544  54.098  1.00  0.00     0.001 A 
HETATM   21  C12 UNL     1      28.149   2.250  53.294  1.00  0.00     0.012 A 
ENDBRANCH  11  16
ENDBRANCH   7   9
ENDBRANCH   2   7
BRANCH   1  22
HETATM   22  N1  UNL     1      25.980   7.524  49.124  1.00  0.00    -0.388 N 
HETATM   23  C1  UNL     1      25.021   7.600  50.194  1.00  0.00     0.146 C 
HETATM   24  H4  UNL     1      25.829   8.127  48.265  1.00  0.00     0.159 HD
ENDBRANCH   1  22
BRANCH   6  25
HETATM   25  O1  UNL     1      28.163   9.037  48.564  1.00  0.00    -0.294 OA
BRANCH  25  26
HETATM   26  C18 UNL     1      29.253   9.814  48.847  1.00  0.00     0.063 A 
HETATM   27  C19 UNL     1      30.527   9.959  49.230  1.00  0.00     0.013 A 
HETATM   28  C20 UNL     1      30.833  11.446  49.195  1.00  0.00     0.033 A 
HETATM   29  C21 UNL     1      29.879  12.517  48.917  1.00  0.00     0.017 A 
HETATM   30  C22 UNL     1      29.366  11.291  48.825  1.00  0.00     0.036 A 
ENDBRANCH  25  26
ENDBRANCH   6  25
TORSDOF 6
ENDMDL
