MODEL 1
REMARK VINA RESULT:      -7.7      0.000      0.000
REMARK  6 active torsions:
REMARK  status: ('A' for Active; 'I' for Inactive)
REMARK    1  A    between atoms: O1_2  and  C2_3 
REMARK    2  A    between atoms: C8_11  and  O2_12 
REMARK    3  A    between atoms: O2_12  and  C9_13 
REMARK    4  A    between atoms: C9_13  and  C10_14 
REMARK    5  A    between atoms: C10_14  and  C11_15 
REMARK    6  A    between atoms: C11_15  and  N3_16 
ROOT
HETATM    1  C2  UNL     1      23.877   2.906  50.700  1.00  0.00     0.102 A 
HETATM    2  C3  UNL     1      23.295   2.682  49.588  1.00  0.00     0.053 A 
HETATM    3  C4  UNL     1      22.278   1.929  48.902  1.00  0.00     0.219 A 
HETATM    4  N1  UNL     1      21.360   1.032  49.031  1.00  0.00    -0.278 NA
HETATM    5  C5  UNL     1      21.148   0.461  50.329  1.00  0.00     0.170 A 
HETATM    6  N2  UNL     1      21.961   0.980  51.123  1.00  0.00    -0.248 NA
HETATM    7  C6  UNL     1      22.226   0.823  52.501  1.00  0.00     0.201 A 
HETATM    8  C7  UNL     1      23.344   1.760  52.924  1.00  0.00     0.075 A 
HETATM    9  C8  UNL     1      23.956   2.581  52.078  1.00  0.00     0.102 A 
HETATM   10  N4  UNL     1      22.708  -0.529  52.804  1.00  0.00    -0.363 N 
HETATM   11  C16 UNL     1      22.075  -1.434  53.695  1.00  0.00     0.086 A 
HETATM   12  C17 UNL     1      20.963  -1.035  54.302  1.00  0.00     0.020 A 
HETATM   13  C18 UNL     1      20.396   0.281  54.076  1.00  0.00     0.044 A 
HETATM   14  C19 UNL     1      20.980   1.110  53.258  1.00  0.00     0.148 A 
HETATM   15  F1  UNL     1      20.478   2.349  53.023  1.00  0.00    -0.206 F 
HETATM   16  H22 UNL     1      23.594  -0.753  52.277  1.00  0.00     0.162 HD
ENDROOT
BRANCH   9  17
HETATM   17  O2  UNL     1      24.824   3.140  52.979  1.00  0.00    -0.348 OA
BRANCH  17  18
HETATM   18  C9  UNL     1      25.619   2.345  53.815  1.00  0.00     0.177 C 
BRANCH  18  19
HETATM   19  C10 UNL     1      27.035   2.202  53.273  1.00  0.00     0.057 C 
BRANCH  19  20
HETATM   20  C11 UNL     1      27.085   0.904  52.495  1.00  0.00     0.274 C 
BRANCH  20  21
HETATM   21  N3  UNL     1      27.493  -0.192  53.344  1.00  0.00     0.092 N 
HETATM   22  C12 UNL     1      26.575  -1.272  53.201  1.00  0.00     0.298 C 
HETATM   23  C13 UNL     1      27.275  -2.372  52.410  1.00  0.00     0.198 C 
HETATM   24  O3  UNL     1      28.264  -2.848  53.273  1.00  0.00    -0.388 OA
HETATM   25  C14 UNL     1      29.272  -1.918  53.380  1.00  0.00     0.198 C 
HETATM   26  C15 UNL     1      28.874  -0.499  53.184  1.00  0.00     0.298 C 
ENDBRANCH  20  21
ENDBRANCH  19  20
ENDBRANCH  18  19
ENDBRANCH  17  18
ENDBRANCH   9  17
BRANCH   1  27
HETATM   27  O1  UNL     1      24.829   3.893  50.375  1.00  0.00    -0.353 OA
HETATM   28  C1  UNL     1      26.087   3.520  49.819  1.00  0.00     0.210 C 
ENDBRANCH   1  27
TORSDOF 6
ENDMDL
MODEL 2
REMARK VINA RESULT:      -7.6      2.834      6.373
REMARK  6 active torsions:
REMARK  status: ('A' for Active; 'I' for Inactive)
REMARK    1  A    between atoms: O1_2  and  C2_3 
REMARK    2  A    between atoms: C8_11  and  O2_12 
REMARK    3  A    between atoms: O2_12  and  C9_13 
REMARK    4  A    between atoms: C9_13  and  C10_14 
REMARK    5  A    between atoms: C10_14  and  C11_15 
REMARK    6  A    between atoms: C11_15  and  N3_16 
ROOT
HETATM    1  C2  UNL     1      22.414   0.534  52.800  1.00  0.00     0.102 A 
HETATM    2  C3  UNL     1      21.915  -0.113  53.779  1.00  0.00     0.053 A 
HETATM    3  C4  UNL     1      22.186  -0.927  54.935  1.00  0.00     0.219 A 
HETATM    4  N1  UNL     1      23.111  -1.474  55.648  1.00  0.00    -0.278 NA
HETATM    5  C5  UNL     1      24.476  -1.281  55.253  1.00  0.00     0.170 A 
HETATM    6  N2  UNL     1      24.488  -0.579  54.219  1.00  0.00    -0.248 NA
HETATM    7  C6  UNL     1      25.511  -0.072  53.388  1.00  0.00     0.201 A 
HETATM    8  C7  UNL     1      24.905   0.751  52.264  1.00  0.00     0.075 A 
HETATM    9  C8  UNL     1      23.596   0.929  52.125  1.00  0.00     0.102 A 
HETATM   10  N4  UNL     1      26.253  -1.153  52.729  1.00  0.00    -0.363 N 
HETATM   11  C16 UNL     1      27.648  -1.377  52.863  1.00  0.00     0.086 A 
HETATM   12  C17 UNL     1      28.339  -0.550  53.641  1.00  0.00     0.020 A 
HETATM   13  C18 UNL     1      27.708   0.553  54.341  1.00  0.00     0.044 A 
HETATM   14  C19 UNL     1      26.427   0.755  54.215  1.00  0.00     0.148 A 
HETATM   15  F1  UNL     1      25.803   1.777  54.855  1.00  0.00    -0.206 F 
HETATM   16  H22 UNL     1      25.621  -1.753  52.136  1.00  0.00     0.162 HD
ENDROOT
BRANCH   9  17
HETATM   17  O2  UNL     1      23.648   1.709  50.999  1.00  0.00    -0.348 OA
BRANCH  17  18
HETATM   18  C9  UNL     1      24.477   2.836  50.932  1.00  0.00     0.177 C 
BRANCH  18  19
HETATM   19  C10 UNL     1      24.599   3.359  49.506  1.00  0.00     0.057 C 
BRANCH  19  20
HETATM   20  C11 UNL     1      24.336   4.849  49.554  1.00  0.00     0.274 C 
BRANCH  20  21
HETATM   21  N3  UNL     1      25.520   5.570  49.962  1.00  0.00     0.092 N 
HETATM   22  C12 UNL     1      26.536   5.413  48.974  1.00  0.00     0.298 C 
HETATM   23  C13 UNL     1      26.673   6.742  48.238  1.00  0.00     0.198 C 
HETATM   24  O3  UNL     1      27.218   7.612  49.185  1.00  0.00    -0.388 OA
HETATM   25  C14 UNL     1      26.265   7.928  50.125  1.00  0.00     0.198 C 
HETATM   26  C15 UNL     1      25.218   6.901  50.364  1.00  0.00     0.298 C 
ENDBRANCH  20  21
ENDBRANCH  19  20
ENDBRANCH  18  19
ENDBRANCH  17  18
ENDBRANCH   9  17
BRANCH   1  27
HETATM   27  O1  UNL     1      21.279   1.055  52.145  1.00  0.00    -0.353 OA
HETATM   28  C1  UNL     1      20.522   2.103  52.744  1.00  0.00     0.210 C 
ENDBRANCH   1  27
TORSDOF 6
ENDMDL
MODEL 3
REMARK VINA RESULT:      -7.6      2.575      6.453
REMARK  6 active torsions:
REMARK  status: ('A' for Active; 'I' for Inactive)
REMARK    1  A    between atoms: O1_2  and  C2_3 
REMARK    2  A    between atoms: C8_11  and  O2_12 
REMARK    3  A    between atoms: O2_12  and  C9_13 
REMARK    4  A    between atoms: C9_13  and  C10_14 
REMARK    5  A    between atoms: C10_14  and  C11_15 
REMARK    6  A    between atoms: C11_15  and  N3_16 
ROOT
HETATM    1  C2  UNL     1      22.531   0.662  52.779  1.00  0.00     0.102 A 
HETATM    2  C3  UNL     1      21.991   0.018  53.738  1.00  0.00     0.053 A 
HETATM    3  C4  UNL     1      22.211  -0.827  54.882  1.00  0.00     0.219 A 
HETATM    4  N1  UNL     1      23.101  -1.424  55.600  1.00  0.00    -0.278 NA
HETATM    5  C5  UNL     1      24.479  -1.277  55.230  1.00  0.00     0.170 A 
HETATM    6  N2  UNL     1      24.536  -0.558  54.210  1.00  0.00    -0.248 NA
HETATM    7  C6  UNL     1      25.592  -0.076  53.405  1.00  0.00     0.201 A 
HETATM    8  C7  UNL     1      25.038   0.790  52.287  1.00  0.00     0.075 A 
HETATM    9  C8  UNL     1      23.739   1.022  52.131  1.00  0.00     0.102 A 
HETATM   10  N4  UNL     1      26.302  -1.174  52.738  1.00  0.00    -0.363 N 
HETATM   11  C16 UNL     1      27.684  -1.455  52.890  1.00  0.00     0.086 A 
HETATM   12  C17 UNL     1      28.394  -0.670  53.694  1.00  0.00     0.020 A 
HETATM   13  C18 UNL     1      27.796   0.444  54.405  1.00  0.00     0.044 A 
HETATM   14  C19 UNL     1      26.526   0.699  54.263  1.00  0.00     0.148 A 
HETATM   15  F1  UNL     1      25.931   1.733  54.911  1.00  0.00    -0.206 F 
HETATM   16  H22 UNL     1      25.656  -1.737  52.123  1.00  0.00     0.162 HD
ENDROOT
BRANCH   9  17
HETATM   17  O2  UNL     1      23.840   1.820  51.021  1.00  0.00    -0.348 OA
BRANCH  17  18
HETATM   18  C9  UNL     1      24.929   2.683  50.841  1.00  0.00     0.177 C 
BRANCH  18  19
HETATM   19  C10 UNL     1      24.709   3.628  49.666  1.00  0.00     0.057 C 
BRANCH  19  20
HETATM   20  C11 UNL     1      23.298   3.396  49.169  1.00  0.00     0.274 C 
BRANCH  20  21
HETATM   21  N3  UNL     1      22.485   4.577  49.352  1.00  0.00     0.092 N 
HETATM   22  C12 UNL     1      21.446   4.299  50.286  1.00  0.00     0.298 C 
HETATM   23  C13 UNL     1      21.785   5.026  51.584  1.00  0.00     0.198 C 
HETATM   24  O3  UNL     1      21.643   6.380  51.274  1.00  0.00    -0.388 OA
HETATM   25  C14 UNL     1      22.682   6.782  50.467  1.00  0.00     0.198 C 
HETATM   26  C15 UNL     1      23.279   5.732  49.601  1.00  0.00     0.298 C 
ENDBRANCH  20  21
ENDBRANCH  19  20
ENDBRANCH  18  19
ENDBRANCH  17  18
ENDBRANCH   9  17
BRANCH   1  27
HETATM   27  O1  UNL     1      21.429   1.239  52.115  1.00  0.00    -0.353 OA
HETATM   28  C1  UNL     1      20.346   1.785  52.863  1.00  0.00     0.210 C 
ENDBRANCH   1  27
TORSDOF 6
ENDMDL
MODEL 4
REMARK VINA RESULT:      -7.3      2.162      4.033
REMARK  6 active torsions:
REMARK  status: ('A' for Active; 'I' for Inactive)
REMARK    1  A    between atoms: O1_2  and  C2_3 
REMARK    2  A    between atoms: C8_11  and  O2_12 
REMARK    3  A    between atoms: O2_12  and  C9_13 
REMARK    4  A    between atoms: C9_13  and  C10_14 
REMARK    5  A    between atoms: C10_14  and  C11_15 
REMARK    6  A    between atoms: C11_15  and  N3_16 
ROOT
HETATM    1  C2  UNL     1      22.846  -0.286  53.745  1.00  0.00     0.102 A 
HETATM    2  C3  UNL     1      21.976  -1.127  54.146  1.00  0.00     0.053 A 
HETATM    3  C4  UNL     1      20.598  -1.538  54.092  1.00  0.00     0.219 A 
HETATM    4  N1  UNL     1      19.437  -1.278  53.594  1.00  0.00    -0.278 NA
HETATM    5  C5  UNL     1      19.312  -0.149  52.718  1.00  0.00     0.170 A 
HETATM    6  N2  UNL     1      20.433   0.393  52.617  1.00  0.00    -0.248 NA
HETATM    7  C6  UNL     1      20.922   1.516  51.914  1.00  0.00     0.201 A 
HETATM    8  C7  UNL     1      22.410   1.680  52.169  1.00  0.00     0.075 A 
HETATM    9  C8  UNL     1      23.101   0.863  52.955  1.00  0.00     0.102 A 
HETATM   10  N4  UNL     1      20.301   2.758  52.387  1.00  0.00    -0.363 N 
HETATM   11  C16 UNL     1      19.549   3.648  51.576  1.00  0.00     0.086 A 
HETATM   12  C17 UNL     1      19.392   3.340  50.293  1.00  0.00     0.020 A 
HETATM   13  C18 UNL     1      19.961   2.136  49.718  1.00  0.00     0.044 A 
HETATM   14  C19 UNL     1      20.651   1.322  50.465  1.00  0.00     0.148 A 
HETATM   15  F1  UNL     1      21.199   0.186  49.961  1.00  0.00    -0.206 F 
HETATM   16  H22 UNL     1      20.482   2.916  53.414  1.00  0.00     0.162 HD
ENDROOT
BRANCH   9  17
HETATM   17  O2  UNL     1      24.319   1.476  52.811  1.00  0.00    -0.348 OA
BRANCH  17  18
HETATM   18  C9  UNL     1      24.725   2.007  51.580  1.00  0.00     0.177 C 
BRANCH  18  19
HETATM   19  C10 UNL     1      26.198   2.398  51.595  1.00  0.00     0.057 C 
BRANCH  19  20
HETATM   20  C11 UNL     1      26.746   2.010  52.952  1.00  0.00     0.274 C 
BRANCH  20  21
HETATM   21  N3  UNL     1      27.829   1.062  52.820  1.00  0.00     0.092 N 
HETATM   22  C12 UNL     1      28.778   1.276  53.861  1.00  0.00     0.298 C 
HETATM   23  C13 UNL     1      28.647   0.123  54.851  1.00  0.00     0.198 C 
HETATM   24  O3  UNL     1      29.117  -0.992  54.153  1.00  0.00    -0.388 OA
HETATM   25  C14 UNL     1      28.200  -1.360  53.196  1.00  0.00     0.198 C 
HETATM   26  C15 UNL     1      27.350  -0.268  52.653  1.00  0.00     0.298 C 
ENDBRANCH  20  21
ENDBRANCH  19  20
ENDBRANCH  18  19
ENDBRANCH  17  18
ENDBRANCH   9  17
BRANCH   1  27
HETATM   27  O1  UNL     1      24.030  -0.718  54.377  1.00  0.00    -0.353 OA
HETATM   28  C1  UNL     1      23.979  -1.301  55.676  1.00  0.00     0.210 C 
ENDBRANCH   1  27
TORSDOF 6
ENDMDL
MODEL 5
REMARK VINA RESULT:      -7.1      2.018      4.158
REMARK  6 active torsions:
REMARK  status: ('A' for Active; 'I' for Inactive)
REMARK    1  A    between atoms: O1_2  and  C2_3 
REMARK    2  A    between atoms: C8_11  and  O2_12 
REMARK    3  A    between atoms: O2_12  and  C9_13 
REMARK    4  A    between atoms: C9_13  and  C10_14 
REMARK    5  A    between atoms: C10_14  and  C11_15 
REMARK    6  A    between atoms: C11_15  and  N3_16 
ROOT
HETATM    1  C2  UNL     1      22.217   0.969  52.659  1.00  0.00     0.102 A 
HETATM    2  C3  UNL     1      20.968   0.985  52.916  1.00  0.00     0.053 A 
HETATM    3  C4  UNL     1      19.663   1.409  52.481  1.00  0.00     0.219 A 
HETATM    4  N1  UNL     1      19.007   2.030  51.560  1.00  0.00    -0.278 NA
HETATM    5  C5  UNL     1      19.741   2.574  50.454  1.00  0.00     0.170 A 
HETATM    6  N2  UNL     1      20.953   2.323  50.627  1.00  0.00    -0.248 NA
HETATM    7  C6  UNL     1      22.128   2.599  49.894  1.00  0.00     0.201 A 
HETATM    8  C7  UNL     1      23.334   2.016  50.609  1.00  0.00     0.075 A 
HETATM    9  C8  UNL     1      23.242   1.357  51.759  1.00  0.00     0.102 A 
HETATM   10  N4  UNL     1      22.381   4.042  49.809  1.00  0.00    -0.363 N 
HETATM   11  C16 UNL     1      22.476   4.778  48.599  1.00  0.00     0.086 A 
HETATM   12  C17 UNL     1      22.326   4.117  47.455  1.00  0.00     0.020 A 
HETATM   13  C18 UNL     1      22.072   2.690  47.421  1.00  0.00     0.044 A 
HETATM   14  C19 UNL     1      21.985   2.018  48.534  1.00  0.00     0.148 A 
HETATM   15  F1  UNL     1      21.748   0.681  48.541  1.00  0.00    -0.206 F 
HETATM   16  H22 UNL     1      22.486   4.476  50.764  1.00  0.00     0.162 HD
ENDROOT
BRANCH   9  17
HETATM   17  O2  UNL     1      24.577   1.088  51.910  1.00  0.00    -0.348 OA
BRANCH  17  18
HETATM   18  C9  UNL     1      25.509   2.115  52.111  1.00  0.00     0.177 C 
BRANCH  18  19
HETATM   19  C10 UNL     1      26.037   2.123  53.540  1.00  0.00     0.057 C 
BRANCH  19  20
HETATM   20  C11 UNL     1      27.548   2.111  53.455  1.00  0.00     0.274 C 
BRANCH  20  21
HETATM   21  N3  UNL     1      28.093   0.942  54.108  1.00  0.00     0.092 N 
HETATM   22  C12 UNL     1      27.141  -0.118  54.057  1.00  0.00     0.298 C 
HETATM   23  C13 UNL     1      27.648  -1.146  53.050  1.00  0.00     0.198 C 
HETATM   24  O3  UNL     1      28.778  -1.700  53.656  1.00  0.00    -0.388 OA
HETATM   25  C14 UNL     1      29.807  -0.787  53.641  1.00  0.00     0.198 C 
HETATM   26  C15 UNL     1      29.407   0.645  53.651  1.00  0.00     0.298 C 
ENDBRANCH  20  21
ENDBRANCH  19  20
ENDBRANCH  18  19
ENDBRANCH  17  18
ENDBRANCH   9  17
BRANCH   1  27
HETATM   27  O1  UNL     1      22.764   0.264  53.749  1.00  0.00    -0.353 OA
HETATM   28  C1  UNL     1      22.328  -1.061  54.039  1.00  0.00     0.210 C 
ENDBRANCH   1  27
TORSDOF 6
ENDMDL
MODEL 6
REMARK VINA RESULT:      -7.1      3.625      5.309
REMARK  6 active torsions:
REMARK  status: ('A' for Active; 'I' for Inactive)
REMARK    1  A    between atoms: O1_2  and  C2_3 
REMARK    2  A    between atoms: C8_11  and  O2_12 
REMARK    3  A    between atoms: O2_12  and  C9_13 
REMARK    4  A    between atoms: C9_13  and  C10_14 
REMARK    5  A    between atoms: C10_14  and  C11_15 
REMARK    6  A    between atoms: C11_15  and  N3_16 
ROOT
HETATM    1  C2  UNL     1      27.345   5.415  48.648  1.00  0.00     0.102 A 
HETATM    2  C3  UNL     1      27.438   6.528  48.033  1.00  0.00     0.053 A 
HETATM    3  C4  UNL     1      26.745   7.708  47.587  1.00  0.00     0.219 A 
HETATM    4  N1  UNL     1      25.608   8.318  47.557  1.00  0.00    -0.278 NA
HETATM    5  C5  UNL     1      24.483   7.686  48.183  1.00  0.00     0.170 A 
HETATM    6  N2  UNL     1      24.861   6.593  48.655  1.00  0.00    -0.248 NA
HETATM    7  C6  UNL     1      24.219   5.555  49.365  1.00  0.00     0.201 A 
HETATM    8  C7  UNL     1      25.217   4.460  49.697  1.00  0.00     0.075 A 
HETATM    9  C8  UNL     1      26.496   4.516  49.342  1.00  0.00     0.102 A 
HETATM   10  N4  UNL     1      23.182   4.909  48.551  1.00  0.00    -0.363 N 
HETATM   11  C16 UNL     1      21.808   4.838  48.897  1.00  0.00     0.086 A 
HETATM   12  C17 UNL     1      21.424   5.396  50.041  1.00  0.00     0.020 A 
HETATM   13  C18 UNL     1      22.364   6.061  50.923  1.00  0.00     0.044 A 
HETATM   14  C19 UNL     1      23.625   6.124  50.602  1.00  0.00     0.148 A 
HETATM   15  F1  UNL     1      24.532   6.738  51.404  1.00  0.00    -0.206 F 
HETATM   16  H22 UNL     1      23.583   4.497  47.667  1.00  0.00     0.162 HD
ENDROOT
BRANCH   9  17
HETATM   17  O2  UNL     1      26.878   3.317  49.884  1.00  0.00    -0.348 OA
BRANCH  17  18
HETATM   18  C9  UNL     1      26.080   2.657  50.827  1.00  0.00     0.177 C 
BRANCH  18  19
HETATM   19  C10 UNL     1      26.907   1.740  51.720  1.00  0.00     0.057 C 
BRANCH  19  20
HETATM   20  C11 UNL     1      26.014   0.586  52.121  1.00  0.00     0.274 C 
BRANCH  20  21
HETATM   21  N3  UNL     1      26.512  -0.063  53.313  1.00  0.00     0.092 N 
HETATM   22  C12 UNL     1      27.188  -1.264  52.954  1.00  0.00     0.298 C 
HETATM   23  C13 UNL     1      28.683  -1.029  53.146  1.00  0.00     0.198 C 
HETATM   24  O3  UNL     1      28.844  -0.920  54.529  1.00  0.00    -0.388 OA
HETATM   25  C14 UNL     1      28.330   0.280  54.962  1.00  0.00     0.198 C 
HETATM   26  C15 UNL     1      27.218   0.844  54.152  1.00  0.00     0.298 C 
ENDBRANCH  20  21
ENDBRANCH  19  20
ENDBRANCH  18  19
ENDBRANCH  17  18
ENDBRANCH   9  17
BRANCH   1  27
HETATM   27  O1  UNL     1      28.655   4.899  48.584  1.00  0.00    -0.353 OA
HETATM   28  C1  UNL     1      29.743   5.745  48.221  1.00  0.00     0.210 C 
ENDBRANCH   1  27
TORSDOF 6
ENDMDL
MODEL 7
REMARK VINA RESULT:      -7.0      3.058      6.281
REMARK  6 active torsions:
REMARK  status: ('A' for Active; 'I' for Inactive)
REMARK    1  A    between atoms: O1_2  and  C2_3 
REMARK    2  A    between atoms: C8_11  and  O2_12 
REMARK    3  A    between atoms: O2_12  and  C9_13 
REMARK    4  A    between atoms: C9_13  and  C10_14 
REMARK    5  A    between atoms: C10_14  and  C11_15 
REMARK    6  A    between atoms: C11_15  and  N3_16 
ROOT
HETATM    1  C2  UNL     1      23.174   2.002  50.926  1.00  0.00     0.102 A 
HETATM    2  C3  UNL     1      22.239   1.342  51.486  1.00  0.00     0.053 A 
HETATM    3  C4  UNL     1      21.901   0.359  52.482  1.00  0.00     0.219 A 
HETATM    4  N1  UNL     1      22.369  -0.428  53.392  1.00  0.00    -0.278 NA
HETATM    5  C5  UNL     1      23.786  -0.435  53.618  1.00  0.00     0.170 A 
HETATM    6  N2  UNL     1      24.313   0.373  52.824  1.00  0.00    -0.248 NA
HETATM    7  C6  UNL     1      25.641   0.785  52.581  1.00  0.00     0.201 A 
HETATM    8  C7  UNL     1      25.665   1.833  51.481  1.00  0.00     0.075 A 
HETATM    9  C8  UNL     1      24.567   2.258  50.866  1.00  0.00     0.102 A 
HETATM   10  N4  UNL     1      26.466  -0.323  52.087  1.00  0.00    -0.363 N 
HETATM   11  C16 UNL     1      27.638  -0.808  52.724  1.00  0.00     0.086 A 
HETATM   12  C17 UNL     1      28.023  -0.218  53.851  1.00  0.00     0.020 A 
HETATM   13  C18 UNL     1      27.283   0.887  54.430  1.00  0.00     0.044 A 
HETATM   14  C19 UNL     1      26.207   1.329  53.843  1.00  0.00     0.148 A 
HETATM   15  F1  UNL     1      25.490   2.361  54.356  1.00  0.00    -0.206 F 
HETATM   16  H22 UNL     1      26.081  -0.724  51.190  1.00  0.00     0.162 HD
ENDROOT
BRANCH   9  17
HETATM   17  O2  UNL     1      25.178   3.146  50.020  1.00  0.00    -0.348 OA
BRANCH  17  18
HETATM   18  C9  UNL     1      26.572   3.292  49.999  1.00  0.00     0.177 C 
BRANCH  18  19
HETATM   19  C10 UNL     1      27.004   4.424  49.076  1.00  0.00     0.057 C 
BRANCH  19  20
HETATM   20  C11 UNL     1      25.906   5.466  49.106  1.00  0.00     0.274 C 
BRANCH  20  21
HETATM   21  N3  UNL     1      26.355   6.706  48.514  1.00  0.00     0.092 N 
HETATM   22  C12 UNL     1      25.716   7.802  49.165  1.00  0.00     0.298 C 
HETATM   23  C13 UNL     1      26.760   8.499  50.031  1.00  0.00     0.198 C 
HETATM   24  O3  UNL     1      27.640   9.081  49.116  1.00  0.00    -0.388 OA
HETATM   25  C14 UNL     1      28.402   8.104  48.519  1.00  0.00     0.198 C 
HETATM   26  C15 UNL     1      27.773   6.761  48.412  1.00  0.00     0.298 C 
ENDBRANCH  20  21
ENDBRANCH  19  20
ENDBRANCH  18  19
ENDBRANCH  17  18
ENDBRANCH   9  17
BRANCH   1  27
HETATM   27  O1  UNL     1      22.491   2.793  49.980  1.00  0.00    -0.353 OA
HETATM   28  C1  UNL     1      21.150   2.477  49.615  1.00  0.00     0.210 C 
ENDBRANCH   1  27
TORSDOF 6
ENDMDL
MODEL 8
REMARK VINA RESULT:      -7.0      2.422      4.525
REMARK  6 active torsions:
REMARK  status: ('A' for Active; 'I' for Inactive)
REMARK    1  A    between atoms: O1_2  and  C2_3 
REMARK    2  A    between atoms: C8_11  and  O2_12 
REMARK    3  A    between atoms: O2_12  and  C9_13 
REMARK    4  A    between atoms: C9_13  and  C10_14 
REMARK    5  A    between atoms: C10_14  and  C11_15 
REMARK    6  A    between atoms: C11_15  and  N3_16 
ROOT
HETATM    1  C2  UNL     1      20.933   0.335  53.389  1.00  0.00     0.102 A 
HETATM    2  C3  UNL     1      19.846  -0.332  53.387  1.00  0.00     0.053 A 
HETATM    3  C4  UNL     1      18.629  -0.630  52.680  1.00  0.00     0.219 A 
HETATM    4  N1  UNL     1      17.934  -0.383  51.621  1.00  0.00    -0.278 NA
HETATM    5  C5  UNL     1      18.462   0.548  50.666  1.00  0.00     0.170 A 
HETATM    6  N2  UNL     1      19.561   0.964  51.092  1.00  0.00    -0.248 NA
HETATM    7  C6  UNL     1      20.523   1.874  50.602  1.00  0.00     0.201 A 
HETATM    8  C7  UNL     1      21.690   1.965  51.569  1.00  0.00     0.075 A 
HETATM    9  C8  UNL     1      21.744   1.272  52.702  1.00  0.00     0.102 A 
HETATM   10  N4  UNL     1      19.979   3.234  50.512  1.00  0.00    -0.363 N 
HETATM   11  C16 UNL     1      19.898   3.998  49.319  1.00  0.00     0.086 A 
HETATM   12  C17 UNL     1      20.347   3.446  48.196  1.00  0.00     0.020 A 
HETATM   13  C18 UNL     1      20.905   2.108  48.168  1.00  0.00     0.044 A 
HETATM   14  C19 UNL     1      20.977   1.410  49.265  1.00  0.00     0.148 A 
HETATM   15  F1  UNL     1      21.493   0.154  49.277  1.00  0.00    -0.206 F 
HETATM   16  H22 UNL     1      19.651   3.584  51.452  1.00  0.00     0.162 HD
ENDROOT
BRANCH   9  17
HETATM   17  O2  UNL     1      22.959   1.740  53.131  1.00  0.00    -0.348 OA
BRANCH  17  18
HETATM   18  C9  UNL     1      23.641   2.745  52.432  1.00  0.00     0.177 C 
BRANCH  18  19
HETATM   19  C10 UNL     1      25.147   2.519  52.450  1.00  0.00     0.057 C 
BRANCH  19  20
HETATM   20  C11 UNL     1      25.437   1.546  53.573  1.00  0.00     0.274 C 
BRANCH  20  21
HETATM   21  N3  UNL     1      26.721   0.909  53.387  1.00  0.00     0.092 N 
HETATM   22  C12 UNL     1      27.601   1.803  52.710  1.00  0.00     0.298 C 
HETATM   23  C13 UNL     1      28.630   2.294  53.722  1.00  0.00     0.198 C 
HETATM   24  O3  UNL     1      29.405   1.167  54.008  1.00  0.00    -0.388 OA
HETATM   25  C14 UNL     1      28.678   0.288  54.776  1.00  0.00     0.198 C 
HETATM   26  C15 UNL     1      27.203   0.326  54.592  1.00  0.00     0.298 C 
ENDBRANCH  20  21
ENDBRANCH  19  20
ENDBRANCH  18  19
ENDBRANCH  17  18
ENDBRANCH   9  17
BRANCH   1  27
HETATM   27  O1  UNL     1      21.550  -0.054  54.595  1.00  0.00    -0.353 OA
HETATM   28  C1  UNL     1      22.155  -1.340  54.710  1.00  0.00     0.210 C 
ENDBRANCH   1  27
TORSDOF 6
ENDMDL
MODEL 9
REMARK VINA RESULT:      -6.8      2.608      5.912
REMARK  6 active torsions:
REMARK  status: ('A' for Active; 'I' for Inactive)
REMARK    1  A    between atoms: O1_2  and  C2_3 
REMARK    2  A    between atoms: C8_11  and  O2_12 
REMARK    3  A    between atoms: O2_12  and  C9_13 
REMARK    4  A    between atoms: C9_13  and  C10_14 
REMARK    5  A    between atoms: C10_14  and  C11_15 
REMARK    6  A    between atoms: C11_15  and  N3_16 
ROOT
HETATM    1  C2  UNL     1      24.482   0.166  53.246  1.00  0.00     0.102 A 
HETATM    2  C3  UNL     1      23.995  -0.555  54.178  1.00  0.00     0.053 A 
HETATM    3  C4  UNL     1      22.801  -0.980  54.860  1.00  0.00     0.219 A 
HETATM    4  N1  UNL     1      21.517  -0.867  54.912  1.00  0.00    -0.278 NA
HETATM    5  C5  UNL     1      20.874   0.000  53.967  1.00  0.00     0.170 A 
HETATM    6  N2  UNL     1      21.755   0.511  53.243  1.00  0.00    -0.248 NA
HETATM    7  C6  UNL     1      21.733   1.422  52.165  1.00  0.00     0.201 A 
HETATM    8  C7  UNL     1      23.145   1.662  51.660  1.00  0.00     0.075 A 
HETATM    9  C8  UNL     1      24.211   1.079  52.195  1.00  0.00     0.102 A 
HETATM   10  N4  UNL     1      21.236   2.738  52.584  1.00  0.00    -0.363 N 
HETATM   11  C16 UNL     1      20.096   3.384  52.039  1.00  0.00     0.086 A 
HETATM   12  C17 UNL     1      19.424   2.758  51.078  1.00  0.00     0.020 A 
HETATM   13  C18 UNL     1      19.826   1.454  50.587  1.00  0.00     0.044 A 
HETATM   14  C19 UNL     1      20.873   0.863  51.089  1.00  0.00     0.148 A 
HETATM   15  F1  UNL     1      21.278  -0.358  50.654  1.00  0.00    -0.206 F 
HETATM   16  H22 UNL     1      21.833   3.153  53.347  1.00  0.00     0.162 HD
ENDROOT
BRANCH   9  17
HETATM   17  O2  UNL     1      25.149   1.647  51.373  1.00  0.00    -0.348 OA
BRANCH  17  18
HETATM   18  C9  UNL     1      25.542   2.982  51.529  1.00  0.00     0.177 C 
BRANCH  18  19
HETATM   19  C10 UNL     1      26.038   3.579  50.219  1.00  0.00     0.057 C 
BRANCH  19  20
HETATM   20  C11 UNL     1      24.881   4.344  49.613  1.00  0.00     0.274 C 
BRANCH  20  21
HETATM   21  N3  UNL     1      24.299   5.250  50.577  1.00  0.00     0.092 N 
HETATM   22  C12 UNL     1      24.974   6.504  50.520  1.00  0.00     0.298 C 
HETATM   23  C13 UNL     1      24.033   7.507  49.860  1.00  0.00     0.198 C 
HETATM   24  O3  UNL     1      23.007   7.687  50.792  1.00  0.00    -0.388 OA
HETATM   25  C14 UNL     1      22.213   6.565  50.830  1.00  0.00     0.198 C 
HETATM   26  C15 UNL     1      22.879   5.282  50.483  1.00  0.00     0.298 C 
ENDBRANCH  20  21
ENDBRANCH  19  20
ENDBRANCH  18  19
ENDBRANCH  17  18
ENDBRANCH   9  17
BRANCH   1  27
HETATM   27  O1  UNL     1      25.867  -0.079  53.336  1.00  0.00    -0.353 OA
HETATM   28  C1  UNL     1      26.555   0.136  54.565  1.00  0.00     0.210 C 
ENDBRANCH   1  27
TORSDOF 6
ENDMDL
