MODEL 1
REMARK VINA RESULT:      -8.2      0.000      0.000
REMARK  5 active torsions:
REMARK  status: ('A' for Active; 'I' for Inactive)
REMARK    1  A    between atoms: C2_2  and  O1_3 
REMARK    2  A    between atoms: C2_2  and  C11_15 
REMARK    3  A    between atoms: O1_3  and  C3_4 
REMARK    4  A    between atoms: C6_7  and  N1_8 
REMARK    5  A    between atoms: N1_8  and  N2_9 
ROOT
HETATM    1  C3  UNL     1      24.154   0.182  53.480  1.00  0.00     0.069 A 
HETATM    2  C4  UNL     1      24.018  -0.672  54.570  1.00  0.00     0.039 A 
HETATM    3  C5  UNL     1      22.798  -1.284  54.844  1.00  0.00     0.034 A 
HETATM    4  C6  UNL     1      21.692  -1.067  54.053  1.00  0.00     0.050 A 
HETATM    5  C9  UNL     1      21.798  -0.224  52.963  1.00  0.00     0.034 A 
HETATM    6  C10 UNL     1      23.026   0.361  52.728  1.00  0.00     0.039 A 
ENDROOT
BRANCH   1   7
HETATM    7  O1  UNL     1      25.372   0.758  53.253  1.00  0.00    -0.342 OA
BRANCH   7   8
HETATM    8  C2  UNL     1      26.301   0.453  52.266  1.00  0.00     0.161 C 
HETATM    9  C1  UNL     1      26.546   1.675  51.406  1.00  0.00     0.045 C 
BRANCH   8  10
HETATM   10  C11 UNL     1      27.596  -0.054  52.843  1.00  0.00     0.017 A 
HETATM   11  C12 UNL     1      27.923  -1.413  52.809  1.00  0.00     0.062 A 
HETATM   12 CL1  UNL     1      26.721  -2.455  52.051  1.00  0.00    -0.082 Cl
HETATM   13  C13 UNL     1      29.096  -1.902  53.328  1.00  0.00     0.140 A 
HETATM   14  N4  UNL     1      29.952  -1.018  53.889  1.00  0.00    -0.270 NA
HETATM   15  C14 UNL     1      29.635   0.300  53.922  1.00  0.00     0.140 A 
HETATM   16  C15 UNL     1      28.475   0.836  53.417  1.00  0.00     0.062 A 
HETATM   17 CL2  UNL     1      28.149   2.563  53.506  1.00  0.00    -0.082 Cl
ENDBRANCH   8  10
ENDBRANCH   7   8
ENDBRANCH   1   7
BRANCH   4  18
HETATM   18  N1  UNL     1      20.453  -1.711  54.361  1.00  0.00    -0.277 N 
HETATM   19  H7  UNL     1      20.429  -2.497  55.020  1.00  0.00     0.189 HD
BRANCH  18  20
HETATM   20  N2  UNL     1      19.288  -1.264  53.762  1.00  0.00    -0.159 NA
HETATM   21  C7  UNL     1      18.247  -2.041  53.598  1.00  0.00     0.138 A 
HETATM   22  C8  UNL     1      17.329  -3.185  53.598  1.00  0.00     0.201 A 
HETATM   23  N3  UNL     1      16.948  -1.877  53.036  1.00  0.00    -0.368 N 
HETATM   24  H10 UNL     1      16.105  -1.468  52.575  1.00  0.00     0.161 HD
ENDBRANCH  18  20
ENDBRANCH   4  18
TORSDOF 5
ENDMDL
MODEL 2
REMARK VINA RESULT:      -7.7      3.353      8.375
REMARK  5 active torsions:
REMARK  status: ('A' for Active; 'I' for Inactive)
REMARK    1  A    between atoms: C2_2  and  O1_3 
REMARK    2  A    between atoms: C2_2  and  C11_15 
REMARK    3  A    between atoms: O1_3  and  C3_4 
REMARK    4  A    between atoms: C6_7  and  N1_8 
REMARK    5  A    between atoms: N1_8  and  N2_9 
ROOT
HETATM    1  C3  UNL     1      22.795  -0.622  53.479  1.00  0.00     0.069 A 
HETATM    2  C4  UNL     1      23.843   0.066  52.879  1.00  0.00     0.039 A 
HETATM    3  C5  UNL     1      25.090   0.140  53.496  1.00  0.00     0.034 A 
HETATM    4  C6  UNL     1      25.325  -0.461  54.712  1.00  0.00     0.050 A 
HETATM    5  C9  UNL     1      24.301  -1.153  55.331  1.00  0.00     0.034 A 
HETATM    6  C10 UNL     1      23.083  -1.200  54.684  1.00  0.00     0.039 A 
ENDROOT
BRANCH   1   7
HETATM    7  O1  UNL     1      21.591  -0.666  52.833  1.00  0.00    -0.342 OA
BRANCH   7   8
HETATM    8  C2  UNL     1      20.338  -0.312  53.318  1.00  0.00     0.161 C 
HETATM    9  C1  UNL     1      20.463   0.917  54.195  1.00  0.00     0.045 C 
BRANCH   8  10
HETATM   10  C11 UNL     1      19.349  -0.071  52.209  1.00  0.00     0.017 A 
HETATM   11  C12 UNL     1      18.107  -0.713  52.192  1.00  0.00     0.062 A 
HETATM   12 CL1  UNL     1      17.806  -1.801  53.546  1.00  0.00    -0.082 Cl
HETATM   13  C13 UNL     1      17.187  -0.512  51.193  1.00  0.00     0.140 A 
HETATM   14  N4  UNL     1      17.515   0.343  50.198  1.00  0.00    -0.270 NA
HETATM   15  C14 UNL     1      18.720   0.966  50.214  1.00  0.00     0.140 A 
HETATM   16  C15 UNL     1      19.672   0.798  51.190  1.00  0.00     0.062 A 
HETATM   17 CL2  UNL     1      21.210   1.650  51.128  1.00  0.00    -0.082 Cl
ENDBRANCH   8  10
ENDBRANCH   7   8
ENDBRANCH   1   7
BRANCH   4  18
HETATM   18  N1  UNL     1      26.616  -0.367  55.320  1.00  0.00    -0.277 N 
HETATM   19  H7  UNL     1      26.853  -0.959  56.123  1.00  0.00     0.189 HD
BRANCH  18  20
HETATM   20  N2  UNL     1      27.541   0.531  54.814  1.00  0.00    -0.159 NA
HETATM   21  C7  UNL     1      28.656   0.140  54.253  1.00  0.00     0.138 A 
HETATM   22  C8  UNL     1      29.753  -0.672  53.714  1.00  0.00     0.201 A 
HETATM   23  N3  UNL     1      29.769   0.801  53.657  1.00  0.00    -0.368 N 
HETATM   24  H10 UNL     1      30.418   1.537  53.300  1.00  0.00     0.161 HD
ENDBRANCH  18  20
ENDBRANCH   4  18
TORSDOF 5
ENDMDL
MODEL 3
REMARK VINA RESULT:      -7.6      4.456      7.457
REMARK  5 active torsions:
REMARK  status: ('A' for Active; 'I' for Inactive)
REMARK    1  A    between atoms: C2_2  and  O1_3 
REMARK    2  A    between atoms: C2_2  and  C11_15 
REMARK    3  A    between atoms: O1_3  and  C3_4 
REMARK    4  A    between atoms: C6_7  and  N1_8 
REMARK    5  A    between atoms: N1_8  and  N2_9 
ROOT
HETATM    1  C3  UNL     1      24.275   1.906  52.371  1.00  0.00     0.069 A 
HETATM    2  C4  UNL     1      25.364   2.530  52.969  1.00  0.00     0.039 A 
HETATM    3  C5  UNL     1      26.172   1.839  53.869  1.00  0.00     0.034 A 
HETATM    4  C6  UNL     1      25.920   0.525  54.197  1.00  0.00     0.050 A 
HETATM    5  C9  UNL     1      24.844  -0.120  53.617  1.00  0.00     0.034 A 
HETATM    6  C10 UNL     1      24.071   0.603  52.731  1.00  0.00     0.039 A 
ENDROOT
BRANCH   1   7
HETATM    7  O1  UNL     1      23.514   2.627  51.494  1.00  0.00    -0.342 OA
BRANCH   7   8
HETATM    8  C2  UNL     1      23.889   3.177  50.274  1.00  0.00     0.161 C 
HETATM    9  C1  UNL     1      22.808   2.914  49.246  1.00  0.00     0.045 C 
BRANCH   8  10
HETATM   10  C11 UNL     1      24.169   4.652  50.380  1.00  0.00     0.017 A 
HETATM   11  C12 UNL     1      25.378   5.195  49.935  1.00  0.00     0.062 A 
HETATM   12 CL1  UNL     1      26.518   4.034  49.257  1.00  0.00    -0.082 Cl
HETATM   13  C13 UNL     1      25.659   6.537  50.020  1.00  0.00     0.140 A 
HETATM   14  N4  UNL     1      24.717   7.344  50.558  1.00  0.00    -0.270 NA
HETATM   15  C14 UNL     1      23.544   6.817  50.990  1.00  0.00     0.140 A 
HETATM   16  C15 UNL     1      23.217   5.484  50.926  1.00  0.00     0.062 A 
HETATM   17 CL2  UNL     1      21.668   4.891  51.512  1.00  0.00    -0.082 Cl
ENDBRANCH   8  10
ENDBRANCH   7   8
ENDBRANCH   1   7
BRANCH   4  18
HETATM   18  N1  UNL     1      26.768  -0.156  55.125  1.00  0.00    -0.277 N 
HETATM   19  H7  UNL     1      26.361  -0.717  55.881  1.00  0.00     0.189 HD
BRANCH  18  20
HETATM   20  N2  UNL     1      28.142  -0.050  54.994  1.00  0.00    -0.159 NA
HETATM   21  C7  UNL     1      28.818  -0.777  54.140  1.00  0.00     0.138 A 
HETATM   22  C8  UNL     1      29.199  -1.738  53.100  1.00  0.00     0.201 A 
HETATM   23  N3  UNL     1      30.193  -0.892  53.784  1.00  0.00    -0.368 N 
HETATM   24  H10 UNL     1      31.228  -0.756  53.743  1.00  0.00     0.161 HD
ENDBRANCH  18  20
ENDBRANCH   4  18
TORSDOF 5
ENDMDL
MODEL 4
REMARK VINA RESULT:      -7.6      4.387      7.683
REMARK  5 active torsions:
REMARK  status: ('A' for Active; 'I' for Inactive)
REMARK    1  A    between atoms: C2_2  and  O1_3 
REMARK    2  A    between atoms: C2_2  and  C11_15 
REMARK    3  A    between atoms: O1_3  and  C3_4 
REMARK    4  A    between atoms: C6_7  and  N1_8 
REMARK    5  A    between atoms: N1_8  and  N2_9 
ROOT
HETATM    1  C3  UNL     1      23.817   0.954  52.732  1.00  0.00     0.069 A 
HETATM    2  C4  UNL     1      24.864   1.858  52.865  1.00  0.00     0.039 A 
HETATM    3  C5  UNL     1      25.941   1.579  53.704  1.00  0.00     0.034 A 
HETATM    4  C6  UNL     1      26.004   0.407  54.424  1.00  0.00     0.050 A 
HETATM    5  C9  UNL     1      24.978  -0.511  54.309  1.00  0.00     0.034 A 
HETATM    6  C10 UNL     1      23.931  -0.193  53.468  1.00  0.00     0.039 A 
ENDROOT
BRANCH   1   7
HETATM    7  O1  UNL     1      22.784   1.274  51.897  1.00  0.00    -0.342 OA
BRANCH   7   8
HETATM    8  C2  UNL     1      22.839   1.882  50.649  1.00  0.00     0.161 C 
HETATM    9  C1  UNL     1      21.771   1.293  49.750  1.00  0.00     0.045 C 
BRANCH   8  10
HETATM   10  C11 UNL     1      22.686   3.377  50.740  1.00  0.00     0.017 A 
HETATM   11  C12 UNL     1      23.610   4.239  50.141  1.00  0.00     0.062 A 
HETATM   12 CL1  UNL     1      24.935   3.447  49.292  1.00  0.00    -0.082 Cl
HETATM   13  C13 UNL     1      23.494   5.606  50.209  1.00  0.00     0.140 A 
HETATM   14  N4  UNL     1      22.440   6.115  50.886  1.00  0.00    -0.270 NA
HETATM   15  C14 UNL     1      21.543   5.278  51.467  1.00  0.00     0.140 A 
HETATM   16  C15 UNL     1      21.616   3.907  51.427  1.00  0.00     0.062 A 
HETATM   17 CL2  UNL     1      20.405   2.901  52.211  1.00  0.00    -0.082 Cl
ENDBRANCH   8  10
ENDBRANCH   7   8
ENDBRANCH   1   7
BRANCH   4  18
HETATM   18  N1  UNL     1      27.124   0.150  55.276  1.00  0.00    -0.277 N 
HETATM   19  H7  UNL     1      26.998  -0.374  56.149  1.00  0.00     0.189 HD
BRANCH  18  20
HETATM   20  N2  UNL     1      28.376   0.616  54.912  1.00  0.00    -0.159 NA
HETATM   21  C7  UNL     1      29.176  -0.071  54.137  1.00  0.00     0.138 A 
HETATM   22  C8  UNL     1      29.757  -1.107  53.277  1.00  0.00     0.201 A 
HETATM   23  N3  UNL     1      30.480   0.135  53.603  1.00  0.00    -0.368 N 
HETATM   24  H10 UNL     1      31.410   0.552  53.373  1.00  0.00     0.161 HD
ENDBRANCH  18  20
ENDBRANCH   4  18
TORSDOF 5
ENDMDL
MODEL 5
REMARK VINA RESULT:      -7.2      4.705      7.784
REMARK  5 active torsions:
REMARK  status: ('A' for Active; 'I' for Inactive)
REMARK    1  A    between atoms: C2_2  and  O1_3 
REMARK    2  A    between atoms: C2_2  and  C11_15 
REMARK    3  A    between atoms: O1_3  and  C3_4 
REMARK    4  A    between atoms: C6_7  and  N1_8 
REMARK    5  A    between atoms: N1_8  and  N2_9 
ROOT
HETATM    1  C3  UNL     1      25.245   2.443  51.875  1.00  0.00     0.069 A 
HETATM    2  C4  UNL     1      24.675   1.938  53.038  1.00  0.00     0.039 A 
HETATM    3  C5  UNL     1      25.081   0.709  53.552  1.00  0.00     0.034 A 
HETATM    4  C6  UNL     1      26.052  -0.043  52.930  1.00  0.00     0.050 A 
HETATM    5  C9  UNL     1      26.637   0.435  51.772  1.00  0.00     0.034 A 
HETATM    6  C10 UNL     1      26.204   1.657  51.299  1.00  0.00     0.039 A 
ENDROOT
BRANCH   1   7
HETATM    7  O1  UNL     1      24.812   3.654  51.411  1.00  0.00    -0.342 OA
BRANCH   7   8
HETATM    8  C2  UNL     1      24.964   4.196  50.141  1.00  0.00     0.161 C 
HETATM    9  C1  UNL     1      23.867   3.678  49.234  1.00  0.00     0.045 C 
BRANCH   8  10
HETATM   10  C11 UNL     1      24.963   5.702  50.163  1.00  0.00     0.017 A 
HETATM   11  C12 UNL     1      23.979   6.417  50.853  1.00  0.00     0.062 A 
HETATM   12 CL1  UNL     1      22.771   5.431  51.673  1.00  0.00    -0.082 Cl
HETATM   13  C13 UNL     1      23.956   7.789  50.890  1.00  0.00     0.140 A 
HETATM   14  N4  UNL     1      24.929   8.453  50.226  1.00  0.00    -0.270 NA
HETATM   15  C14 UNL     1      25.883   7.760  49.557  1.00  0.00     0.140 A 
HETATM   16  C15 UNL     1      25.950   6.389  49.492  1.00  0.00     0.062 A 
HETATM   17 CL2  UNL     1      27.227   5.574  48.597  1.00  0.00    -0.082 Cl
ENDBRANCH   8  10
ENDBRANCH   7   8
ENDBRANCH   1   7
BRANCH   4  18
HETATM   18  N1  UNL     1      26.447  -1.301  53.483  1.00  0.00    -0.277 N 
HETATM   19  H7  UNL     1      25.753  -1.909  53.931  1.00  0.00     0.189 HD
BRANCH  18  20
HETATM   20  N2  UNL     1      27.774  -1.689  53.408  1.00  0.00    -0.159 NA
HETATM   21  C7  UNL     1      28.757  -0.865  53.671  1.00  0.00     0.138 A 
HETATM   22  C8  UNL     1      29.544   0.319  54.031  1.00  0.00     0.201 A 
HETATM   23  N3  UNL     1      30.178  -0.965  53.682  1.00  0.00    -0.368 N 
HETATM   24  H10 UNL     1      31.153  -1.331  53.604  1.00  0.00     0.161 HD
ENDBRANCH  18  20
ENDBRANCH   4  18
TORSDOF 5
ENDMDL
MODEL 6
REMARK VINA RESULT:      -7.1      5.488      9.261
REMARK  5 active torsions:
REMARK  status: ('A' for Active; 'I' for Inactive)
REMARK    1  A    between atoms: C2_2  and  O1_3 
REMARK    2  A    between atoms: C2_2  and  C11_15 
REMARK    3  A    between atoms: O1_3  and  C3_4 
REMARK    4  A    between atoms: C6_7  and  N1_8 
REMARK    5  A    between atoms: N1_8  and  N2_9 
ROOT
HETATM    1  C3  UNL     1      25.348   4.149  49.890  1.00  0.00     0.069 A 
HETATM    2  C4  UNL     1      26.639   3.745  49.570  1.00  0.00     0.039 A 
HETATM    3  C5  UNL     1      27.495   4.592  48.870  1.00  0.00     0.034 A 
HETATM    4  C6  UNL     1      27.095   5.848  48.474  1.00  0.00     0.050 A 
HETATM    5  C9  UNL     1      25.817   6.277  48.780  1.00  0.00     0.034 A 
HETATM    6  C10 UNL     1      25.003   5.405  49.474  1.00  0.00     0.039 A 
ENDROOT
BRANCH   1   7
HETATM    7  O1  UNL     1      24.547   3.282  50.578  1.00  0.00    -0.342 OA
BRANCH   7   8
HETATM    8  C2  UNL     1      24.417   3.132  51.954  1.00  0.00     0.161 C 
HETATM    9  C1  UNL     1      23.578   4.264  52.509  1.00  0.00     0.045 C 
BRANCH   8  10
HETATM   10  C11 UNL     1      23.820   1.801  52.325  1.00  0.00     0.017 A 
HETATM   11  C12 UNL     1      24.450   0.954  53.243  1.00  0.00     0.062 A 
HETATM   12 CL1  UNL     1      25.963   1.562  53.910  1.00  0.00    -0.082 Cl
HETATM   13  C13 UNL     1      23.927  -0.265  53.599  1.00  0.00     0.140 A 
HETATM   14  N4  UNL     1      22.760  -0.640  53.028  1.00  0.00    -0.270 NA
HETATM   15  C14 UNL     1      22.149   0.182  52.138  1.00  0.00     0.140 A 
HETATM   16  C15 UNL     1      22.632   1.408  51.751  1.00  0.00     0.062 A 
HETATM   17 CL2  UNL     1      21.769   2.408  50.588  1.00  0.00    -0.082 Cl
ENDBRANCH   8  10
ENDBRANCH   7   8
ENDBRANCH   1   7
BRANCH   4  18
HETATM   18  N1  UNL     1      27.998   6.694  47.756  1.00  0.00    -0.277 N 
HETATM   19  H7  UNL     1      28.000   6.695  46.730  1.00  0.00     0.189 HD
BRANCH  18  20
HETATM   20  N2  UNL     1      28.868   7.510  48.459  1.00  0.00    -0.159 NA
HETATM   21  C7  UNL     1      28.445   8.475  49.235  1.00  0.00     0.138 A 
HETATM   22  C8  UNL     1      27.603   9.419  49.977  1.00  0.00     0.201 A 
HETATM   23  N3  UNL     1      29.074   9.451  50.061  1.00  0.00    -0.368 N 
HETATM   24  H10 UNL     1      29.791  10.024  50.559  1.00  0.00     0.161 HD
ENDBRANCH  18  20
ENDBRANCH   4  18
TORSDOF 5
ENDMDL
MODEL 7
REMARK VINA RESULT:      -6.9      3.042      3.490
REMARK  5 active torsions:
REMARK  status: ('A' for Active; 'I' for Inactive)
REMARK    1  A    between atoms: C2_2  and  O1_3 
REMARK    2  A    between atoms: C2_2  and  C11_15 
REMARK    3  A    between atoms: O1_3  and  C3_4 
REMARK    4  A    between atoms: C6_7  and  N1_8 
REMARK    5  A    between atoms: N1_8  and  N2_9 
ROOT
HETATM    1  C3  UNL     1      24.200   1.762  52.715  1.00  0.00     0.069 A 
HETATM    2  C4  UNL     1      24.101   3.126  52.966  1.00  0.00     0.039 A 
HETATM    3  C5  UNL     1      22.917   3.812  52.703  1.00  0.00     0.034 A 
HETATM    4  C6  UNL     1      21.814   3.168  52.189  1.00  0.00     0.050 A 
HETATM    5  C9  UNL     1      21.883   1.812  51.932  1.00  0.00     0.034 A 
HETATM    6  C10 UNL     1      23.075   1.173  52.207  1.00  0.00     0.039 A 
ENDROOT
BRANCH   1   7
HETATM    7  O1  UNL     1      25.382   1.134  52.990  1.00  0.00    -0.342 OA
BRANCH   7   8
HETATM    8  C2  UNL     1      26.268   0.534  52.103  1.00  0.00     0.161 C 
HETATM    9  C1  UNL     1      26.632   1.517  51.010  1.00  0.00     0.045 C 
BRANCH   8  10
HETATM   10  C11 UNL     1      27.507   0.029  52.794  1.00  0.00     0.017 A 
HETATM   11  C12 UNL     1      27.820  -1.333  52.819  1.00  0.00     0.062 A 
HETATM   12 CL1  UNL     1      26.670  -2.382  51.993  1.00  0.00    -0.082 Cl
HETATM   13  C13 UNL     1      28.943  -1.820  53.441  1.00  0.00     0.140 A 
HETATM   14  N4  UNL     1      29.761  -0.931  54.048  1.00  0.00    -0.270 NA
HETATM   15  C14 UNL     1      29.457   0.391  54.024  1.00  0.00     0.140 A 
HETATM   16  C15 UNL     1      28.348   0.926  53.415  1.00  0.00     0.062 A 
HETATM   17 CL2  UNL     1      28.035   2.657  53.436  1.00  0.00    -0.082 Cl
ENDBRANCH   8  10
ENDBRANCH   7   8
ENDBRANCH   1   7
BRANCH   4  18
HETATM   18  N1  UNL     1      20.613   3.901  51.930  1.00  0.00    -0.277 N 
HETATM   19  H7  UNL     1      20.660   4.842  51.525  1.00  0.00     0.189 HD
BRANCH  18  20
HETATM   20  N2  UNL     1      19.389   3.329  52.233  1.00  0.00    -0.159 NA
HETATM   21  C7  UNL     1      18.296   3.641  51.586  1.00  0.00     0.138 A 
HETATM   22  C8  UNL     1      17.331   4.238  50.657  1.00  0.00     0.201 A 
HETATM   23  N3  UNL     1      16.932   3.237  51.662  1.00  0.00    -0.368 N 
HETATM   24  H10 UNL     1      16.046   2.763  51.948  1.00  0.00     0.161 HD
ENDBRANCH  18  20
ENDBRANCH   4  18
TORSDOF 5
ENDMDL
MODEL 8
REMARK VINA RESULT:      -6.9      5.164      7.924
REMARK  5 active torsions:
REMARK  status: ('A' for Active; 'I' for Inactive)
REMARK    1  A    between atoms: C2_2  and  O1_3 
REMARK    2  A    between atoms: C2_2  and  C11_15 
REMARK    3  A    between atoms: O1_3  and  C3_4 
REMARK    4  A    between atoms: C6_7  and  N1_8 
REMARK    5  A    between atoms: N1_8  and  N2_9 
ROOT
HETATM    1  C3  UNL     1      24.882   3.561  51.260  1.00  0.00     0.069 A 
HETATM    2  C4  UNL     1      24.382   3.248  52.519  1.00  0.00     0.039 A 
HETATM    3  C5  UNL     1      25.016   2.301  53.320  1.00  0.00     0.034 A 
HETATM    4  C6  UNL     1      26.152   1.647  52.895  1.00  0.00     0.050 A 
HETATM    5  C9  UNL     1      26.672   1.940  51.648  1.00  0.00     0.034 A 
HETATM    6  C10 UNL     1      26.011   2.884  50.889  1.00  0.00     0.039 A 
ENDROOT
BRANCH   1   7
HETATM    7  O1  UNL     1      24.224   4.497  50.513  1.00  0.00    -0.342 OA
BRANCH   7   8
HETATM    8  C2  UNL     1      24.608   5.062  49.303  1.00  0.00     0.161 C 
HETATM    9  C1  UNL     1      23.429   5.073  48.352  1.00  0.00     0.045 C 
BRANCH   8  10
HETATM   10  C11 UNL     1      25.160   6.452  49.477  1.00  0.00     0.017 A 
HETATM   11  C12 UNL     1      26.477   6.760  49.123  1.00  0.00     0.062 A 
HETATM   12 CL1  UNL     1      27.413   5.416  48.473  1.00  0.00    -0.082 Cl
HETATM   13  C13 UNL     1      27.005   8.019  49.271  1.00  0.00     0.140 A 
HETATM   14  N4  UNL     1      26.203   8.981  49.781  1.00  0.00    -0.270 NA
HETATM   15  C14 UNL     1      24.924   8.683  50.124  1.00  0.00     0.140 A 
HETATM   16  C15 UNL     1      24.352   7.441  49.994  1.00  0.00     0.062 A 
HETATM   17 CL2  UNL     1      22.683   7.146  50.466  1.00  0.00    -0.082 Cl
ENDBRANCH   8  10
ENDBRANCH   7   8
ENDBRANCH   1   7
BRANCH   4  18
HETATM   18  N1  UNL     1      26.780   0.680  53.741  1.00  0.00    -0.277 N 
HETATM   19  H7  UNL     1      27.300   0.982  54.572  1.00  0.00     0.189 HD
BRANCH  18  20
HETATM   20  N2  UNL     1      26.681  -0.664  53.426  1.00  0.00    -0.159 NA
HETATM   21  C7  UNL     1      27.736  -1.423  53.271  1.00  0.00     0.138 A 
HETATM   22  C8  UNL     1      29.113  -1.919  53.184  1.00  0.00     0.201 A 
HETATM   23  N3  UNL     1      27.951  -2.796  52.957  1.00  0.00    -0.368 N 
HETATM   24  H10 UNL     1      27.796  -3.801  52.719  1.00  0.00     0.161 HD
ENDBRANCH  18  20
ENDBRANCH   4  18
TORSDOF 5
ENDMDL
MODEL 9
REMARK VINA RESULT:      -6.9      4.309      8.533
REMARK  5 active torsions:
REMARK  status: ('A' for Active; 'I' for Inactive)
REMARK    1  A    between atoms: C2_2  and  O1_3 
REMARK    2  A    between atoms: C2_2  and  C11_15 
REMARK    3  A    between atoms: O1_3  and  C3_4 
REMARK    4  A    between atoms: C6_7  and  N1_8 
REMARK    5  A    between atoms: N1_8  and  N2_9 
ROOT
HETATM    1  C3  UNL     1      22.420   0.861  52.497  1.00  0.00     0.069 A 
HETATM    2  C4  UNL     1      22.299  -0.257  53.314  1.00  0.00     0.039 A 
HETATM    3  C5  UNL     1      23.422  -0.827  53.908  1.00  0.00     0.034 A 
HETATM    4  C6  UNL     1      24.681  -0.307  53.708  1.00  0.00     0.050 A 
HETATM    5  C9  UNL     1      24.831   0.805  52.901  1.00  0.00     0.034 A 
HETATM    6  C10 UNL     1      23.691   1.337  52.332  1.00  0.00     0.039 A 
ENDROOT
BRANCH   1   7
HETATM    7  O1  UNL     1      21.287   1.383  51.937  1.00  0.00    -0.342 OA
BRANCH   7   8
HETATM    8  C2  UNL     1      21.135   1.976  50.690  1.00  0.00     0.161 C 
HETATM    9  C1  UNL     1      21.309   0.931  49.607  1.00  0.00     0.045 C 
BRANCH   8  10
HETATM   10  C11 UNL     1      19.804   2.666  50.549  1.00  0.00     0.017 A 
HETATM   11  C12 UNL     1      19.720   4.012  50.180  1.00  0.00     0.062 A 
HETATM   12 CL1  UNL     1      21.265   4.812  49.901  1.00  0.00    -0.082 Cl
HETATM   13  C13 UNL     1      18.520   4.665  50.044  1.00  0.00     0.140 A 
HETATM   14  N4  UNL     1      17.390   3.961  50.282  1.00  0.00    -0.270 NA
HETATM   15  C14 UNL     1      17.472   2.655  50.640  1.00  0.00     0.140 A 
HETATM   16  C15 UNL     1      18.647   1.959  50.788  1.00  0.00     0.062 A 
HETATM   17 CL2  UNL     1      18.656   0.263  51.256  1.00  0.00    -0.082 Cl
ENDBRANCH   8  10
ENDBRANCH   7   8
ENDBRANCH   1   7
BRANCH   4  18
HETATM   18  N1  UNL     1      25.815  -0.915  54.332  1.00  0.00    -0.277 N 
HETATM   19  H7  UNL     1      25.968  -1.926  54.253  1.00  0.00     0.189 HD
BRANCH  18  20
HETATM   20  N2  UNL     1      26.703  -0.126  55.045  1.00  0.00    -0.159 NA
HETATM   21  C7  UNL     1      27.879   0.199  54.573  1.00  0.00     0.138 A 
HETATM   22  C8  UNL     1      29.066   0.338  53.723  1.00  0.00     0.201 A 
HETATM   23  N3  UNL     1      28.977   0.971  55.051  1.00  0.00    -0.368 N 
HETATM   24  H10 UNL     1      29.591   1.569  55.647  1.00  0.00     0.161 HD
ENDBRANCH  18  20
ENDBRANCH   4  18
TORSDOF 5
ENDMDL
