MODEL 1
REMARK VINA RESULT:      -7.8      0.000      0.000
REMARK  5 active torsions:
REMARK  status: ('A' for Active; 'I' for Inactive)
REMARK    1  A    between atoms: C4_5  and  C5_6 
REMARK    2  A    between atoms: C5_6  and  O1_7 
REMARK    3  A    between atoms: O1_7  and  C6_8 
REMARK    4  A    between atoms: C9_11  and  N1_12 
REMARK    5  A    between atoms: N1_12  and  C10_13 
ROOT
HETATM    1  C6  UNL     1      22.897  -0.495  53.146  1.00  0.00     0.090 A 
HETATM    2  C7  UNL     1      22.390  -1.288  54.155  1.00  0.00     0.041 A 
HETATM    3  C8  UNL     1      21.027  -1.366  54.344  1.00  0.00     0.032 A 
HETATM    4  C9  UNL     1      20.104  -0.682  53.564  1.00  0.00     0.030 A 
HETATM    5  C11 UNL     1      20.679   0.090  52.577  1.00  0.00     0.056 A 
HETATM    6  C12 UNL     1      22.027   0.212  52.335  1.00  0.00     0.069 A 
HETATM    7 CL2  UNL     1      22.648   1.228  51.045  1.00  0.00    -0.081 Cl
ENDROOT
BRANCH   1   8
HETATM    8  O1  UNL     1      24.261  -0.382  52.913  1.00  0.00    -0.345 OA
BRANCH   8   9
HETATM    9  C5  UNL     1      25.078   0.092  53.965  1.00  0.00     0.210 C 
BRANCH   9  10
HETATM   10  C4  UNL     1      26.484  -0.332  53.641  1.00  0.00    -0.052 C 
HETATM   11  C3  UNL     1      27.395   0.191  54.443  1.00  0.00     0.008 C 
HETATM   12  C2  UNL     1      28.841  -0.040  54.370  1.00  0.00     0.042 C 
HETATM   13  C1  UNL     1      29.471  -1.091  53.827  1.00  0.00     0.116 C 
HETATM   14  F1  UNL     1      30.814  -1.115  53.861  1.00  0.00    -0.206 F 
HETATM   15  C15 UNL     1      28.833  -2.238  53.188  1.00  0.00     0.038 C 
HETATM   16  C14 UNL     1      27.624  -2.237  52.654  1.00  0.00    -0.019 C 
HETATM   17  C13 UNL     1      26.527  -1.253  52.477  1.00  0.00     0.063 C 
ENDBRANCH   9  10
ENDBRANCH   8   9
ENDBRANCH   1   8
BRANCH   4  18
HETATM   18  N1  UNL     1      18.707  -0.775  53.775  1.00  0.00    -0.377 N 
HETATM   19  H7  UNL     1      18.304  -0.189  54.540  1.00  0.00     0.160 HD
BRANCH  18  20
HETATM   20  C10 UNL     1      17.843  -1.633  52.988  1.00  0.00     0.235 C 
HETATM   21 CL1  UNL     1      17.673  -3.170  53.871  1.00  0.00    -0.109 Cl
ENDBRANCH  18  20
ENDBRANCH   4  18
TORSDOF 5
ENDMDL
MODEL 2
REMARK VINA RESULT:      -7.7      1.360      1.928
REMARK  5 active torsions:
REMARK  status: ('A' for Active; 'I' for Inactive)
REMARK    1  A    between atoms: C4_5  and  C5_6 
REMARK    2  A    between atoms: C5_6  and  O1_7 
REMARK    3  A    between atoms: O1_7  and  C6_8 
REMARK    4  A    between atoms: C9_11  and  N1_12 
REMARK    5  A    between atoms: N1_12  and  C10_13 
ROOT
HETATM    1  C6  UNL     1      22.793   0.590  53.376  1.00  0.00     0.090 A 
HETATM    2  C7  UNL     1      22.921  -0.647  53.974  1.00  0.00     0.041 A 
HETATM    3  C8  UNL     1      21.800  -1.412  54.209  1.00  0.00     0.032 A 
HETATM    4  C9  UNL     1      20.514  -1.011  53.873  1.00  0.00     0.030 A 
HETATM    5  C11 UNL     1      20.459   0.232  53.280  1.00  0.00     0.056 A 
HETATM    6  C12 UNL     1      21.537   1.046  53.018  1.00  0.00     0.069 A 
HETATM    7 CL2  UNL     1      21.349   2.615  52.255  1.00  0.00    -0.081 Cl
ENDROOT
BRANCH   1   8
HETATM    8  O1  UNL     1      23.891   1.400  53.117  1.00  0.00    -0.345 OA
BRANCH   8   9
HETATM    9  C5  UNL     1      24.797   0.990  52.112  1.00  0.00     0.210 C 
BRANCH   9  10
HETATM   10  C4  UNL     1      26.116   0.749  52.797  1.00  0.00    -0.052 C 
HETATM   11  C3  UNL     1      26.631  -0.443  52.551  1.00  0.00     0.008 C 
HETATM   12  C2  UNL     1      27.900  -0.957  53.078  1.00  0.00     0.042 C 
HETATM   13  C1  UNL     1      28.951  -0.244  53.506  1.00  0.00     0.116 C 
HETATM   14  F1  UNL     1      30.029  -0.909  53.956  1.00  0.00    -0.206 F 
HETATM   15  C15 UNL     1      29.046   1.212  53.537  1.00  0.00     0.038 C 
HETATM   16  C14 UNL     1      28.019   2.041  53.576  1.00  0.00    -0.019 C 
HETATM   17  C13 UNL     1      26.540   1.922  53.603  1.00  0.00     0.063 C 
ENDBRANCH   9  10
ENDBRANCH   8   9
ENDBRANCH   1   8
BRANCH   4  18
HETATM   18  N1  UNL     1      19.373  -1.812  54.123  1.00  0.00    -0.377 N 
HETATM   19  H7  UNL     1      19.452  -2.525  54.882  1.00  0.00     0.160 HD
BRANCH  18  20
HETATM   20  C10 UNL     1      18.134  -1.680  53.381  1.00  0.00     0.235 C 
HETATM   21 CL1  UNL     1      17.327  -3.267  53.407  1.00  0.00    -0.109 Cl
ENDBRANCH  18  20
ENDBRANCH   4  18
TORSDOF 5
ENDMDL
MODEL 3
REMARK VINA RESULT:      -7.4      4.609      7.669
REMARK  5 active torsions:
REMARK  status: ('A' for Active; 'I' for Inactive)
REMARK    1  A    between atoms: C4_5  and  C5_6 
REMARK    2  A    between atoms: C5_6  and  O1_7 
REMARK    3  A    between atoms: O1_7  and  C6_8 
REMARK    4  A    between atoms: C9_11  and  N1_12 
REMARK    5  A    between atoms: N1_12  and  C10_13 
ROOT
HETATM    1  C6  UNL     1      25.093   0.775  52.365  1.00  0.00     0.090 A 
HETATM    2  C7  UNL     1      25.025  -0.144  53.392  1.00  0.00     0.041 A 
HETATM    3  C8  UNL     1      26.173  -0.502  54.066  1.00  0.00     0.032 A 
HETATM    4  C9  UNL     1      27.427   0.016  53.773  1.00  0.00     0.030 A 
HETATM    5  C11 UNL     1      27.422   0.926  52.738  1.00  0.00     0.056 A 
HETATM    6  C12 UNL     1      26.316   1.327  52.025  1.00  0.00     0.069 A 
HETATM    7 CL2  UNL     1      26.427   2.498  50.722  1.00  0.00    -0.081 Cl
ENDROOT
BRANCH   1   8
HETATM    8  O1  UNL     1      23.967   1.170  51.654  1.00  0.00    -0.345 OA
BRANCH   8   9
HETATM    9  C5  UNL     1      22.939   1.839  52.357  1.00  0.00     0.210 C 
BRANCH   9  10
HETATM   10  C4  UNL     1      21.753   0.913  52.365  1.00  0.00    -0.052 C 
HETATM   11  C3  UNL     1      21.405   0.506  53.573  1.00  0.00     0.008 C 
HETATM   12  C2  UNL     1      20.294  -0.396  53.891  1.00  0.00     0.042 C 
HETATM   13  C1  UNL     1      19.196  -0.624  53.157  1.00  0.00     0.116 C 
HETATM   14  F1  UNL     1      18.287  -1.495  53.627  1.00  0.00    -0.206 F 
HETATM   15  C15 UNL     1      18.880  -0.010  51.871  1.00  0.00     0.038 C 
HETATM   16  C14 UNL     1      19.764   0.499  51.033  1.00  0.00    -0.019 C 
HETATM   17  C13 UNL     1      21.239   0.665  50.994  1.00  0.00     0.063 C 
ENDBRANCH   9  10
ENDBRANCH   8   9
ENDBRANCH   1   8
BRANCH   4  18
HETATM   18  N1  UNL     1      28.595  -0.365  54.477  1.00  0.00    -0.377 N 
HETATM   19  H7  UNL     1      28.626  -0.143  55.497  1.00  0.00     0.160 HD
BRANCH  18  20
HETATM   20  C10 UNL     1      29.716  -1.035  53.847  1.00  0.00     0.235 C 
HETATM   21 CL1  UNL     1      29.102  -2.552  53.144  1.00  0.00    -0.109 Cl
ENDBRANCH  18  20
ENDBRANCH   4  18
TORSDOF 5
ENDMDL
MODEL 4
REMARK VINA RESULT:      -7.3      2.950      4.267
REMARK  5 active torsions:
REMARK  status: ('A' for Active; 'I' for Inactive)
REMARK    1  A    between atoms: C4_5  and  C5_6 
REMARK    2  A    between atoms: C5_6  and  O1_7 
REMARK    3  A    between atoms: O1_7  and  C6_8 
REMARK    4  A    between atoms: C9_11  and  N1_12 
REMARK    5  A    between atoms: N1_12  and  C10_13 
ROOT
HETATM    1  C6  UNL     1      23.799   1.341  52.727  1.00  0.00     0.090 A 
HETATM    2  C7  UNL     1      24.537   2.456  53.067  1.00  0.00     0.041 A 
HETATM    3  C8  UNL     1      23.993   3.712  52.902  1.00  0.00     0.032 A 
HETATM    4  C9  UNL     1      22.716   3.935  52.405  1.00  0.00     0.030 A 
HETATM    5  C11 UNL     1      22.036   2.778  52.087  1.00  0.00     0.056 A 
HETATM    6  C12 UNL     1      22.519   1.498  52.226  1.00  0.00     0.069 A 
HETATM    7 CL2  UNL     1      21.562   0.094  51.787  1.00  0.00    -0.081 Cl
ENDROOT
BRANCH   1   8
HETATM    8  O1  UNL     1      24.300   0.054  52.874  1.00  0.00    -0.345 OA
BRANCH   8   9
HETATM    9  C5  UNL     1      24.970  -0.265  54.077  1.00  0.00     0.210 C 
BRANCH   9  10
HETATM   10  C4  UNL     1      26.405  -0.532  53.711  1.00  0.00    -0.052 C 
HETATM   11  C3  UNL     1      27.276   0.084  54.492  1.00  0.00     0.008 C 
HETATM   12  C2  UNL     1      28.736   0.012  54.377  1.00  0.00     0.042 C 
HETATM   13  C1  UNL     1      29.461  -0.962  53.810  1.00  0.00     0.116 C 
HETATM   14  F1  UNL     1      30.798  -0.840  53.807  1.00  0.00    -0.206 F 
HETATM   15  C15 UNL     1      28.933  -2.169  53.181  1.00  0.00     0.038 C 
HETATM   16  C14 UNL     1      27.717  -2.298  52.681  1.00  0.00    -0.019 C 
HETATM   17  C13 UNL     1      26.515  -1.438  52.540  1.00  0.00     0.063 C 
ENDBRANCH   9  10
ENDBRANCH   8   9
ENDBRANCH   1   8
BRANCH   4  18
HETATM   18  N1  UNL     1      22.175   5.233  52.243  1.00  0.00    -0.377 N 
HETATM   19  H7  UNL     1      22.279   5.893  53.045  1.00  0.00     0.160 HD
BRANCH  18  20
HETATM   20  C10 UNL     1      21.500   5.664  51.033  1.00  0.00     0.235 C 
HETATM   21 CL1  UNL     1      21.807   7.408  50.846  1.00  0.00    -0.109 Cl
ENDBRANCH  18  20
ENDBRANCH   4  18
TORSDOF 5
ENDMDL
MODEL 5
REMARK VINA RESULT:      -7.2      1.800      2.435
REMARK  5 active torsions:
REMARK  status: ('A' for Active; 'I' for Inactive)
REMARK    1  A    between atoms: C4_5  and  C5_6 
REMARK    2  A    between atoms: C5_6  and  O1_7 
REMARK    3  A    between atoms: O1_7  and  C6_8 
REMARK    4  A    between atoms: C9_11  and  N1_12 
REMARK    5  A    between atoms: N1_12  and  C10_13 
ROOT
HETATM    1  C6  UNL     1      24.059   1.531  52.994  1.00  0.00     0.090 A 
HETATM    2  C7  UNL     1      23.651   0.256  53.325  1.00  0.00     0.041 A 
HETATM    3  C8  UNL     1      22.358  -0.139  53.060  1.00  0.00     0.032 A 
HETATM    4  C9  UNL     1      21.412   0.685  52.464  1.00  0.00     0.030 A 
HETATM    5  C11 UNL     1      21.886   1.943  52.161  1.00  0.00     0.056 A 
HETATM    6  C12 UNL     1      23.162   2.400  52.398  1.00  0.00     0.069 A 
HETATM    7 CL2  UNL     1      23.658   4.028  51.968  1.00  0.00    -0.081 Cl
ENDROOT
BRANCH   1   8
HETATM    8  O1  UNL     1      25.351   1.979  53.240  1.00  0.00    -0.345 OA
BRANCH   8   9
HETATM    9  C5  UNL     1      26.341   1.715  52.266  1.00  0.00     0.210 C 
BRANCH   9  10
HETATM   10  C4  UNL     1      27.263   0.684  52.860  1.00  0.00    -0.052 C 
HETATM   11  C3  UNL     1      27.046  -0.541  52.413  1.00  0.00     0.008 C 
HETATM   12  C2  UNL     1      27.784  -1.745  52.811  1.00  0.00     0.042 C 
HETATM   13  C1  UNL     1      29.026  -1.810  53.311  1.00  0.00     0.116 C 
HETATM   14  F1  UNL     1      29.527  -3.019  53.614  1.00  0.00    -0.206 F 
HETATM   15  C15 UNL     1      29.909  -0.676  53.566  1.00  0.00     0.038 C 
HETATM   16  C14 UNL     1      29.512   0.568  53.769  1.00  0.00    -0.019 C 
HETATM   17  C13 UNL     1      28.215   1.287  53.825  1.00  0.00     0.063 C 
ENDBRANCH   9  10
ENDBRANCH   8   9
ENDBRANCH   1   8
BRANCH   4  18
HETATM   18  N1  UNL     1      20.087   0.260  52.200  1.00  0.00    -0.377 N 
HETATM   19  H7  UNL     1      19.687   0.508  51.268  1.00  0.00     0.160 HD
BRANCH  18  20
HETATM   20  C10 UNL     1      19.290  -0.485  53.156  1.00  0.00     0.235 C 
HETATM   21 CL1  UNL     1      17.723  -0.832  52.384  1.00  0.00    -0.109 Cl
ENDBRANCH  18  20
ENDBRANCH   4  18
TORSDOF 5
ENDMDL
MODEL 6
REMARK VINA RESULT:      -7.1      5.623      7.400
REMARK  5 active torsions:
REMARK  status: ('A' for Active; 'I' for Inactive)
REMARK    1  A    between atoms: C4_5  and  C5_6 
REMARK    2  A    between atoms: C5_6  and  O1_7 
REMARK    3  A    between atoms: O1_7  and  C6_8 
REMARK    4  A    between atoms: C9_11  and  N1_12 
REMARK    5  A    between atoms: N1_12  and  C10_13 
ROOT
HETATM    1  C6  UNL     1      25.528   3.537  50.427  1.00  0.00     0.090 A 
HETATM    2  C7  UNL     1      26.672   3.453  49.661  1.00  0.00     0.041 A 
HETATM    3  C8  UNL     1      27.096   4.550  48.942  1.00  0.00     0.032 A 
HETATM    4  C9  UNL     1      26.430   5.768  48.939  1.00  0.00     0.030 A 
HETATM    5  C11 UNL     1      25.297   5.781  49.724  1.00  0.00     0.056 A 
HETATM    6  C12 UNL     1      24.820   4.725  50.464  1.00  0.00     0.069 A 
HETATM    7 CL2  UNL     1      23.361   4.856  51.432  1.00  0.00    -0.081 Cl
ENDROOT
BRANCH   1   8
HETATM    8  O1  UNL     1      25.058   2.461  51.169  1.00  0.00    -0.345 OA
BRANCH   8   9
HETATM    9  C5  UNL     1      25.420   2.388  52.534  1.00  0.00     0.210 C 
BRANCH   9  10
HETATM   10  C4  UNL     1      26.623   1.487  52.611  1.00  0.00    -0.052 C 
HETATM   11  C3  UNL     1      27.640   2.015  53.269  1.00  0.00     0.008 C 
HETATM   12  C2  UNL     1      28.939   1.375  53.504  1.00  0.00     0.042 C 
HETATM   13  C1  UNL     1      29.209   0.062  53.514  1.00  0.00     0.116 C 
HETATM   14  F1  UNL     1      30.473  -0.325  53.750  1.00  0.00    -0.206 F 
HETATM   15  C15 UNL     1      28.248  -1.014  53.287  1.00  0.00     0.038 C 
HETATM   16  C14 UNL     1      27.112  -0.892  52.625  1.00  0.00    -0.019 C 
HETATM   17  C13 UNL     1      26.389   0.195  51.918  1.00  0.00     0.063 C 
ENDBRANCH   9  10
ENDBRANCH   8   9
ENDBRANCH   1   8
BRANCH   4  18
HETATM   18  N1  UNL     1      26.882   6.884  48.193  1.00  0.00    -0.377 N 
HETATM   19  H7  UNL     1      26.248   7.239  47.443  1.00  0.00     0.160 HD
BRANCH  18  20
HETATM   20  C10 UNL     1      28.159   7.530  48.429  1.00  0.00     0.235 C 
HETATM   21 CL1  UNL     1      29.239   7.078  47.087  1.00  0.00    -0.109 Cl
ENDBRANCH  18  20
ENDBRANCH   4  18
TORSDOF 5
ENDMDL
MODEL 7
REMARK VINA RESULT:      -7.0      2.367      2.757
REMARK  5 active torsions:
REMARK  status: ('A' for Active; 'I' for Inactive)
REMARK    1  A    between atoms: C4_5  and  C5_6 
REMARK    2  A    between atoms: C5_6  and  O1_7 
REMARK    3  A    between atoms: O1_7  and  C6_8 
REMARK    4  A    between atoms: C9_11  and  N1_12 
REMARK    5  A    between atoms: N1_12  and  C10_13 
ROOT
HETATM    1  C6  UNL     1      23.114   0.291  52.948  1.00  0.00     0.090 A 
HETATM    2  C7  UNL     1      21.878   0.038  53.505  1.00  0.00     0.041 A 
HETATM    3  C8  UNL     1      20.840   0.920  53.296  1.00  0.00     0.032 A 
HETATM    4  C9  UNL     1      20.958   2.077  52.538  1.00  0.00     0.030 A 
HETATM    5  C11 UNL     1      22.218   2.267  52.012  1.00  0.00     0.056 A 
HETATM    6  C12 UNL     1      23.295   1.429  52.182  1.00  0.00     0.069 A 
HETATM    7 CL2  UNL     1      24.859   1.772  51.462  1.00  0.00    -0.081 Cl
ENDROOT
BRANCH   1   8
HETATM    8  O1  UNL     1      24.193  -0.565  53.128  1.00  0.00    -0.345 OA
BRANCH   8   9
HETATM    9  C5  UNL     1      24.996  -0.389  54.278  1.00  0.00     0.210 C 
BRANCH   9  10
HETATM   10  C4  UNL     1      26.426  -0.520  53.827  1.00  0.00    -0.052 C 
HETATM   11  C3  UNL     1      27.275   0.199  54.539  1.00  0.00     0.008 C 
HETATM   12  C2  UNL     1      28.725   0.271  54.333  1.00  0.00     0.042 C 
HETATM   13  C1  UNL     1      29.509  -0.640  53.739  1.00  0.00     0.116 C 
HETATM   14  F1  UNL     1      30.825  -0.385  53.649  1.00  0.00    -0.206 F 
HETATM   15  C15 UNL     1      29.069  -1.908  53.166  1.00  0.00     0.038 C 
HETATM   16  C14 UNL     1      27.844  -2.170  52.747  1.00  0.00    -0.019 C 
HETATM   17  C13 UNL     1      26.555  -1.438  52.667  1.00  0.00     0.063 C 
ENDBRANCH   9  10
ENDBRANCH   8   9
ENDBRANCH   1   8
BRANCH   4  18
HETATM   18  N1  UNL     1      19.879   2.971  52.335  1.00  0.00    -0.377 N 
HETATM   19  H7  UNL     1      19.062   2.882  52.979  1.00  0.00     0.160 HD
BRANCH  18  20
HETATM   20  C10 UNL     1      19.872   3.979  51.291  1.00  0.00     0.235 C 
HETATM   21 CL1  UNL     1      19.213   3.217  49.823  1.00  0.00    -0.109 Cl
ENDBRANCH  18  20
ENDBRANCH   4  18
TORSDOF 5
ENDMDL
MODEL 8
REMARK VINA RESULT:      -7.0      2.670      3.535
REMARK  5 active torsions:
REMARK  status: ('A' for Active; 'I' for Inactive)
REMARK    1  A    between atoms: C4_5  and  C5_6 
REMARK    2  A    between atoms: C5_6  and  O1_7 
REMARK    3  A    between atoms: O1_7  and  C6_8 
REMARK    4  A    between atoms: C9_11  and  N1_12 
REMARK    5  A    between atoms: N1_12  and  C10_13 
ROOT
HETATM    1  C6  UNL     1      23.804   2.104  52.957  1.00  0.00     0.090 A 
HETATM    2  C7  UNL     1      23.336   3.294  52.440  1.00  0.00     0.041 A 
HETATM    3  C8  UNL     1      22.004   3.420  52.108  1.00  0.00     0.032 A 
HETATM    4  C9  UNL     1      21.076   2.400  52.266  1.00  0.00     0.030 A 
HETATM    5  C11 UNL     1      21.611   1.241  52.787  1.00  0.00     0.056 A 
HETATM    6  C12 UNL     1      22.927   1.049  53.138  1.00  0.00     0.069 A 
HETATM    7 CL2  UNL     1      23.498  -0.475  53.794  1.00  0.00    -0.081 Cl
ENDROOT
BRANCH   1   8
HETATM    8  O1  UNL     1      25.136   1.926  53.307  1.00  0.00    -0.345 OA
BRANCH   8   9
HETATM    9  C5  UNL     1      26.060   1.631  52.277  1.00  0.00     0.210 C 
BRANCH   9  10
HETATM   10  C4  UNL     1      27.034   0.636  52.848  1.00  0.00    -0.052 C 
HETATM   11  C3  UNL     1      26.852  -0.597  52.408  1.00  0.00     0.008 C 
HETATM   12  C2  UNL     1      27.645  -1.771  52.786  1.00  0.00     0.042 C 
HETATM   13  C1  UNL     1      28.901  -1.789  53.254  1.00  0.00     0.116 C 
HETATM   14  F1  UNL     1      29.454  -2.978  53.545  1.00  0.00    -0.206 F 
HETATM   15  C15 UNL     1      29.747  -0.622  53.486  1.00  0.00     0.038 C 
HETATM   16  C14 UNL     1      29.309   0.605  53.698  1.00  0.00    -0.019 C 
HETATM   17  C13 UNL     1      27.988   1.276  53.788  1.00  0.00     0.063 C 
ENDBRANCH   9  10
ENDBRANCH   8   9
ENDBRANCH   1   8
BRANCH   4  18
HETATM   18  N1  UNL     1      19.711   2.548  51.919  1.00  0.00    -0.377 N 
HETATM   19  H7  UNL     1      19.087   1.729  52.089  1.00  0.00     0.160 HD
BRANCH  18  20
HETATM   20  C10 UNL     1      19.167   3.767  51.350  1.00  0.00     0.235 C 
HETATM   21 CL1  UNL     1      17.424   3.790  51.713  1.00  0.00    -0.109 Cl
ENDBRANCH  18  20
ENDBRANCH   4  18
TORSDOF 5
ENDMDL
MODEL 9
REMARK VINA RESULT:      -7.0      5.172      7.379
REMARK  5 active torsions:
REMARK  status: ('A' for Active; 'I' for Inactive)
REMARK    1  A    between atoms: C4_5  and  C5_6 
REMARK    2  A    between atoms: C5_6  and  O1_7 
REMARK    3  A    between atoms: O1_7  and  C6_8 
REMARK    4  A    between atoms: C9_11  and  N1_12 
REMARK    5  A    between atoms: N1_12  and  C10_13 
ROOT
HETATM    1  C6  UNL     1      24.188   1.442  52.994  1.00  0.00     0.090 A 
HETATM    2  C7  UNL     1      25.328   2.180  53.234  1.00  0.00     0.041 A 
HETATM    3  C8  UNL     1      26.402   1.594  53.870  1.00  0.00     0.032 A 
HETATM    4  C9  UNL     1      26.412   0.273  54.296  1.00  0.00     0.030 A 
HETATM    5  C11 UNL     1      25.243  -0.405  54.025  1.00  0.00     0.056 A 
HETATM    6  C12 UNL     1      24.137   0.118  53.395  1.00  0.00     0.069 A 
HETATM    7 CL2  UNL     1      22.697  -0.841  53.102  1.00  0.00    -0.081 Cl
ENDROOT
BRANCH   1   8
HETATM    8  O1  UNL     1      23.080   1.984  52.357  1.00  0.00    -0.345 OA
BRANCH   8   9
HETATM    9  C5  UNL     1      23.098   2.066  50.946  1.00  0.00     0.210 C 
BRANCH   9  10
HETATM   10  C4  UNL     1      23.492   3.477  50.603  1.00  0.00    -0.052 C 
HETATM   11  C3  UNL     1      22.906   4.390  51.358  1.00  0.00     0.008 C 
HETATM   12  C2  UNL     1      23.094   5.841  51.257  1.00  0.00     0.042 C 
HETATM   13  C1  UNL     1      24.148   6.491  50.744  1.00  0.00     0.116 C 
HETATM   14  F1  UNL     1      24.128   7.834  50.743  1.00  0.00    -0.206 F 
HETATM   15  C15 UNL     1      25.341   5.874  50.171  1.00  0.00     0.038 C 
HETATM   16  C14 UNL     1      25.401   4.654  49.670  1.00  0.00    -0.019 C 
HETATM   17  C13 UNL     1      24.461   3.521  49.479  1.00  0.00     0.063 C 
ENDBRANCH   9  10
ENDBRANCH   8   9
ENDBRANCH   1   8
BRANCH   4  18
HETATM   18  N1  UNL     1      27.525  -0.311  54.949  1.00  0.00    -0.377 N 
HETATM   19  H7  UNL     1      27.322  -1.002  55.704  1.00  0.00     0.160 HD
BRANCH  18  20
HETATM   20  C10 UNL     1      28.898   0.012  54.612  1.00  0.00     0.235 C 
HETATM   21 CL1  UNL     1      29.468  -1.226  53.465  1.00  0.00    -0.109 Cl
ENDBRANCH  18  20
ENDBRANCH   4  18
TORSDOF 5
ENDMDL
