MODEL 1
REMARK VINA RESULT:      -9.7      0.000      0.000
REMARK  1 active torsions:
REMARK  status: ('A' for Active; 'I' for Inactive)
REMARK       I    between atoms: N1_1  and  C1_2 
REMARK    1  A    between atoms: C1_2  and  C2_4 
ROOT
HETATM    1  C2  UNL     1      26.988   1.348  52.204  1.00  0.00     0.112 C 
HETATM    2  C3  UNL     1      26.178   2.174  51.225  1.00  0.00     0.064 C 
HETATM    3  C4  UNL     1      25.029   2.928  51.118  1.00  0.00     0.013 C 
HETATM    4  C5  UNL     1      23.758   3.508  51.776  1.00  0.00     0.069 C 
HETATM    5  C6  UNL     1      22.745   2.577  51.139  1.00  0.00     0.011 C 
HETATM    6  C7  UNL     1      22.564   2.910  49.843  1.00  0.00     0.027 C 
HETATM    7  C8  UNL     1      23.730   3.290  48.994  1.00  0.00     0.040 C 
HETATM    8  C9  UNL     1      24.919   3.248  49.663  1.00  0.00     0.099 C 
HETATM    9  F1  UNL     1      26.155   3.448  49.131  1.00  0.00    -0.210 F 
HETATM   10  N2  UNL     1      22.011   1.442  51.609  1.00  0.00    -0.344 N 
HETATM   11  C10 UNL     1      22.256   0.510  52.656  1.00  0.00     0.141 A 
HETATM   12  N3  UNL     1      21.250  -0.074  53.316  1.00  0.00    -0.224 NA
HETATM   13  C11 UNL     1      21.443  -0.903  54.359  1.00  0.00     0.236 A 
HETATM   14  N4  UNL     1      22.676  -1.213  54.824  1.00  0.00    -0.241 NA
HETATM   15  C12 UNL     1      23.746  -0.645  54.187  1.00  0.00     0.073 A 
HETATM   16  C13 UNL     1      25.033  -0.915  54.668  1.00  0.00     0.057 A 
HETATM   17  C14 UNL     1      26.145  -0.349  54.098  1.00  0.00     0.043 A 
HETATM   18 CL1  UNL     1      27.827  -0.540  54.541  1.00  0.00    -0.084 Cl
HETATM   19  C15 UNL     1      26.079   0.505  53.035  1.00  0.00    -0.022 A 
HETATM   20  C16 UNL     1      24.736   0.577  52.787  1.00  0.00     0.027 A 
HETATM   21  C17 UNL     1      23.488   0.194  53.125  1.00  0.00     0.039 A 
HETATM   22  H9  UNL     1      21.120   1.233  51.115  1.00  0.00     0.167 HD
ENDROOT
BRANCH   1  23
HETATM   23  C1  UNL     1      27.867   2.231  52.971  1.00  0.00     0.204 C 
HETATM   24  N1  UNL     1      27.143   2.836  54.037  1.00  0.00    -0.272 NA
HETATM   25  H1  UNL     1      27.008   2.846  55.088  1.00  0.00     0.127 HD
HETATM   26  H2  UNL     1      26.995   2.861  55.075  1.00  0.00     0.127 HD
HETATM   27  O1  UNL     1      29.021   2.713  53.117  1.00  0.00    -0.279 OA
ENDBRANCH   1  23
TORSDOF 1
ENDMDL
MODEL 2
REMARK VINA RESULT:      -9.4      3.410      5.822
REMARK  1 active torsions:
REMARK  status: ('A' for Active; 'I' for Inactive)
REMARK       I    between atoms: N1_1  and  C1_2 
REMARK    1  A    between atoms: C1_2  and  C2_4 
ROOT
HETATM    1  C2  UNL     1      21.941  -0.502  52.909  1.00  0.00     0.112 C 
HETATM    2  C3  UNL     1      23.427  -0.259  53.074  1.00  0.00     0.064 C 
HETATM    3  C4  UNL     1      24.375   0.742  53.109  1.00  0.00     0.013 C 
HETATM    4  C5  UNL     1      24.719   2.246  53.028  1.00  0.00     0.069 C 
HETATM    5  C6  UNL     1      25.327   2.249  51.639  1.00  0.00     0.011 C 
HETATM    6  C7  UNL     1      26.553   1.685  51.671  1.00  0.00     0.027 C 
HETATM    7  C8  UNL     1      26.797   0.463  52.490  1.00  0.00     0.040 C 
HETATM    8  C9  UNL     1      25.684   0.025  53.148  1.00  0.00     0.099 C 
HETATM    9  F1  UNL     1      25.577  -1.111  53.888  1.00  0.00    -0.210 F 
HETATM   10  N2  UNL     1      24.859   2.675  50.355  1.00  0.00    -0.344 N 
HETATM   11  C10 UNL     1      23.552   2.837  49.817  1.00  0.00     0.141 A 
HETATM   12  N3  UNL     1      23.293   3.759  48.884  1.00  0.00    -0.224 NA
HETATM   13  C11 UNL     1      22.056   3.990  48.407  1.00  0.00     0.236 A 
HETATM   14  N4  UNL     1      20.970   3.303  48.835  1.00  0.00    -0.241 NA
HETATM   15  C12 UNL     1      21.174   2.343  49.790  1.00  0.00     0.073 A 
HETATM   16  C13 UNL     1      20.066   1.641  50.281  1.00  0.00     0.057 A 
HETATM   17  C14 UNL     1      20.197   0.694  51.265  1.00  0.00     0.043 A 
HETATM   18 CL1  UNL     1      18.958  -0.284  52.022  1.00  0.00    -0.084 Cl
HETATM   19  C15 UNL     1      21.398   0.370  51.827  1.00  0.00    -0.022 A 
HETATM   20  C16 UNL     1      22.272   1.188  51.167  1.00  0.00     0.027 A 
HETATM   21  C17 UNL     1      22.462   2.151  50.240  1.00  0.00     0.039 A 
HETATM   22  H9  UNL     1      25.590   2.926  49.659  1.00  0.00     0.167 HD
ENDROOT
BRANCH   1  23
HETATM   23  C1  UNL     1      21.278  -0.348  54.204  1.00  0.00     0.204 C 
HETATM   24  N1  UNL     1      21.113  -1.619  54.823  1.00  0.00    -0.272 NA
HETATM   25  H1  UNL     1      21.452  -2.244  55.608  1.00  0.00     0.127 HD
HETATM   26  H2  UNL     1      21.435  -2.252  55.594  1.00  0.00     0.127 HD
HETATM   27  O1  UNL     1      20.770   0.435  55.049  1.00  0.00    -0.279 OA
ENDBRANCH   1  23
TORSDOF 1
ENDMDL
MODEL 3
REMARK VINA RESULT:      -9.1      2.664      4.454
REMARK  1 active torsions:
REMARK  status: ('A' for Active; 'I' for Inactive)
REMARK       I    between atoms: N1_1  and  C1_2 
REMARK    1  A    between atoms: C1_2  and  C2_4 
ROOT
HETATM    1  C2  UNL     1      24.898   3.315  51.882  1.00  0.00     0.112 C 
HETATM    2  C3  UNL     1      26.138   2.618  52.405  1.00  0.00     0.064 C 
HETATM    3  C4  UNL     1      26.709   1.374  52.562  1.00  0.00     0.013 C 
HETATM    4  C5  UNL     1      26.620  -0.158  52.383  1.00  0.00     0.069 C 
HETATM    5  C6  UNL     1      26.349  -0.526  53.829  1.00  0.00     0.011 C 
HETATM    6  C7  UNL     1      27.479  -0.396  54.556  1.00  0.00     0.027 C 
HETATM    7  C8  UNL     1      28.387   0.766  54.335  1.00  0.00     0.040 C 
HETATM    8  C9  UNL     1      27.942   1.620  53.367  1.00  0.00     0.099 C 
HETATM    9  F1  UNL     1      28.505   2.807  53.015  1.00  0.00    -0.210 F 
HETATM   10  N2  UNL     1      25.176  -0.923  54.546  1.00  0.00    -0.344 N 
HETATM   11  C10 UNL     1      23.790  -0.708  54.308  1.00  0.00     0.141 A 
HETATM   12  N3  UNL     1      22.871  -1.598  54.699  1.00  0.00    -0.224 NA
HETATM   13  C11 UNL     1      21.560  -1.464  54.427  1.00  0.00     0.236 A 
HETATM   14  N4  UNL     1      21.064  -0.413  53.732  1.00  0.00    -0.241 NA
HETATM   15  C12 UNL     1      21.959   0.532  53.305  1.00  0.00     0.073 A 
HETATM   16  C13 UNL     1      21.482   1.612  52.550  1.00  0.00     0.057 A 
HETATM   17  C14 UNL     1      22.331   2.573  52.061  1.00  0.00     0.043 A 
HETATM   18 CL1  UNL     1      21.954   3.986  51.099  1.00  0.00    -0.084 Cl
HETATM   19  C15 UNL     1      23.679   2.549  52.272  1.00  0.00    -0.022 A 
HETATM   20  C16 UNL     1      23.848   1.416  53.020  1.00  0.00     0.027 A 
HETATM   21  C17 UNL     1      23.287   0.343  53.615  1.00  0.00     0.039 A 
HETATM   22  H9  UNL     1      25.331  -1.480  55.409  1.00  0.00     0.167 HD
ENDROOT
BRANCH   1  23
HETATM   23  C1  UNL     1      25.039   3.541  50.444  1.00  0.00     0.204 C 
HETATM   24  N1  UNL     1      26.071   4.491  50.197  1.00  0.00    -0.272 NA
HETATM   25  H1  UNL     1      27.056   4.613  49.829  1.00  0.00     0.127 HD
HETATM   26  H2  UNL     1      27.045   4.633  49.837  1.00  0.00     0.127 HD
HETATM   27  O1  UNL     1      24.642   3.262  49.282  1.00  0.00    -0.279 OA
ENDBRANCH   1  23
TORSDOF 1
ENDMDL
MODEL 4
REMARK VINA RESULT:      -9.1      2.986      4.510
REMARK  1 active torsions:
REMARK  status: ('A' for Active; 'I' for Inactive)
REMARK       I    between atoms: N1_1  and  C1_2 
REMARK    1  A    between atoms: C1_2  and  C2_4 
ROOT
HETATM    1  C2  UNL     1      23.428  -0.789  53.434  1.00  0.00     0.112 C 
HETATM    2  C3  UNL     1      24.583   0.039  52.912  1.00  0.00     0.064 C 
HETATM    3  C4  UNL     1      25.058   1.331  52.837  1.00  0.00     0.013 C 
HETATM    4  C5  UNL     1      24.875   2.831  53.157  1.00  0.00     0.069 C 
HETATM    5  C6  UNL     1      24.495   3.301  51.767  1.00  0.00     0.011 C 
HETATM    6  C7  UNL     1      25.586   3.318  50.973  1.00  0.00     0.027 C 
HETATM    7  C8  UNL     1      26.584   2.211  51.041  1.00  0.00     0.040 C 
HETATM    8  C9  UNL     1      26.256   1.246  51.949  1.00  0.00     0.099 C 
HETATM    9  F1  UNL     1      26.918   0.078  52.164  1.00  0.00    -0.210 F 
HETATM   10  N2  UNL     1      23.258   3.671  51.151  1.00  0.00    -0.344 N 
HETATM   11  C10 UNL     1      21.905   3.335  51.441  1.00  0.00     0.141 A 
HETATM   12  N3  UNL     1      20.906   4.185  51.180  1.00  0.00    -0.224 NA
HETATM   13  C11 UNL     1      19.626   3.932  51.507  1.00  0.00     0.236 A 
HETATM   14  N4  UNL     1      19.245   2.792  52.130  1.00  0.00    -0.241 NA
HETATM   15  C12 UNL     1      20.225   1.882  52.423  1.00  0.00     0.073 A 
HETATM   16  C13 UNL     1      19.870   0.709  53.101  1.00  0.00     0.057 A 
HETATM   17  C14 UNL     1      20.809  -0.226  53.457  1.00  0.00     0.043 A 
HETATM   18 CL1  UNL     1      20.587  -1.739  54.306  1.00  0.00    -0.084 Cl
HETATM   19  C15 UNL     1      22.138  -0.084  53.178  1.00  0.00    -0.022 A 
HETATM   20  C16 UNL     1      22.185   1.118  52.528  1.00  0.00     0.027 A 
HETATM   21  C17 UNL     1      21.518   2.194  52.062  1.00  0.00     0.039 A 
HETATM   22  H9  UNL     1      23.323   4.310  50.334  1.00  0.00     0.167 HD
ENDROOT
BRANCH   1  23
HETATM   23  C1  UNL     1      23.668  -1.127  54.836  1.00  0.00     0.204 C 
HETATM   24  N1  UNL     1      25.063  -1.085  55.117  1.00  0.00    -0.272 NA
HETATM   25  H1  UNL     1      25.823  -0.541  55.614  1.00  0.00     0.127 HD
HETATM   26  H2  UNL     1      25.830  -0.560  55.602  1.00  0.00     0.127 HD
HETATM   27  O1  UNL     1      23.175  -1.451  55.949  1.00  0.00    -0.279 OA
ENDBRANCH   1  23
TORSDOF 1
ENDMDL
MODEL 5
REMARK VINA RESULT:      -9.1      1.239      1.462
REMARK  1 active torsions:
REMARK  status: ('A' for Active; 'I' for Inactive)
REMARK       I    between atoms: N1_1  and  C1_2 
REMARK    1  A    between atoms: C1_2  and  C2_4 
ROOT
HETATM    1  C2  UNL     1      26.054   1.409  52.032  1.00  0.00     0.112 C 
HETATM    2  C3  UNL     1      25.551   2.480  51.085  1.00  0.00     0.064 C 
HETATM    3  C4  UNL     1      24.588   3.457  50.951  1.00  0.00     0.013 C 
HETATM    4  C5  UNL     1      23.371   4.209  51.534  1.00  0.00     0.069 C 
HETATM    5  C6  UNL     1      22.296   3.574  50.673  1.00  0.00     0.011 C 
HETATM    6  C7  UNL     1      22.356   4.072  49.420  1.00  0.00     0.027 C 
HETATM    7  C8  UNL     1      23.675   4.296  48.761  1.00  0.00     0.040 C 
HETATM    8  C9  UNL     1      24.735   3.945  49.547  1.00  0.00     0.099 C 
HETATM    9  F1  UNL     1      26.046   3.947  49.184  1.00  0.00    -0.210 F 
HETATM   10  N2  UNL     1      21.307   2.567  50.908  1.00  0.00    -0.344 N 
HETATM   11  C10 UNL     1      21.231   1.499  51.846  1.00  0.00     0.141 A 
HETATM   12  N3  UNL     1      20.055   1.063  52.310  1.00  0.00    -0.224 NA
HETATM   13  C11 UNL     1      19.948   0.107  53.251  1.00  0.00     0.236 A 
HETATM   14  N4  UNL     1      21.028  -0.492  53.805  1.00  0.00    -0.241 NA
HETATM   15  C12 UNL     1      22.261  -0.087  53.369  1.00  0.00     0.073 A 
HETATM   16  C13 UNL     1      23.399  -0.661  53.950  1.00  0.00     0.057 A 
HETATM   17  C14 UNL     1      24.663  -0.273  53.584  1.00  0.00     0.043 A 
HETATM   18 CL1  UNL     1      26.205  -0.846  54.182  1.00  0.00    -0.084 Cl
HETATM   19  C15 UNL     1      24.901   0.684  52.641  1.00  0.00    -0.022 A 
HETATM   20  C16 UNL     1      23.641   1.051  52.258  1.00  0.00     0.027 A 
HETATM   21  C17 UNL     1      22.308   0.894  52.403  1.00  0.00     0.039 A 
HETATM   22  H9  UNL     1      20.467   2.595  50.296  1.00  0.00     0.167 HD
ENDROOT
BRANCH   1  23
HETATM   23  C1  UNL     1      26.972   2.010  52.999  1.00  0.00     0.204 C 
HETATM   24  N1  UNL     1      27.974   2.760  52.320  1.00  0.00    -0.272 NA
HETATM   25  H1  UNL     1      28.318   3.739  52.106  1.00  0.00     0.127 HD
HETATM   26  H2  UNL     1      28.330   3.721  52.097  1.00  0.00     0.127 HD
HETATM   27  O1  UNL     1      27.285   2.168  54.209  1.00  0.00    -0.279 OA
ENDBRANCH   1  23
TORSDOF 1
ENDMDL
MODEL 6
REMARK VINA RESULT:      -9.0      2.564      4.749
REMARK  1 active torsions:
REMARK  status: ('A' for Active; 'I' for Inactive)
REMARK       I    between atoms: N1_1  and  C1_2 
REMARK    1  A    between atoms: C1_2  and  C2_4 
ROOT
HETATM    1  C2  UNL     1      25.937   0.550  54.080  1.00  0.00     0.112 C 
HETATM    2  C3  UNL     1      24.611  -0.126  54.364  1.00  0.00     0.064 C 
HETATM    3  C4  UNL     1      23.541  -0.738  53.749  1.00  0.00     0.013 C 
HETATM    4  C5  UNL     1      22.846  -1.202  52.450  1.00  0.00     0.069 C 
HETATM    5  C6  UNL     1      21.776  -0.130  52.386  1.00  0.00     0.011 C 
HETATM    6  C7  UNL     1      20.824  -0.373  53.311  1.00  0.00     0.027 C 
HETATM    7  C8  UNL     1      21.204  -0.839  54.676  1.00  0.00     0.040 C 
HETATM    8  C9  UNL     1      22.552  -0.968  54.845  1.00  0.00     0.099 C 
HETATM    9  F1  UNL     1      23.197  -1.280  56.001  1.00  0.00    -0.210 F 
HETATM   10  N2  UNL     1      21.609   1.055  51.602  1.00  0.00    -0.344 N 
HETATM   11  C10 UNL     1      22.538   1.898  50.929  1.00  0.00     0.141 A 
HETATM   12  N3  UNL     1      22.199   2.559  49.817  1.00  0.00    -0.224 NA
HETATM   13  C11 UNL     1      23.071   3.305  49.115  1.00  0.00     0.236 A 
HETATM   14  N4  UNL     1      24.367   3.448  49.480  1.00  0.00    -0.241 NA
HETATM   15  C12 UNL     1      24.772   2.795  50.613  1.00  0.00     0.073 A 
HETATM   16  C13 UNL     1      26.116   2.891  50.998  1.00  0.00     0.057 A 
HETATM   17  C14 UNL     1      26.595   2.232  52.102  1.00  0.00     0.043 A 
HETATM   18 CL1  UNL     1      28.220   2.207  52.748  1.00  0.00    -0.084 Cl
HETATM   19  C15 UNL     1      25.809   1.447  52.894  1.00  0.00    -0.022 A 
HETATM   20  C16 UNL     1      24.583   1.542  52.295  1.00  0.00     0.027 A 
HETATM   21  C17 UNL     1      23.835   2.047  51.292  1.00  0.00     0.039 A 
HETATM   22  H9  UNL     1      20.633   1.390  51.476  1.00  0.00     0.167 HD
ENDROOT
BRANCH   1  23
HETATM   23  C1  UNL     1      26.984  -0.466  53.962  1.00  0.00     0.204 C 
HETATM   24  N1  UNL     1      27.947  -0.298  54.997  1.00  0.00    -0.272 NA
HETATM   25  H1  UNL     1      28.317  -0.706  55.901  1.00  0.00     0.127 HD
HETATM   26  H2  UNL     1      28.327  -0.687  55.893  1.00  0.00     0.127 HD
HETATM   27  O1  UNL     1      27.431  -1.460  53.332  1.00  0.00    -0.279 OA
ENDBRANCH   1  23
TORSDOF 1
ENDMDL
MODEL 7
REMARK VINA RESULT:      -8.6      3.184      5.550
REMARK  1 active torsions:
REMARK  status: ('A' for Active; 'I' for Inactive)
REMARK       I    between atoms: N1_1  and  C1_2 
REMARK    1  A    between atoms: C1_2  and  C2_4 
ROOT
HETATM    1  C2  UNL     1      21.887   1.918  50.760  1.00  0.00     0.112 C 
HETATM    2  C3  UNL     1      20.966   1.039  51.580  1.00  0.00     0.064 C 
HETATM    3  C4  UNL     1      20.707   0.627  52.870  1.00  0.00     0.013 C 
HETATM    4  C5  UNL     1      21.059   0.678  54.373  1.00  0.00     0.069 C 
HETATM    5  C6  UNL     1      21.720  -0.682  54.483  1.00  0.00     0.011 C 
HETATM    6  C7  UNL     1      20.784  -1.654  54.449  1.00  0.00     0.027 C 
HETATM    7  C8  UNL     1      19.634  -1.558  53.503  1.00  0.00     0.040 C 
HETATM    8  C9  UNL     1      19.666  -0.434  52.729  1.00  0.00     0.099 C 
HETATM    9  F1  UNL     1      18.811  -0.124  51.718  1.00  0.00    -0.210 F 
HETATM   10  N2  UNL     1      23.081  -1.117  54.568  1.00  0.00    -0.344 N 
HETATM   11  C10 UNL     1      24.305  -0.520  54.153  1.00  0.00     0.141 A 
HETATM   12  N3  UNL     1      25.448  -0.751  54.808  1.00  0.00    -0.224 NA
HETATM   13  C11 UNL     1      26.608  -0.148  54.489  1.00  0.00     0.236 A 
HETATM   14  N4  UNL     1      26.710   0.745  53.477  1.00  0.00    -0.241 NA
HETATM   15  C12 UNL     1      25.571   1.021  52.769  1.00  0.00     0.073 A 
HETATM   16  C13 UNL     1      25.636   1.969  51.740  1.00  0.00     0.057 A 
HETATM   17  C14 UNL     1      24.523   2.319  51.017  1.00  0.00     0.043 A 
HETATM   18 CL1  UNL     1      24.380   3.473  49.709  1.00  0.00    -0.084 Cl
HETATM   19  C15 UNL     1      23.292   1.776  51.243  1.00  0.00    -0.022 A 
HETATM   20  C16 UNL     1      23.529   0.906  52.272  1.00  0.00     0.027 A 
HETATM   21  C17 UNL     1      24.414   0.372  53.139  1.00  0.00     0.039 A 
HETATM   22  H9  UNL     1      23.242  -2.040  55.017  1.00  0.00     0.167 HD
ENDROOT
BRANCH   1  23
HETATM   23  C1  UNL     1      21.380   3.291  50.765  1.00  0.00     0.204 C 
HETATM   24  N1  UNL     1      20.802   3.602  49.502  1.00  0.00    -0.272 NA
HETATM   25  H1  UNL     1      19.889   3.774  48.993  1.00  0.00     0.127 HD
HETATM   26  H2  UNL     1      19.909   3.775  48.981  1.00  0.00     0.127 HD
HETATM   27  O1  UNL     1      21.218   4.359  51.411  1.00  0.00    -0.279 OA
ENDBRANCH   1  23
TORSDOF 1
ENDMDL
MODEL 8
REMARK VINA RESULT:      -8.6      3.152      4.869
REMARK  1 active torsions:
REMARK  status: ('A' for Active; 'I' for Inactive)
REMARK       I    between atoms: N1_1  and  C1_2 
REMARK    1  A    between atoms: C1_2  and  C2_4 
ROOT
HETATM    1  C2  UNL     1      21.284   1.308  53.014  1.00  0.00     0.112 C 
HETATM    2  C3  UNL     1      21.486   2.603  52.254  1.00  0.00     0.064 C 
HETATM    3  C4  UNL     1      22.235   3.177  51.251  1.00  0.00     0.013 C 
HETATM    4  C5  UNL     1      23.347   3.047  50.186  1.00  0.00     0.069 C 
HETATM    5  C6  UNL     1      24.428   3.825  50.911  1.00  0.00     0.011 C 
HETATM    6  C7  UNL     1      24.153   5.146  50.865  1.00  0.00     0.027 C 
HETATM    7  C8  UNL     1      22.756   5.631  51.058  1.00  0.00     0.040 C 
HETATM    8  C9  UNL     1      21.862   4.623  51.276  1.00  0.00     0.099 C 
HETATM    9  F1  UNL     1      20.543   4.763  51.578  1.00  0.00    -0.210 F 
HETATM   10  N2  UNL     1      25.602   3.447  51.635  1.00  0.00    -0.344 N 
HETATM   11  C10 UNL     1      25.966   2.250  52.314  1.00  0.00     0.141 A 
HETATM   12  N3  UNL     1      27.242   1.861  52.403  1.00  0.00    -0.224 NA
HETATM   13  C11 UNL     1      27.615   0.700  52.973  1.00  0.00     0.236 A 
HETATM   14  N4  UNL     1      26.724  -0.170  53.502  1.00  0.00    -0.241 NA
HETATM   15  C12 UNL     1      25.400   0.175  53.440  1.00  0.00     0.073 A 
HETATM   16  C13 UNL     1      24.450  -0.722  53.945  1.00  0.00     0.057 A 
HETATM   17  C14 UNL     1      23.106  -0.454  53.881  1.00  0.00     0.043 A 
HETATM   18 CL1  UNL     1      21.762  -1.428  54.436  1.00  0.00    -0.084 Cl
HETATM   19  C15 UNL     1      22.605   0.690  53.330  1.00  0.00    -0.022 A 
HETATM   20  C16 UNL     1      23.732   1.356  52.936  1.00  0.00     0.027 A 
HETATM   21  C17 UNL     1      25.078   1.376  52.848  1.00  0.00     0.039 A 
HETATM   22  H9  UNL     1      26.358   4.160  51.692  1.00  0.00     0.167 HD
ENDROOT
BRANCH   1  23
HETATM   23  C1  UNL     1      20.373   0.443  52.264  1.00  0.00     0.204 C 
HETATM   24  N1  UNL     1      20.907   0.175  50.971  1.00  0.00    -0.272 NA
HETATM   25  H1  UNL     1      21.351  -0.569  50.362  1.00  0.00     0.127 HD
HETATM   26  H2  UNL     1      21.348  -0.548  50.353  1.00  0.00     0.127 HD
HETATM   27  O1  UNL     1      19.288  -0.196  52.249  1.00  0.00    -0.279 OA
ENDBRANCH   1  23
TORSDOF 1
ENDMDL
MODEL 9
REMARK VINA RESULT:      -8.4      2.838      4.967
REMARK  1 active torsions:
REMARK  status: ('A' for Active; 'I' for Inactive)
REMARK       I    between atoms: N1_1  and  C1_2 
REMARK    1  A    between atoms: C1_2  and  C2_4 
ROOT
HETATM    1  C2  UNL     1      25.067   2.598  52.596  1.00  0.00     0.112 C 
HETATM    2  C3  UNL     1      24.643   1.312  53.276  1.00  0.00     0.064 C 
HETATM    3  C4  UNL     1      23.768   0.253  53.166  1.00  0.00     0.013 C 
HETATM    4  C5  UNL     1      22.634  -0.455  52.393  1.00  0.00     0.069 C 
HETATM    5  C6  UNL     1      21.491  -0.109  53.327  1.00  0.00     0.011 C 
HETATM    6  C7  UNL     1      21.571  -0.856  54.448  1.00  0.00     0.027 C 
HETATM    7  C8  UNL     1      22.892  -1.106  55.094  1.00  0.00     0.040 C 
HETATM    8  C9  UNL     1      23.931  -0.509  54.440  1.00  0.00     0.099 C 
HETATM    9  F1  UNL     1      25.230  -0.480  54.843  1.00  0.00    -0.210 F 
HETATM   10  N2  UNL     1      20.421   0.839  53.273  1.00  0.00    -0.344 N 
HETATM   11  C10 UNL     1      20.268   2.072  52.579  1.00  0.00     0.141 A 
HETATM   12  N3  UNL     1      19.067   2.498  52.174  1.00  0.00    -0.224 NA
HETATM   13  C11 UNL     1      18.894   3.621  51.452  1.00  0.00     0.236 A 
HETATM   14  N4  UNL     1      19.927   4.412  51.077  1.00  0.00    -0.241 NA
HETATM   15  C12 UNL     1      21.182   4.026  51.464  1.00  0.00     0.073 A 
HETATM   16  C13 UNL     1      22.275   4.803  51.059  1.00  0.00     0.057 A 
HETATM   17  C14 UNL     1      23.562   4.452  51.382  1.00  0.00     0.043 A 
HETATM   18 CL1  UNL     1      25.058   5.264  50.976  1.00  0.00    -0.084 Cl
HETATM   19  C15 UNL     1      23.866   3.339  52.111  1.00  0.00    -0.022 A 
HETATM   20  C16 UNL     1      22.636   2.796  52.361  1.00  0.00     0.027 A 
HETATM   21  C17 UNL     1      21.298   2.870  52.202  1.00  0.00     0.039 A 
HETATM   22  H9  UNL     1      19.576   0.612  53.834  1.00  0.00     0.167 HD
ENDROOT
BRANCH   1  23
HETATM   23  C1  UNL     1      26.053   2.295  51.558  1.00  0.00     0.204 C 
HETATM   24  N1  UNL     1      27.335   2.775  51.949  1.00  0.00    -0.272 NA
HETATM   25  H1  UNL     1      28.298   2.483  52.279  1.00  0.00     0.127 HD
HETATM   26  H2  UNL     1      28.294   2.506  52.276  1.00  0.00     0.127 HD
HETATM   27  O1  UNL     1      26.285   1.780  50.433  1.00  0.00    -0.279 OA
ENDBRANCH   1  23
TORSDOF 1
ENDMDL
