MODEL 1
REMARK VINA RESULT:      -6.6      0.000      0.000
REMARK  4 active torsions:
REMARK  status: ('A' for Active; 'I' for Inactive)
REMARK    1  A    between atoms: O1_2  and  C2_3 
REMARK    2  A    between atoms: C2_3  and  C3_4 
REMARK    3  A    between atoms: C15_21  and  C16_22 
REMARK    4  A    between atoms: C16_22  and  O4_23 
ROOT
HETATM    1  C3  UNL     1      20.677   4.534  50.349  1.00  0.00     0.182 C 
HETATM    2  O2  UNL     1      21.200   5.389  51.418  1.00  0.00    -0.351 OA
HETATM    3  C4  UNL     1      22.222   6.279  51.004  1.00  0.00     0.160 C 
HETATM    4  C5  UNL     1      23.477   6.684  51.105  1.00  0.00     0.037 C 
HETATM    5  C6  UNL     1      23.937   7.780  50.294  1.00  0.00     0.114 C 
HETATM    6  P1  UNL     1      25.276   7.394  49.054  1.00  0.00     0.004 P 
HETATM    7  N1  UNL     1      26.023   5.791  49.454  1.00  0.00    -0.269 NA
HETATM    8  C7  UNL     1      25.296   4.794  49.626  1.00  0.00     0.053 A 
HETATM    9  C8  UNL     1      25.213   3.398  49.938  1.00  0.00     0.059 A 
HETATM   10  C9  UNL     1      24.921   2.319  50.785  1.00  0.00     0.067 A 
HETATM   11  C10 UNL     1      24.310   2.078  52.017  1.00  0.00     0.020 A 
HETATM   12 CL1  UNL     1      24.076   0.562  52.889  1.00  0.00    -0.088 Cl
HETATM   13  C11 UNL     1      23.792   3.185  52.708  1.00  0.00     0.045 A 
HETATM   14  C12 UNL     1      23.892   4.427  52.176  1.00  0.00     0.024 A 
HETATM   15  C13 UNL     1      24.523   3.966  51.097  1.00  0.00     0.058 A 
HETATM   16  C14 UNL     1      24.133   4.029  49.697  1.00  0.00     0.172 A 
HETATM   17  O3  UNL     1      22.869   4.587  49.425  1.00  0.00    -0.370 OA
HETATM   18  C15 UNL     1      21.817   3.765  49.799  1.00  0.00     0.177 C 
HETATM   19  N2  UNL     1      23.757   5.768  52.091  1.00  0.00    -0.360 N 
HETATM   20  H10 UNL     1      24.818   7.452  47.695  1.00  0.00     0.082 HD
HETATM   21  H20 UNL     1      23.949   5.924  53.118  1.00  0.00     0.165 HD
ENDROOT
BRANCH   1  22
HETATM   22  C2  UNL     1      19.629   3.707  51.035  1.00  0.00     0.202 C 
BRANCH  22  23
HETATM   23  O1  UNL     1      19.814   3.522  52.379  1.00  0.00    -0.393 OA
HETATM   24  C1  UNL     1      20.163   2.180  52.573  1.00  0.00     0.201 C 
ENDBRANCH  22  23
ENDBRANCH   1  22
BRANCH  18  25
HETATM   25  C16 UNL     1      21.344   3.175  48.401  1.00  0.00     0.201 C 
BRANCH  25  26
HETATM   26  O4  UNL     1      21.853   1.913  48.232  1.00  0.00    -0.393 OA
HETATM   27  C17 UNL     1      21.607   1.050  49.302  1.00  0.00     0.201 C 
ENDBRANCH  25  26
ENDBRANCH  18  25
TORSDOF 4
ENDMDL
MODEL 2
REMARK VINA RESULT:      -5.8      3.228      5.167
REMARK  4 active torsions:
REMARK  status: ('A' for Active; 'I' for Inactive)
REMARK    1  A    between atoms: O1_2  and  C2_3 
REMARK    2  A    between atoms: C2_3  and  C3_4 
REMARK    3  A    between atoms: C15_21  and  C16_22 
REMARK    4  A    between atoms: C16_22  and  O4_23 
ROOT
HETATM    1  C3  UNL     1      23.677   5.271  51.431  1.00  0.00     0.182 C 
HETATM    2  O2  UNL     1      22.234   5.439  51.621  1.00  0.00    -0.351 OA
HETATM    3  C4  UNL     1      21.563   4.266  52.049  1.00  0.00     0.160 C 
HETATM    4  C5  UNL     1      20.655   3.334  51.814  1.00  0.00     0.037 C 
HETATM    5  C6  UNL     1      20.445   2.287  52.780  1.00  0.00     0.114 C 
HETATM    6  P1  UNL     1      20.832   0.550  52.224  1.00  0.00     0.004 P 
HETATM    7  N1  UNL     1      20.974   0.515  50.416  1.00  0.00    -0.269 NA
HETATM    8  C7  UNL     1      21.719   1.327  49.837  1.00  0.00     0.053 A 
HETATM    9  C8  UNL     1      22.240   1.818  48.595  1.00  0.00     0.059 A 
HETATM   10  C9  UNL     1      22.332   2.759  47.560  1.00  0.00     0.067 A 
HETATM   11  C10 UNL     1      21.894   4.052  47.266  1.00  0.00     0.020 A 
HETATM   12 CL1  UNL     1      22.159   5.038  45.826  1.00  0.00    -0.088 Cl
HETATM   13  C11 UNL     1      21.118   4.707  48.235  1.00  0.00     0.045 A 
HETATM   14  C12 UNL     1      20.820   4.086  49.402  1.00  0.00     0.024 A 
HETATM   15  C13 UNL     1      21.490   2.991  49.046  1.00  0.00     0.058 A 
HETATM   16  C14 UNL     1      22.640   2.361  49.676  1.00  0.00     0.172 A 
HETATM   17  O3  UNL     1      23.192   3.033  50.783  1.00  0.00    -0.370 OA
HETATM   18  C15 UNL     1      23.872   4.191  50.436  1.00  0.00     0.177 C 
HETATM   19  N2  UNL     1      20.278   3.915  50.626  1.00  0.00    -0.360 N 
HETATM   20  H10 UNL     1      21.990  -0.002  52.868  1.00  0.00     0.082 HD
HETATM   21  H20 UNL     1      19.381   4.414  50.378  1.00  0.00     0.165 HD
ENDROOT
BRANCH   1  22
HETATM   22  C2  UNL     1      24.139   6.629  50.989  1.00  0.00     0.202 C 
BRANCH  22  23
HETATM   23  O1  UNL     1      23.171   7.597  50.961  1.00  0.00    -0.393 OA
HETATM   24  C1  UNL     1      23.301   8.285  49.748  1.00  0.00     0.201 C 
ENDBRANCH  22  23
ENDBRANCH   1  22
BRANCH  18  25
HETATM   25  C16 UNL     1      25.389   3.730  50.546  1.00  0.00     0.201 C 
BRANCH  25  26
HETATM   26  O4  UNL     1      25.934   3.616  49.293  1.00  0.00    -0.393 OA
HETATM   27  C17 UNL     1      27.014   4.471  49.061  1.00  0.00     0.201 C 
ENDBRANCH  25  26
ENDBRANCH  18  25
TORSDOF 4
ENDMDL
MODEL 3
REMARK VINA RESULT:      -5.8      2.763      5.303
REMARK  4 active torsions:
REMARK  status: ('A' for Active; 'I' for Inactive)
REMARK    1  A    between atoms: O1_2  and  C2_3 
REMARK    2  A    between atoms: C2_3  and  C3_4 
REMARK    3  A    between atoms: C15_21  and  C16_22 
REMARK    4  A    between atoms: C16_22  and  O4_23 
ROOT
HETATM    1  C3  UNL     1      23.997   3.511  50.113  1.00  0.00     0.182 C 
HETATM    2  O2  UNL     1      23.525   2.463  49.205  1.00  0.00    -0.351 OA
HETATM    3  C4  UNL     1      22.228   2.688  48.680  1.00  0.00     0.160 C 
HETATM    4  C5  UNL     1      20.971   2.294  48.566  1.00  0.00     0.037 C 
HETATM    5  C6  UNL     1      20.046   3.082  47.795  1.00  0.00     0.114 C 
HETATM    6  P1  UNL     1      18.614   3.834  48.723  1.00  0.00     0.004 P 
HETATM    7  N1  UNL     1      18.459   3.030  50.341  1.00  0.00    -0.269 NA
HETATM    8  C7  UNL     1      19.452   2.938  51.086  1.00  0.00     0.053 A 
HETATM    9  C8  UNL     1      19.992   2.479  52.332  1.00  0.00     0.059 A 
HETATM   10  C9  UNL     1      20.763   1.612  53.119  1.00  0.00     0.067 A 
HETATM   11  C10 UNL     1      21.689   0.580  52.957  1.00  0.00     0.020 A 
HETATM   12 CL1  UNL     1      22.534  -0.385  54.170  1.00  0.00    -0.088 Cl
HETATM   13  C11 UNL     1      22.027   0.216  51.644  1.00  0.00     0.045 A 
HETATM   14  C12 UNL     1      21.463   0.859  50.594  1.00  0.00     0.024 A 
HETATM   15  C13 UNL     1      20.749   1.646  51.397  1.00  0.00     0.058 A 
HETATM   16  C14 UNL     1      20.765   3.095  51.529  1.00  0.00     0.172 A 
HETATM   17  O3  UNL     1      21.723   3.782  50.759  1.00  0.00    -0.370 OA
HETATM   18  C15 UNL     1      23.019   3.612  51.221  1.00  0.00     0.177 C 
HETATM   19  N2  UNL     1      21.197   1.156  49.304  1.00  0.00    -0.360 N 
HETATM   20  H10 UNL     1      18.704   5.262  48.836  1.00  0.00     0.082 HD
HETATM   21  H20 UNL     1      21.217   0.147  48.992  1.00  0.00     0.165 HD
ENDROOT
BRANCH   1  22
HETATM   22  C2  UNL     1      25.365   3.043  50.517  1.00  0.00     0.202 C 
BRANCH  22  23
HETATM   23  O1  UNL     1      26.357   3.271  49.601  1.00  0.00    -0.393 OA
HETATM   24  C1  UNL     1      26.372   4.644  49.331  1.00  0.00     0.201 C 
ENDBRANCH  22  23
ENDBRANCH   1  22
BRANCH  18  25
HETATM   25  C16 UNL     1      23.294   4.995  51.955  1.00  0.00     0.201 C 
BRANCH  25  26
HETATM   26  O4  UNL     1      23.196   6.027  51.056  1.00  0.00    -0.393 OA
HETATM   27  C17 UNL     1      24.177   7.009  51.208  1.00  0.00     0.201 C 
ENDBRANCH  25  26
ENDBRANCH  18  25
TORSDOF 4
ENDMDL
MODEL 4
REMARK VINA RESULT:      -5.7      9.329     11.468
REMARK  4 active torsions:
REMARK  status: ('A' for Active; 'I' for Inactive)
REMARK    1  A    between atoms: O1_2  and  C2_3 
REMARK    2  A    between atoms: C2_3  and  C3_4 
REMARK    3  A    between atoms: C15_21  and  C16_22 
REMARK    4  A    between atoms: C16_22  and  O4_23 
ROOT
HETATM    1  C3  UNL     1      34.098   8.284  46.070  1.00  0.00     0.182 C 
HETATM    2  O2  UNL     1      34.687   7.860  47.343  1.00  0.00    -0.351 OA
HETATM    3  C4  UNL     1      34.737   6.456  47.522  1.00  0.00     0.160 C 
HETATM    4  C5  UNL     1      34.365   5.391  48.212  1.00  0.00     0.037 C 
HETATM    5  C6  UNL     1      34.825   4.087  47.810  1.00  0.00     0.114 C 
HETATM    6  P1  UNL     1      33.519   2.875  47.261  1.00  0.00     0.004 P 
HETATM    7  N1  UNL     1      31.887   3.473  47.780  1.00  0.00    -0.269 NA
HETATM    8  C7  UNL     1      31.536   4.636  47.505  1.00  0.00     0.053 A 
HETATM    9  C8  UNL     1      30.527   5.649  47.599  1.00  0.00     0.059 A 
HETATM   10  C9  UNL     1      29.991   6.840  48.109  1.00  0.00     0.067 A 
HETATM   11  C10 UNL     1      30.381   7.916  48.909  1.00  0.00     0.020 A 
HETATM   12 CL1  UNL     1      29.467   9.337  49.421  1.00  0.00    -0.088 Cl
HETATM   13  C11 UNL     1      31.692   7.906  49.410  1.00  0.00     0.045 A 
HETATM   14  C12 UNL     1      32.527   6.882  49.112  1.00  0.00     0.024 A 
HETATM   15  C13 UNL     1      31.594   6.270  48.384  1.00  0.00     0.058 A 
HETATM   16  C14 UNL     1      31.601   5.922  46.971  1.00  0.00     0.172 A 
HETATM   17  O3  UNL     1      32.716   6.353  46.227  1.00  0.00    -0.370 OA
HETATM   18  C15 UNL     1      32.728   7.722  46.006  1.00  0.00     0.177 C 
HETATM   19  N2  UNL     1      33.660   6.148  49.117  1.00  0.00    -0.360 N 
HETATM   20  H10 UNL     1      33.568   2.593  45.855  1.00  0.00     0.082 HD
HETATM   21  H20 UNL     1      33.871   6.349  50.133  1.00  0.00     0.165 HD
ENDROOT
BRANCH   1  22
HETATM   22  C2  UNL     1      34.164   9.782  46.128  1.00  0.00     0.202 C 
BRANCH  22  23
HETATM   23  O1  UNL     1      33.269  10.378  46.976  1.00  0.00    -0.393 OA
HETATM   24  C1  UNL     1      32.833  11.559  46.363  1.00  0.00     0.201 C 
ENDBRANCH  22  23
ENDBRANCH   1  22
BRANCH  18  25
HETATM   25  C16 UNL     1      32.261   7.818  44.490  1.00  0.00     0.201 C 
BRANCH  25  26
HETATM   26  O4  UNL     1      31.460   8.918  44.318  1.00  0.00    -0.393 OA
HETATM   27  C17 UNL     1      30.337   8.941  45.149  1.00  0.00     0.201 C 
ENDBRANCH  25  26
ENDBRANCH  18  25
TORSDOF 4
ENDMDL
MODEL 5
REMARK VINA RESULT:      -5.7      7.500      9.486
REMARK  4 active torsions:
REMARK  status: ('A' for Active; 'I' for Inactive)
REMARK    1  A    between atoms: O1_2  and  C2_3 
REMARK    2  A    between atoms: C2_3  and  C3_4 
REMARK    3  A    between atoms: C15_21  and  C16_22 
REMARK    4  A    between atoms: C16_22  and  O4_23 
ROOT
HETATM    1  C3  UNL     1      30.418  10.617  46.443  1.00  0.00     0.182 C 
HETATM    2  O2  UNL     1      30.847  10.633  47.844  1.00  0.00    -0.351 OA
HETATM    3  C4  UNL     1      31.505   9.450  48.264  1.00  0.00     0.160 C 
HETATM    4  C5  UNL     1      31.533   8.394  49.059  1.00  0.00     0.037 C 
HETATM    5  C6  UNL     1      32.621   7.457  48.958  1.00  0.00     0.114 C 
HETATM    6  P1  UNL     1      32.182   5.723  48.430  1.00  0.00     0.004 P 
HETATM    7  N1  UNL     1      30.391   5.483  48.586  1.00  0.00    -0.269 NA
HETATM    8  C7  UNL     1      29.608   6.300  48.068  1.00  0.00     0.053 A 
HETATM    9  C8  UNL     1      28.250   6.693  47.833  1.00  0.00     0.059 A 
HETATM   10  C9  UNL     1      27.126   7.503  48.047  1.00  0.00     0.067 A 
HETATM   11  C10 UNL     1      26.787   8.688  48.703  1.00  0.00     0.020 A 
HETATM   12 CL1  UNL     1      25.231   9.513  48.822  1.00  0.00    -0.088 Cl
HETATM   13  C11 UNL     1      27.809   9.360  49.392  1.00  0.00     0.045 A 
HETATM   14  C12 UNL     1      29.067   8.856  49.403  1.00  0.00     0.024 A 
HETATM   15  C13 UNL     1      28.708   7.814  48.655  1.00  0.00     0.058 A 
HETATM   16  C14 UNL     1      29.180   7.410  47.340  1.00  0.00     0.172 A 
HETATM   17  O3  UNL     1      30.097   8.275  46.712  1.00  0.00    -0.370 OA
HETATM   18  C15 UNL     1      29.518   9.453  46.267  1.00  0.00     0.177 C 
HETATM   19  N2  UNL     1      30.380   8.774  49.705  1.00  0.00    -0.360 N 
HETATM   20  H10 UNL     1      32.658   5.398  47.116  1.00  0.00     0.082 HD
HETATM   21  H20 UNL     1      30.249   9.128  50.692  1.00  0.00     0.165 HD
ENDROOT
BRANCH   1  22
HETATM   22  C2  UNL     1      29.765  11.955  46.255  1.00  0.00     0.202 C 
BRANCH  22  23
HETATM   23  O1  UNL     1      28.985  12.380  47.298  1.00  0.00    -0.393 OA
HETATM   24  C1  UNL     1      29.130  13.769  47.392  1.00  0.00     0.201 C 
ENDBRANCH  22  23
ENDBRANCH   1  22
BRANCH  18  25
HETATM   25  C16 UNL     1      29.398   9.195  44.703  1.00  0.00     0.201 C 
BRANCH  25  26
HETATM   26  O4  UNL     1      28.107   8.861  44.383  1.00  0.00    -0.393 OA
HETATM   27  C17 UNL     1      27.141   9.643  45.022  1.00  0.00     0.201 C 
ENDBRANCH  25  26
ENDBRANCH  18  25
TORSDOF 4
ENDMDL
MODEL 6
REMARK VINA RESULT:      -5.6      2.799      3.803
REMARK  4 active torsions:
REMARK  status: ('A' for Active; 'I' for Inactive)
REMARK    1  A    between atoms: O1_2  and  C2_3 
REMARK    2  A    between atoms: C2_3  and  C3_4 
REMARK    3  A    between atoms: C15_21  and  C16_22 
REMARK    4  A    between atoms: C16_22  and  O4_23 
ROOT
HETATM    1  C3  UNL     1      23.109   8.366  48.335  1.00  0.00     0.182 C 
HETATM    2  O2  UNL     1      23.985   8.816  49.420  1.00  0.00    -0.351 OA
HETATM    3  C4  UNL     1      25.349   8.474  49.246  1.00  0.00     0.160 C 
HETATM    4  C5  UNL     1      26.415   7.822  49.678  1.00  0.00     0.037 C 
HETATM    5  C6  UNL     1      27.646   7.901  48.937  1.00  0.00     0.114 C 
HETATM    6  P1  UNL     1      28.282   6.310  48.203  1.00  0.00     0.004 P 
HETATM    7  N1  UNL     1      27.422   4.909  48.969  1.00  0.00    -0.269 NA
HETATM    8  C7  UNL     1      26.177   4.894  49.013  1.00  0.00     0.053 A 
HETATM    9  C8  UNL     1      24.990   4.205  49.424  1.00  0.00     0.059 A 
HETATM   10  C9  UNL     1      23.870   4.022  50.248  1.00  0.00     0.067 A 
HETATM   11  C10 UNL     1      23.179   4.695  51.257  1.00  0.00     0.020 A 
HETATM   12 CL1  UNL     1      21.745   4.212  52.166  1.00  0.00    -0.088 Cl
HETATM   13  C11 UNL     1      23.667   5.953  51.645  1.00  0.00     0.045 A 
HETATM   14  C12 UNL     1      24.766   6.471  51.046  1.00  0.00     0.024 A 
HETATM   15  C13 UNL     1      24.899   5.404  50.259  1.00  0.00     0.058 A 
HETATM   16  C14 UNL     1      24.864   5.313  48.807  1.00  0.00     0.172 A 
HETATM   17  O3  UNL     1      24.572   6.503  48.113  1.00  0.00    -0.370 OA
HETATM   18  C15 UNL     1      23.247   6.894  48.234  1.00  0.00     0.177 C 
HETATM   19  N2  UNL     1      25.753   7.356  50.790  1.00  0.00    -0.360 N 
HETATM   20  H10 UNL     1      28.198   6.278  46.771  1.00  0.00     0.082 HD
HETATM   21  H20 UNL     1      25.883   7.615  51.806  1.00  0.00     0.165 HD
ENDROOT
BRANCH   1  22
HETATM   22  C2  UNL     1      21.749   8.845  48.753  1.00  0.00     0.202 C 
BRANCH  22  23
HETATM   23  O1  UNL     1      21.217   8.219  49.849  1.00  0.00    -0.393 OA
HETATM   24  C1  UNL     1      19.938   8.750  50.055  1.00  0.00     0.201 C 
ENDBRANCH  22  23
ENDBRANCH   1  22
BRANCH  18  25
HETATM   25  C16 UNL     1      22.646   6.470  46.825  1.00  0.00     0.201 C 
BRANCH  25  26
HETATM   26  O4  UNL     1      21.914   5.318  46.959  1.00  0.00    -0.393 OA
HETATM   27  C17 UNL     1      21.971   4.474  45.847  1.00  0.00     0.201 C 
ENDBRANCH  25  26
ENDBRANCH  18  25
TORSDOF 4
ENDMDL
MODEL 7
REMARK VINA RESULT:      -5.6     24.775     26.408
REMARK  4 active torsions:
REMARK  status: ('A' for Active; 'I' for Inactive)
REMARK    1  A    between atoms: O1_2  and  C2_3 
REMARK    2  A    between atoms: C2_3  and  C3_4 
REMARK    3  A    between atoms: C15_21  and  C16_22 
REMARK    4  A    between atoms: C16_22  and  O4_23 
ROOT
HETATM    1  C3  UNL     1      42.265  -2.842  69.611  1.00  0.00     0.182 C 
HETATM    2  O2  UNL     1      42.917  -2.212  68.460  1.00  0.00    -0.351 OA
HETATM    3  C4  UNL     1      43.335  -0.877  68.686  1.00  0.00     0.160 C 
HETATM    4  C5  UNL     1      43.244   0.404  68.372  1.00  0.00     0.037 C 
HETATM    5  C6  UNL     1      44.042   1.368  69.082  1.00  0.00     0.114 C 
HETATM    6  P1  UNL     1      43.118   2.641  70.085  1.00  0.00     0.004 P 
HETATM    7  N1  UNL     1      41.375   2.650  69.583  1.00  0.00    -0.269 NA
HETATM    8  C7  UNL     1      40.734   1.583  69.547  1.00  0.00     0.053 A 
HETATM    9  C8  UNL     1      39.490   0.928  69.269  1.00  0.00     0.059 A 
HETATM   10  C9  UNL     1      38.646   0.119  68.495  1.00  0.00     0.067 A 
HETATM   11  C10 UNL     1      38.718  -0.725  67.385  1.00  0.00     0.020 A 
HETATM   12 CL1  UNL     1      37.449  -1.652  66.583  1.00  0.00    -0.088 Cl
HETATM   13  C11 UNL     1      39.974  -0.889  66.779  1.00  0.00     0.045 A 
HETATM   14  C12 UNL     1      41.057  -0.242  67.272  1.00  0.00     0.024 A 
HETATM   15  C13 UNL     1      40.336   0.331  68.235  1.00  0.00     0.058 A 
HETATM   16  C14 UNL     1      40.467   0.222  69.680  1.00  0.00     0.172 A 
HETATM   17  O3  UNL     1      41.443  -0.676  70.154  1.00  0.00    -0.370 OA
HETATM   18  C15 UNL     1      41.096  -2.006  69.971  1.00  0.00     0.177 C 
HETATM   19  N2  UNL     1      42.344   0.155  67.363  1.00  0.00    -0.360 N 
HETATM   20  H10 UNL     1      43.271   2.462  71.500  1.00  0.00     0.082 HD
HETATM   21  H20 UNL     1      42.472   0.226  66.317  1.00  0.00     0.165 HD
ENDROOT
BRANCH   1  22
HETATM   22  C2  UNL     1      41.929  -4.220  69.120  1.00  0.00     0.202 C 
BRANCH  22  23
HETATM   23  O1  UNL     1      41.034  -4.273  68.084  1.00  0.00    -0.393 OA
HETATM   24  C1  UNL     1      40.478  -5.558  68.076  1.00  0.00     0.201 C 
ENDBRANCH  22  23
ENDBRANCH   1  22
BRANCH  18  25
HETATM   25  C16 UNL     1      40.653  -2.438  71.435  1.00  0.00     0.201 C 
BRANCH  25  26
HETATM   26  O4  UNL     1      39.284  -2.441  71.526  1.00  0.00    -0.393 OA
HETATM   27  C17 UNL     1      38.641  -3.017  70.428  1.00  0.00     0.201 C 
ENDBRANCH  25  26
ENDBRANCH  18  25
TORSDOF 4
ENDMDL
MODEL 8
REMARK VINA RESULT:      -5.5     25.092     26.747
REMARK  4 active torsions:
REMARK  status: ('A' for Active; 'I' for Inactive)
REMARK    1  A    between atoms: O1_2  and  C2_3 
REMARK    2  A    between atoms: C2_3  and  C3_4 
REMARK    3  A    between atoms: C15_21  and  C16_22 
REMARK    4  A    between atoms: C16_22  and  O4_23 
ROOT
HETATM    1  C3  UNL     1      39.859   1.066  69.738  1.00  0.00     0.182 C 
HETATM    2  O2  UNL     1      40.251   1.062  68.325  1.00  0.00    -0.351 OA
HETATM    3  C4  UNL     1      39.724  -0.020  67.579  1.00  0.00     0.160 C 
HETATM    4  C5  UNL     1      39.941  -1.106  66.856  1.00  0.00     0.037 C 
HETATM    5  C6  UNL     1      38.823  -1.844  66.328  1.00  0.00     0.114 C 
HETATM    6  P1  UNL     1      38.607  -3.589  66.950  1.00  0.00     0.004 P 
HETATM    7  N1  UNL     1      40.134  -4.129  67.766  1.00  0.00    -0.269 NA
HETATM    8  C7  UNL     1      40.649  -3.419  68.650  1.00  0.00     0.053 A 
HETATM    9  C8  UNL     1      41.719  -3.241  69.586  1.00  0.00     0.059 A 
HETATM   10  C9  UNL     1      42.905  -2.641  70.034  1.00  0.00     0.067 A 
HETATM   11  C10 UNL     1      43.739  -1.572  69.701  1.00  0.00     0.020 A 
HETATM   12 CL1  UNL     1      45.235  -1.022  70.460  1.00  0.00    -0.088 Cl
HETATM   13  C11 UNL     1      43.373  -0.787  68.596  1.00  0.00     0.045 A 
HETATM   14  C12 UNL     1      42.248  -1.077  67.898  1.00  0.00     0.024 A 
HETATM   15  C13 UNL     1      41.970  -2.114  68.686  1.00  0.00     0.058 A 
HETATM   16  C14 UNL     1      40.809  -2.351  69.531  1.00  0.00     0.172 A 
HETATM   17  O3  UNL     1      39.864  -1.310  69.602  1.00  0.00    -0.370 OA
HETATM   18  C15 UNL     1      40.312  -0.216  70.327  1.00  0.00     0.177 C 
HETATM   19  N2  UNL     1      41.306  -0.962  66.939  1.00  0.00    -0.360 N 
HETATM   20  H10 UNL     1      37.458  -3.747  67.794  1.00  0.00     0.082 HD
HETATM   21  H20 UNL     1      42.000  -0.699  66.187  1.00  0.00     0.165 HD
ENDROOT
BRANCH   1  22
HETATM   22  C2  UNL     1      40.532   2.289  70.290  1.00  0.00     0.202 C 
BRANCH  22  23
HETATM   23  O1  UNL     1      41.511   2.829  69.499  1.00  0.00    -0.393 OA
HETATM   24  C1  UNL     1      42.724   2.700  70.185  1.00  0.00     0.201 C 
ENDBRANCH  22  23
ENDBRANCH   1  22
BRANCH  18  25
HETATM   25  C16 UNL     1      39.536  -0.390  71.703  1.00  0.00     0.201 C 
BRANCH  25  26
HETATM   26  O4  UNL     1      40.378  -0.914  72.650  1.00  0.00    -0.393 OA
HETATM   27  C17 UNL     1      41.656  -0.350  72.652  1.00  0.00     0.201 C 
ENDBRANCH  25  26
ENDBRANCH  18  25
TORSDOF 4
ENDMDL
MODEL 9
REMARK VINA RESULT:      -5.5     23.838     25.565
REMARK  4 active torsions:
REMARK  status: ('A' for Active; 'I' for Inactive)
REMARK    1  A    between atoms: O1_2  and  C2_3 
REMARK    2  A    between atoms: C2_3  and  C3_4 
REMARK    3  A    between atoms: C15_21  and  C16_22 
REMARK    4  A    between atoms: C16_22  and  O4_23 
ROOT
HETATM    1  C3  UNL     1      41.420   0.033  68.990  1.00  0.00     0.182 C 
HETATM    2  O2  UNL     1      40.436   0.951  68.410  1.00  0.00    -0.351 OA
HETATM    3  C4  UNL     1      39.387   1.312  69.291  1.00  0.00     0.160 C 
HETATM    4  C5  UNL     1      38.094   1.312  69.570  1.00  0.00     0.037 C 
HETATM    5  C6  UNL     1      37.629   1.922  70.788  1.00  0.00     0.114 C 
HETATM    6  P1  UNL     1      36.815   0.792  72.028  1.00  0.00     0.004 P 
HETATM    7  N1  UNL     1      36.388  -0.776  71.223  1.00  0.00    -0.269 NA
HETATM    8  C7  UNL     1      37.253  -1.398  70.579  1.00  0.00     0.053 A 
HETATM    9  C8  UNL     1      37.576  -2.543  69.779  1.00  0.00     0.059 A 
HETATM   10  C9  UNL     1      37.870  -3.180  68.565  1.00  0.00     0.067 A 
HETATM   11  C10 UNL     1      38.156  -2.848  67.240  1.00  0.00     0.020 A 
HETATM   12 CL1  UNL     1      38.494  -3.892  65.857  1.00  0.00    -0.088 Cl
HETATM   13  C11 UNL     1      38.187  -1.484  66.909  1.00  0.00     0.045 A 
HETATM   14  C12 UNL     1      37.946  -0.548  67.858  1.00  0.00     0.024 A 
HETATM   15  C13 UNL     1      37.764  -1.476  68.796  1.00  0.00     0.058 A 
HETATM   16  C14 UNL     1      38.499  -1.702  70.031  1.00  0.00     0.172 A 
HETATM   17  O3  UNL     1      39.619  -0.878  70.252  1.00  0.00    -0.370 OA
HETATM   18  C15 UNL     1      40.691  -1.182  69.426  1.00  0.00     0.177 C 
HETATM   19  N2  UNL     1      37.779   0.682  68.389  1.00  0.00    -0.360 N 
HETATM   20  H10 UNL     1      37.602   0.595  73.211  1.00  0.00     0.082 HD
HETATM   21  H20 UNL     1      37.280   1.061  67.538  1.00  0.00     0.165 HD
ENDROOT
BRANCH   1  22
HETATM   22  C2  UNL     1      42.403  -0.185  67.878  1.00  0.00     0.202 C 
BRANCH  22  23
HETATM   23  O1  UNL     1      42.989   0.949  67.382  1.00  0.00    -0.393 OA
HETATM   24  C1  UNL     1      43.827   1.460  68.381  1.00  0.00     0.201 C 
ENDBRANCH  22  23
ENDBRANCH   1  22
BRANCH  18  25
HETATM   25  C16 UNL     1      41.656  -1.971  70.411  1.00  0.00     0.201 C 
BRANCH  25  26
HETATM   26  O4  UNL     1      41.521  -3.321  70.214  1.00  0.00    -0.393 OA
HETATM   27  C17 UNL     1      41.685  -3.723  68.886  1.00  0.00     0.201 C 
ENDBRANCH  25  26
ENDBRANCH  18  25
TORSDOF 4
ENDMDL
