MODEL 1
REMARK VINA RESULT:      -7.2      0.000      0.000
REMARK  9 active torsions:
REMARK  status: ('A' for Active; 'I' for Inactive)
REMARK    1  A    between atoms: C2_2  and  C3_3 
REMARK    2  A    between atoms: C3_3  and  N1_4 
REMARK    3  A    between atoms: C3_3  and  C9_12 
REMARK       I    between atoms: N1_4  and  C4_5 
REMARK    4  A    between atoms: C4_5  and  C5_7 
REMARK    5  A    between atoms: C6_8  and  C7_9 
REMARK    6  A    between atoms: C7_9  and  O2_10 
REMARK    7  A    between atoms: C14_19  and  N4_20 
REMARK    8  A    between atoms: N4_20  and  C15_21 
REMARK    9  A    between atoms: C18_24  and  C19_25 
ROOT
HETATM    1  C9  UNL     1      24.570   3.409  51.207  1.00  0.00     0.106 A 
HETATM    2  C10 UNL     1      23.469   4.331  51.510  1.00  0.00     0.165 A 
HETATM    3  N2  UNL     1      22.395   3.764  52.233  1.00  0.00    -0.299 NA
HETATM    4  C11 UNL     1      22.340   2.578  52.647  1.00  0.00     0.135 A 
HETATM    5  C12 UNL     1      23.385   1.589  52.440  1.00  0.00     0.084 A 
HETATM    6  C13 UNL     1      23.193   0.279  52.980  1.00  0.00     0.103 C 
HETATM    7  N3  UNL     1      23.057  -0.778  53.407  1.00  0.00    -0.191 NA
HETATM    8  C14 UNL     1      24.415   2.049  51.754  1.00  0.00     0.040 A 
ENDROOT
BRANCH   8   9
HETATM    9  N4  UNL     1      25.375   0.968  51.632  1.00  0.00    -0.374 N 
HETATM   10  H15 UNL     1      25.509   0.003  51.203  1.00  0.00     0.160 HD
BRANCH   9  11
HETATM   11  C15 UNL     1      26.634   1.175  52.315  1.00  0.00     0.096 A 
HETATM   12  C16 UNL     1      26.827  -0.666  52.553  1.00  0.00     0.072 A 
HETATM   13  C17 UNL     1      28.675  -0.532  53.565  1.00  0.00     0.050 A 
HETATM   14  C19 UNL     1      27.364   0.598  52.759  1.00  0.00    -0.035 A 
HETATM   15  C18 UNL     1      27.921   0.134  53.101  1.00  0.00    -0.063 A 
ENDBRANCH   9  11
ENDBRANCH   8   9
BRANCH   1  16
HETATM   16  C3  UNL     1      24.770   3.351  49.709  1.00  0.00     0.020 C 
BRANCH  16  17
HETATM   17  C2  UNL     1      23.750   2.994  48.930  1.00  0.00    -0.005 C 
HETATM   18  C1  UNL     1      22.563   2.397  48.321  1.00  0.00     0.038 C 
ENDBRANCH  16  17
BRANCH  16  19
HETATM   19  N1  UNL     1      26.090   3.750  49.340  1.00  0.00    -0.319 N 
HETATM   20  C4  UNL     1      26.637   4.974  48.901  1.00  0.00     0.300 C 
HETATM   21  O1  UNL     1      25.892   5.973  48.778  1.00  0.00    -0.258 OA
HETATM   22  H5  UNL     1      26.839   3.067  49.389  1.00  0.00     0.169 HD
BRANCH  20  23
HETATM   23  C5  UNL     1      28.002   5.203  48.568  1.00  0.00    -0.003 C 
HETATM   24  C6  UNL     1      29.154   5.408  48.270  1.00  0.00    -0.070 C 
BRANCH  24  25
HETATM   25  C7  UNL     1      30.539   5.671  47.907  1.00  0.00     0.261 C 
BRANCH  25  26
HETATM   26  O2  UNL     1      31.432   5.099  48.813  1.00  0.00    -0.384 OA
HETATM   27  C8  UNL     1      31.959   6.103  49.609  1.00  0.00     0.202 C 
ENDBRANCH  25  26
ENDBRANCH  24  25
ENDBRANCH  20  23
ENDBRANCH  16  19
ENDBRANCH   1  16
TORSDOF 9
ENDMDL
MODEL 2
REMARK VINA RESULT:      -7.1      4.115      5.543
REMARK  9 active torsions:
REMARK  status: ('A' for Active; 'I' for Inactive)
REMARK    1  A    between atoms: C2_2  and  C3_3 
REMARK    2  A    between atoms: C3_3  and  N1_4 
REMARK    3  A    between atoms: C3_3  and  C9_12 
REMARK       I    between atoms: N1_4  and  C4_5 
REMARK    4  A    between atoms: C4_5  and  C5_7 
REMARK    5  A    between atoms: C6_8  and  C7_9 
REMARK    6  A    between atoms: C7_9  and  O2_10 
REMARK    7  A    between atoms: C14_19  and  N4_20 
REMARK    8  A    between atoms: N4_20  and  C15_21 
REMARK    9  A    between atoms: C18_24  and  C19_25 
ROOT
HETATM    1  C9  UNL     1      21.162   2.246  51.923  1.00  0.00     0.106 A 
HETATM    2  C10 UNL     1      20.665   3.498  51.338  1.00  0.00     0.165 A 
HETATM    3  N2  UNL     1      19.291   3.498  51.004  1.00  0.00    -0.299 NA
HETATM    4  C11 UNL     1      18.492   2.548  51.200  1.00  0.00     0.135 A 
HETATM    5  C12 UNL     1      18.862   1.279  51.805  1.00  0.00     0.084 A 
HETATM    6  C13 UNL     1      17.844   0.290  51.979  1.00  0.00     0.103 C 
HETATM    7  N3  UNL     1      17.039  -0.516  52.128  1.00  0.00    -0.191 NA
HETATM    8  C14 UNL     1      20.140   1.203  52.127  1.00  0.00     0.040 A 
ENDROOT
BRANCH   8   9
HETATM    9  N4  UNL     1      20.363  -0.101  52.722  1.00  0.00    -0.374 N 
HETATM   10  H15 UNL     1      20.264  -1.144  52.531  1.00  0.00     0.160 HD
BRANCH   9  11
HETATM   11  C15 UNL     1      20.905  -0.087  54.064  1.00  0.00     0.096 A 
HETATM   12  C16 UNL     1      22.192  -1.347  53.576  1.00  0.00     0.072 A 
HETATM   13  C17 UNL     1      23.097  -1.440  55.481  1.00  0.00     0.050 A 
HETATM   14  C19 UNL     1      21.668  -0.549  54.583  1.00  0.00    -0.035 A 
HETATM   15  C18 UNL     1      22.264  -0.917  54.971  1.00  0.00    -0.063 A 
ENDBRANCH   9  11
ENDBRANCH   8   9
BRANCH   1  16
HETATM   16  C3  UNL     1      22.289   1.713  51.067  1.00  0.00     0.020 C 
BRANCH  16  17
HETATM   17  C2  UNL     1      22.172   1.745  49.741  1.00  0.00    -0.005 C 
HETATM   18  C1  UNL     1      21.822   1.542  48.336  1.00  0.00     0.038 C 
ENDBRANCH  16  17
BRANCH  16  19
HETATM   19  N1  UNL     1      23.388   1.269  51.865  1.00  0.00    -0.319 N 
HETATM   20  C4  UNL     1      24.258   1.929  52.756  1.00  0.00     0.300 C 
HETATM   21  O1  UNL     1      24.119   3.158  52.955  1.00  0.00    -0.258 OA
HETATM   22  H5  UNL     1      23.643   0.287  51.841  1.00  0.00     0.169 HD
BRANCH  20  23
HETATM   23  C5  UNL     1      25.321   1.323  53.482  1.00  0.00    -0.003 C 
HETATM   24  C6  UNL     1      26.212   0.810  54.116  1.00  0.00    -0.070 C 
BRANCH  24  25
HETATM   25  C7  UNL     1      27.275   0.182  54.888  1.00  0.00     0.261 C 
BRANCH  25  26
HETATM   26  O2  UNL     1      28.388   1.014  55.014  1.00  0.00    -0.384 OA
HETATM   27  C8  UNL     1      29.208   0.827  53.913  1.00  0.00     0.202 C 
ENDBRANCH  25  26
ENDBRANCH  24  25
ENDBRANCH  20  23
ENDBRANCH  16  19
ENDBRANCH   1  16
TORSDOF 9
ENDMDL
MODEL 3
REMARK VINA RESULT:      -7.0      1.523      1.755
REMARK  9 active torsions:
REMARK  status: ('A' for Active; 'I' for Inactive)
REMARK    1  A    between atoms: C2_2  and  C3_3 
REMARK    2  A    between atoms: C3_3  and  N1_4 
REMARK    3  A    between atoms: C3_3  and  C9_12 
REMARK       I    between atoms: N1_4  and  C4_5 
REMARK    4  A    between atoms: C4_5  and  C5_7 
REMARK    5  A    between atoms: C6_8  and  C7_9 
REMARK    6  A    between atoms: C7_9  and  O2_10 
REMARK    7  A    between atoms: C14_19  and  N4_20 
REMARK    8  A    between atoms: N4_20  and  C15_21 
REMARK    9  A    between atoms: C18_24  and  C19_25 
ROOT
HETATM    1  C9  UNL     1      22.945   3.313  51.199  1.00  0.00     0.106 A 
HETATM    2  C10 UNL     1      21.687   4.071  51.221  1.00  0.00     0.165 A 
HETATM    3  N2  UNL     1      20.648   3.483  51.980  1.00  0.00    -0.299 NA
HETATM    4  C11 UNL     1      20.740   2.417  52.639  1.00  0.00     0.135 A 
HETATM    5  C12 UNL     1      21.943   1.606  52.721  1.00  0.00     0.084 A 
HETATM    6  C13 UNL     1      21.907   0.421  53.521  1.00  0.00     0.103 C 
HETATM    7  N3  UNL     1      21.898  -0.534  54.160  1.00  0.00    -0.191 NA
HETATM    8  C14 UNL     1      22.951   2.089  52.018  1.00  0.00     0.040 A 
ENDROOT
BRANCH   8   9
HETATM    9  N4  UNL     1      24.077   1.191  52.198  1.00  0.00    -0.374 N 
HETATM   10  H15 UNL     1      24.505   0.289  51.827  1.00  0.00     0.160 HD
BRANCH   9  11
HETATM   11  C15 UNL     1      25.008   1.563  53.241  1.00  0.00     0.096 A 
HETATM   12  C16 UNL     1      25.765  -0.142  53.198  1.00  0.00     0.072 A 
HETATM   13  C17 UNL     1      27.187   0.244  54.710  1.00  0.00     0.050 A 
HETATM   14  C19 UNL     1      25.777   1.123  53.770  1.00  0.00    -0.035 A 
HETATM   15  C18 UNL     1      26.371   0.764  54.171  1.00  0.00    -0.063 A 
ENDBRANCH   9  11
ENDBRANCH   8   9
BRANCH   1  16
HETATM   16  C3  UNL     1      23.299   2.986  49.766  1.00  0.00     0.020 C 
BRANCH  16  17
HETATM   17  C2  UNL     1      22.514   2.164  49.072  1.00  0.00    -0.005 C 
HETATM   18  C1  UNL     1      21.550   1.168  48.607  1.00  0.00     0.038 C 
ENDBRANCH  16  17
BRANCH  16  19
HETATM   19  N1  UNL     1      24.472   3.683  49.343  1.00  0.00    -0.319 N 
HETATM   20  C4  UNL     1      25.845   3.509  49.616  1.00  0.00     0.300 C 
HETATM   21  O1  UNL     1      26.209   2.579  50.372  1.00  0.00    -0.258 OA
HETATM   22  H5  UNL     1      24.372   4.470  48.710  1.00  0.00     0.169 HD
BRANCH  20  23
HETATM   23  C5  UNL     1      26.903   4.310  49.103  1.00  0.00    -0.003 C 
HETATM   24  C6  UNL     1      27.814   4.980  48.679  1.00  0.00    -0.070 C 
BRANCH  24  25
HETATM   25  C7  UNL     1      28.922   5.774  48.167  1.00  0.00     0.261 C 
BRANCH  25  26
HETATM   26  O2  UNL     1      30.158   5.246  48.541  1.00  0.00    -0.384 OA
HETATM   27  C8  UNL     1      31.010   6.292  48.856  1.00  0.00     0.202 C 
ENDBRANCH  25  26
ENDBRANCH  24  25
ENDBRANCH  20  23
ENDBRANCH  16  19
ENDBRANCH   1  16
TORSDOF 9
ENDMDL
MODEL 4
REMARK VINA RESULT:      -7.0      2.761      5.982
REMARK  9 active torsions:
REMARK  status: ('A' for Active; 'I' for Inactive)
REMARK    1  A    between atoms: C2_2  and  C3_3 
REMARK    2  A    between atoms: C3_3  and  N1_4 
REMARK    3  A    between atoms: C3_3  and  C9_12 
REMARK       I    between atoms: N1_4  and  C4_5 
REMARK    4  A    between atoms: C4_5  and  C5_7 
REMARK    5  A    between atoms: C6_8  and  C7_9 
REMARK    6  A    between atoms: C7_9  and  O2_10 
REMARK    7  A    between atoms: C14_19  and  N4_20 
REMARK    8  A    between atoms: N4_20  and  C15_21 
REMARK    9  A    between atoms: C18_24  and  C19_25 
ROOT
HETATM    1  C9  UNL     1      22.971   2.035  49.825  1.00  0.00     0.106 A 
HETATM    2  C10 UNL     1      21.866   1.318  49.175  1.00  0.00     0.165 A 
HETATM    3  N2  UNL     1      21.160   2.064  48.204  1.00  0.00    -0.299 NA
HETATM    4  C11 UNL     1      21.428   3.239  47.849  1.00  0.00     0.135 A 
HETATM    5  C12 UNL     1      22.519   4.030  48.394  1.00  0.00     0.084 A 
HETATM    6  C13 UNL     1      22.715   5.353  47.886  1.00  0.00     0.103 C 
HETATM    7  N3  UNL     1      22.889   6.417  47.489  1.00  0.00    -0.191 NA
HETATM    8  C14 UNL     1      23.212   3.399  49.323  1.00  0.00     0.040 A 
ENDROOT
BRANCH   8   9
HETATM    9  N4  UNL     1      24.263   4.296  49.768  1.00  0.00    -0.374 N 
HETATM   10  H15 UNL     1      24.426   5.241  50.230  1.00  0.00     0.160 HD
BRANCH   9  11
HETATM   11  C15 UNL     1      25.614   3.834  49.533  1.00  0.00     0.096 A 
HETATM   12  C16 UNL     1      26.117   5.540  48.968  1.00  0.00     0.072 A 
HETATM   13  C17 UNL     1      28.127   5.024  48.576  1.00  0.00     0.050 A 
HETATM   14  C19 UNL     1      26.508   4.228  49.200  1.00  0.00    -0.035 A 
HETATM   15  C18 UNL     1      27.193   4.551  48.940  1.00  0.00    -0.063 A 
ENDBRANCH   9  11
ENDBRANCH   8   9
BRANCH   1  16
HETATM   16  C3  UNL     1      22.733   2.061  51.319  1.00  0.00     0.020 C 
BRANCH  16  17
HETATM   17  C2  UNL     1      21.561   2.490  51.784  1.00  0.00    -0.005 C 
HETATM   18  C1  UNL     1      20.397   3.257  52.223  1.00  0.00     0.038 C 
ENDBRANCH  16  17
BRANCH  16  19
HETATM   19  N1  UNL     1      23.858   1.553  52.038  1.00  0.00    -0.319 N 
HETATM   20  C4  UNL     1      24.700   2.108  53.023  1.00  0.00     0.300 C 
HETATM   21  O1  UNL     1      24.500   3.282  53.413  1.00  0.00    -0.258 OA
HETATM   22  H5  UNL     1      24.163   0.602  51.860  1.00  0.00     0.169 HD
BRANCH  20  23
HETATM   23  C5  UNL     1      25.797   1.451  53.646  1.00  0.00    -0.003 C 
HETATM   24  C6  UNL     1      26.723   0.875  54.166  1.00  0.00    -0.070 C 
BRANCH  24  25
HETATM   25  C7  UNL     1      27.843   0.174  54.778  1.00  0.00     0.261 C 
BRANCH  25  26
HETATM   26  O2  UNL     1      28.263  -0.909  54.006  1.00  0.00    -0.384 OA
HETATM   27  C8  UNL     1      29.599  -0.732  53.684  1.00  0.00     0.202 C 
ENDBRANCH  25  26
ENDBRANCH  24  25
ENDBRANCH  20  23
ENDBRANCH  16  19
ENDBRANCH   1  16
TORSDOF 9
ENDMDL
MODEL 5
REMARK VINA RESULT:      -6.8      3.844      7.684
REMARK  9 active torsions:
REMARK  status: ('A' for Active; 'I' for Inactive)
REMARK    1  A    between atoms: C2_2  and  C3_3 
REMARK    2  A    between atoms: C3_3  and  N1_4 
REMARK    3  A    between atoms: C3_3  and  C9_12 
REMARK       I    between atoms: N1_4  and  C4_5 
REMARK    4  A    between atoms: C4_5  and  C5_7 
REMARK    5  A    between atoms: C6_8  and  C7_9 
REMARK    6  A    between atoms: C7_9  and  O2_10 
REMARK    7  A    between atoms: C14_19  and  N4_20 
REMARK    8  A    between atoms: N4_20  and  C15_21 
REMARK    9  A    between atoms: C18_24  and  C19_25 
ROOT
HETATM    1  C9  UNL     1      23.874   1.935  51.241  1.00  0.00     0.106 A 
HETATM    2  C10 UNL     1      24.676   2.594  50.202  1.00  0.00     0.165 A 
HETATM    3  N2  UNL     1      26.032   2.807  50.539  1.00  0.00    -0.299 NA
HETATM    4  C11 UNL     1      26.582   2.450  51.612  1.00  0.00     0.135 A 
HETATM    5  C12 UNL     1      25.898   1.760  52.692  1.00  0.00     0.084 A 
HETATM    6  C13 UNL     1      26.654   1.403  53.853  1.00  0.00     0.103 C 
HETATM    7  N3  UNL     1      27.245   1.107  54.792  1.00  0.00    -0.191 NA
HETATM    8  C14 UNL     1      24.618   1.543  52.451  1.00  0.00     0.040 A 
ENDROOT
BRANCH   8   9
HETATM    9  N4  UNL     1      24.070   0.846  53.599  1.00  0.00    -0.374 N 
HETATM   10  H15 UNL     1      23.949   0.921  54.654  1.00  0.00     0.160 HD
BRANCH   9  11
HETATM   11  C15 UNL     1      23.449  -0.430  53.312  1.00  0.00     0.096 A 
HETATM   12  C16 UNL     1      22.094  -0.066  54.542  1.00  0.00     0.072 A 
HETATM   13  C17 UNL     1      21.068  -1.886  54.237  1.00  0.00     0.050 A 
HETATM   14  C19 UNL     1      22.620  -0.961  53.620  1.00  0.00    -0.035 A 
HETATM   15  C18 UNL     1      21.971  -1.359  53.871  1.00  0.00    -0.063 A 
ENDBRANCH   9  11
ENDBRANCH   8   9
BRANCH   1  16
HETATM   16  C3  UNL     1      22.711   2.829  51.609  1.00  0.00     0.020 C 
BRANCH  16  17
HETATM   17  C2  UNL     1      22.885   4.149  51.632  1.00  0.00    -0.005 C 
HETATM   18  C1  UNL     1      23.313   5.526  51.873  1.00  0.00     0.038 C 
ENDBRANCH  16  17
BRANCH  16  19
HETATM   19  N1  UNL     1      21.524   2.072  51.850  1.00  0.00    -0.319 N 
HETATM   20  C4  UNL     1      20.817   1.121  51.085  1.00  0.00     0.300 C 
HETATM   21  O1  UNL     1      21.238   0.811  49.947  1.00  0.00    -0.258 OA
HETATM   22  H5  UNL     1      21.044   2.185  52.737  1.00  0.00     0.169 HD
BRANCH  20  23
HETATM   23  C5  UNL     1      19.628   0.450  51.485  1.00  0.00    -0.003 C 
HETATM   24  C6  UNL     1      18.622  -0.114  51.843  1.00  0.00    -0.070 C 
BRANCH  24  25
HETATM   25  C7  UNL     1      17.406  -0.781  52.285  1.00  0.00     0.261 C 
BRANCH  25  26
HETATM   26  O2  UNL     1      17.496  -1.203  53.612  1.00  0.00    -0.384 OA
HETATM   27  C8  UNL     1      17.610  -2.584  53.631  1.00  0.00     0.202 C 
ENDBRANCH  25  26
ENDBRANCH  24  25
ENDBRANCH  20  23
ENDBRANCH  16  19
ENDBRANCH   1  16
TORSDOF 9
ENDMDL
MODEL 6
REMARK VINA RESULT:      -6.7      3.397      4.728
REMARK  9 active torsions:
REMARK  status: ('A' for Active; 'I' for Inactive)
REMARK    1  A    between atoms: C2_2  and  C3_3 
REMARK    2  A    between atoms: C3_3  and  N1_4 
REMARK    3  A    between atoms: C3_3  and  C9_12 
REMARK       I    between atoms: N1_4  and  C4_5 
REMARK    4  A    between atoms: C4_5  and  C5_7 
REMARK    5  A    between atoms: C6_8  and  C7_9 
REMARK    6  A    between atoms: C7_9  and  O2_10 
REMARK    7  A    between atoms: C14_19  and  N4_20 
REMARK    8  A    between atoms: N4_20  and  C15_21 
REMARK    9  A    between atoms: C18_24  and  C19_25 
ROOT
HETATM    1  C9  UNL     1      22.987   3.804  52.083  1.00  0.00     0.106 A 
HETATM    2  C10 UNL     1      22.384   5.131  51.906  1.00  0.00     0.165 A 
HETATM    3  N2  UNL     1      21.037   5.123  51.476  1.00  0.00    -0.299 NA
HETATM    4  C11 UNL     1      20.341   4.095  51.278  1.00  0.00     0.135 A 
HETATM    5  C12 UNL     1      20.819   2.734  51.457  1.00  0.00     0.084 A 
HETATM    6  C13 UNL     1      19.910   1.659  51.207  1.00  0.00     0.103 C 
HETATM    7  N3  UNL     1      19.194   0.782  51.011  1.00  0.00    -0.191 NA
HETATM    8  C14 UNL     1      22.080   2.668  51.843  1.00  0.00     0.040 A 
ENDROOT
BRANCH   8   9
HETATM    9  N4  UNL     1      22.417   1.264  51.989  1.00  0.00    -0.374 N 
HETATM   10  H15 UNL     1      22.564   0.369  51.431  1.00  0.00     0.160 HD
BRANCH   9  11
HETATM   11  C15 UNL     1      22.645   0.818  53.347  1.00  0.00     0.096 A 
HETATM   12  C16 UNL     1      21.906  -0.848  52.942  1.00  0.00     0.072 A 
HETATM   13  C17 UNL     1      22.171  -1.647  54.878  1.00  0.00     0.050 A 
HETATM   14  C19 UNL     1      22.489  -0.036  53.905  1.00  0.00    -0.035 A 
HETATM   15  C18 UNL     1      22.361  -0.707  54.324  1.00  0.00    -0.063 A 
ENDBRANCH   9  11
ENDBRANCH   8   9
BRANCH   1  16
HETATM   16  C3  UNL     1      24.209   3.694  51.199  1.00  0.00     0.020 C 
BRANCH  16  17
HETATM   17  C2  UNL     1      24.119   4.044  49.917  1.00  0.00    -0.005 C 
HETATM   18  C1  UNL     1      23.698   4.442  48.575  1.00  0.00     0.038 C 
ENDBRANCH  16  17
BRANCH  16  19
HETATM   19  N1  UNL     1      25.348   3.241  51.932  1.00  0.00    -0.319 N 
HETATM   20  C4  UNL     1      25.947   1.975  52.093  1.00  0.00     0.300 C 
HETATM   21  O1  UNL     1      25.451   0.981  51.513  1.00  0.00    -0.258 OA
HETATM   22  H5  UNL     1      25.889   3.917  52.461  1.00  0.00     0.169 HD
BRANCH  20  23
HETATM   23  C5  UNL     1      27.102   1.694  52.876  1.00  0.00    -0.003 C 
HETATM   24  C6  UNL     1      28.081   1.436  53.534  1.00  0.00    -0.070 C 
BRANCH  24  25
HETATM   25  C7  UNL     1      29.268   1.117  54.314  1.00  0.00     0.261 C 
BRANCH  25  26
HETATM   26  O2  UNL     1      30.078   0.182  53.670  1.00  0.00    -0.384 OA
HETATM   27  C8  UNL     1      29.410  -1.031  53.631  1.00  0.00     0.202 C 
ENDBRANCH  25  26
ENDBRANCH  24  25
ENDBRANCH  20  23
ENDBRANCH  16  19
ENDBRANCH   1  16
TORSDOF 9
ENDMDL
MODEL 7
REMARK VINA RESULT:      -6.7      2.756      5.373
REMARK  9 active torsions:
REMARK  status: ('A' for Active; 'I' for Inactive)
REMARK    1  A    between atoms: C2_2  and  C3_3 
REMARK    2  A    between atoms: C3_3  and  N1_4 
REMARK    3  A    between atoms: C3_3  and  C9_12 
REMARK       I    between atoms: N1_4  and  C4_5 
REMARK    4  A    between atoms: C4_5  and  C5_7 
REMARK    5  A    between atoms: C6_8  and  C7_9 
REMARK    6  A    between atoms: C7_9  and  O2_10 
REMARK    7  A    between atoms: C14_19  and  N4_20 
REMARK    8  A    between atoms: N4_20  and  C15_21 
REMARK    9  A    between atoms: C18_24  and  C19_25 
ROOT
HETATM    1  C9  UNL     1      23.963   5.620  51.284  1.00  0.00     0.106 A 
HETATM    2  C10 UNL     1      24.100   7.080  51.198  1.00  0.00     0.165 A 
HETATM    3  N2  UNL     1      23.015   7.747  50.582  1.00  0.00    -0.299 NA
HETATM    4  C11 UNL     1      21.969   7.197  50.155  1.00  0.00     0.135 A 
HETATM    5  C12 UNL     1      21.708   5.769  50.221  1.00  0.00     0.084 A 
HETATM    6  C13 UNL     1      20.466   5.284  49.705  1.00  0.00     0.103 C 
HETATM    7  N3  UNL     1      19.473   4.875  49.297  1.00  0.00    -0.191 NA
HETATM    8  C14 UNL     1      22.691   5.081  50.770  1.00  0.00     0.040 A 
ENDROOT
BRANCH   8   9
HETATM    9  N4  UNL     1      22.294   3.685  50.778  1.00  0.00    -0.374 N 
HETATM   10  H15 UNL     1      21.933   2.907  50.148  1.00  0.00     0.160 HD
BRANCH   9  11
HETATM   11  C15 UNL     1      22.372   3.024  52.063  1.00  0.00     0.096 A 
HETATM   12  C16 UNL     1      22.881   1.432  51.234  1.00  0.00     0.072 A 
HETATM   13  C17 UNL     1      23.041   0.328  53.026  1.00  0.00     0.050 A 
HETATM   14  C19 UNL     1      22.603   2.086  52.426  1.00  0.00    -0.035 A 
HETATM   15  C18 UNL     1      22.785   1.352  52.690  1.00  0.00    -0.063 A 
ENDBRANCH   9  11
ENDBRANCH   8   9
BRANCH   1  16
HETATM   16  C3  UNL     1      25.131   4.972  50.575  1.00  0.00     0.020 C 
BRANCH  16  17
HETATM   17  C2  UNL     1      25.676   5.582  49.525  1.00  0.00    -0.005 C 
HETATM   18  C1  UNL     1      26.557   6.159  48.511  1.00  0.00     0.038 C 
ENDBRANCH  16  17
BRANCH  16  19
HETATM   19  N1  UNL     1      25.514   3.749  51.208  1.00  0.00    -0.319 N 
HETATM   20  C4  UNL     1      26.342   2.679  50.810  1.00  0.00     0.300 C 
HETATM   21  O1  UNL     1      26.899   2.716  49.689  1.00  0.00    -0.258 OA
HETATM   22  H5  UNL     1      25.164   3.550  52.139  1.00  0.00     0.169 HD
BRANCH  20  23
HETATM   23  C5  UNL     1      26.621   1.514  51.578  1.00  0.00    -0.003 C 
HETATM   24  C6  UNL     1      26.847   0.533  52.245  1.00  0.00    -0.070 C 
BRANCH  24  25
HETATM   25  C7  UNL     1      27.103  -0.651  53.053  1.00  0.00     0.261 C 
BRANCH  25  26
HETATM   26  O2  UNL     1      27.132  -0.354  54.416  1.00  0.00    -0.384 OA
HETATM   27  C8  UNL     1      28.391   0.127  54.738  1.00  0.00     0.202 C 
ENDBRANCH  25  26
ENDBRANCH  24  25
ENDBRANCH  20  23
ENDBRANCH  16  19
ENDBRANCH   1  16
TORSDOF 9
ENDMDL
MODEL 8
REMARK VINA RESULT:      -6.6      2.692      5.208
REMARK  9 active torsions:
REMARK  status: ('A' for Active; 'I' for Inactive)
REMARK    1  A    between atoms: C2_2  and  C3_3 
REMARK    2  A    between atoms: C3_3  and  N1_4 
REMARK    3  A    between atoms: C3_3  and  C9_12 
REMARK       I    between atoms: N1_4  and  C4_5 
REMARK    4  A    between atoms: C4_5  and  C5_7 
REMARK    5  A    between atoms: C6_8  and  C7_9 
REMARK    6  A    between atoms: C7_9  and  O2_10 
REMARK    7  A    between atoms: C14_19  and  N4_20 
REMARK    8  A    between atoms: N4_20  and  C15_21 
REMARK    9  A    between atoms: C18_24  and  C19_25 
ROOT
HETATM    1  C9  UNL     1      26.093   0.822  51.941  1.00  0.00     0.106 A 
HETATM    2  C10 UNL     1      27.074  -0.201  52.327  1.00  0.00     0.165 A 
HETATM    3  N2  UNL     1      26.612  -1.148  53.268  1.00  0.00    -0.299 NA
HETATM    4  C11 UNL     1      25.451  -1.192  53.750  1.00  0.00     0.135 A 
HETATM    5  C12 UNL     1      24.390  -0.258  53.414  1.00  0.00     0.084 A 
HETATM    6  C13 UNL     1      23.112  -0.437  54.030  1.00  0.00     0.103 C 
HETATM    7  N3  UNL     1      22.078  -0.565  54.515  1.00  0.00    -0.191 NA
HETATM    8  C14 UNL     1      24.759   0.668  52.549  1.00  0.00     0.040 A 
ENDROOT
BRANCH   8   9
HETATM    9  N4  UNL     1      23.609   1.517  52.302  1.00  0.00    -0.374 N 
HETATM   10  H15 UNL     1      22.862   2.093  52.797  1.00  0.00     0.160 HD
BRANCH   9  11
HETATM   11  C15 UNL     1      23.261   1.702  50.909  1.00  0.00     0.096 A 
HETATM   12  C16 UNL     1      21.580   0.952  51.210  1.00  0.00     0.072 A 
HETATM   13  C17 UNL     1      20.922   1.154  49.215  1.00  0.00     0.050 A 
HETATM   14  C19 UNL     1      22.453   1.520  50.294  1.00  0.00    -0.035 A 
HETATM   15  C18 UNL     1      21.817   1.371  49.831  1.00  0.00    -0.063 A 
ENDBRANCH   9  11
ENDBRANCH   8   9
BRANCH   1  16
HETATM   16  C3  UNL     1      26.656   2.190  52.253  1.00  0.00     0.020 C 
BRANCH  16  17
HETATM   17  C2  UNL     1      27.626   2.304  53.158  1.00  0.00    -0.005 C 
HETATM   18  C1  UNL     1      28.877   2.295  53.916  1.00  0.00     0.038 C 
ENDBRANCH  16  17
BRANCH  16  19
HETATM   19  N1  UNL     1      26.047   3.203  51.450  1.00  0.00    -0.319 N 
HETATM   20  C4  UNL     1      26.202   3.582  50.101  1.00  0.00     0.300 C 
HETATM   21  O1  UNL     1      27.016   2.964  49.377  1.00  0.00    -0.258 OA
HETATM   22  H5  UNL     1      25.345   3.803  51.870  1.00  0.00     0.169 HD
BRANCH  20  23
HETATM   23  C5  UNL     1      25.504   4.636  49.448  1.00  0.00    -0.003 C 
HETATM   24  C6  UNL     1      24.893   5.521  48.898  1.00  0.00    -0.070 C 
BRANCH  24  25
HETATM   25  C7  UNL     1      24.146   6.588  48.248  1.00  0.00     0.261 C 
BRANCH  25  26
HETATM   26  O2  UNL     1      24.242   7.791  48.947  1.00  0.00    -0.384 OA
HETATM   27  C8  UNL     1      23.146   7.904  49.788  1.00  0.00     0.202 C 
ENDBRANCH  25  26
ENDBRANCH  24  25
ENDBRANCH  20  23
ENDBRANCH  16  19
ENDBRANCH   1  16
TORSDOF 9
ENDMDL
MODEL 9
REMARK VINA RESULT:      -6.5      2.676      4.214
REMARK  9 active torsions:
REMARK  status: ('A' for Active; 'I' for Inactive)
REMARK    1  A    between atoms: C2_2  and  C3_3 
REMARK    2  A    between atoms: C3_3  and  N1_4 
REMARK    3  A    between atoms: C3_3  and  C9_12 
REMARK       I    between atoms: N1_4  and  C4_5 
REMARK    4  A    between atoms: C4_5  and  C5_7 
REMARK    5  A    between atoms: C6_8  and  C7_9 
REMARK    6  A    between atoms: C7_9  and  O2_10 
REMARK    7  A    between atoms: C14_19  and  N4_20 
REMARK    8  A    between atoms: N4_20  and  C15_21 
REMARK    9  A    between atoms: C18_24  and  C19_25 
ROOT
HETATM    1  C9  UNL     1      24.522   2.312  51.342  1.00  0.00     0.106 A 
HETATM    2  C10 UNL     1      25.727   2.646  50.572  1.00  0.00     0.165 A 
HETATM    3  N2  UNL     1      26.946   2.250  51.168  1.00  0.00    -0.299 NA
HETATM    4  C11 UNL     1      27.059   1.624  52.252  1.00  0.00     0.135 A 
HETATM    5  C12 UNL     1      25.938   1.209  53.079  1.00  0.00     0.084 A 
HETATM    6  C13 UNL     1      26.216   0.491  54.283  1.00  0.00     0.103 C 
HETATM    7  N3  UNL     1      26.419  -0.088  55.255  1.00  0.00    -0.191 NA
HETATM    8  C14 UNL     1      24.765   1.563  52.588  1.00  0.00     0.040 A 
ENDROOT
BRANCH   8   9
HETATM    9  N4  UNL     1      23.747   1.080  53.503  1.00  0.00    -0.374 N 
HETATM   10  H15 UNL     1      23.317   1.262  54.460  1.00  0.00     0.160 HD
BRANCH   9  11
HETATM   11  C15 UNL     1      22.995  -0.069  53.045  1.00  0.00     0.096 A 
HETATM   12  C16 UNL     1      21.856   0.069  54.517  1.00  0.00     0.072 A 
HETATM   13  C17 UNL     1      20.659  -1.587  53.985  1.00  0.00     0.050 A 
HETATM   14  C19 UNL     1      22.177  -0.617  53.354  1.00  0.00    -0.035 A 
HETATM   15  C18 UNL     1      21.541  -1.032  53.609  1.00  0.00    -0.063 A 
ENDBRANCH   9  11
ENDBRANCH   8   9
BRANCH   1  16
HETATM   16  C3  UNL     1      23.754   3.581  51.636  1.00  0.00     0.020 C 
BRANCH  16  17
HETATM   17  C2  UNL     1      22.511   3.497  52.106  1.00  0.00    -0.005 C 
HETATM   18  C1  UNL     1      21.084   3.269  52.329  1.00  0.00     0.038 C 
ENDBRANCH  16  17
BRANCH  16  19
HETATM   19  N1  UNL     1      24.547   4.743  51.384  1.00  0.00    -0.319 N 
HETATM   20  C4  UNL     1      24.410   5.825  50.491  1.00  0.00     0.300 C 
HETATM   21  O1  UNL     1      23.424   5.866  49.719  1.00  0.00    -0.258 OA
HETATM   22  H5  UNL     1      25.390   4.887  51.930  1.00  0.00     0.169 HD
BRANCH  20  23
HETATM   23  C5  UNL     1      25.310   6.921  50.367  1.00  0.00    -0.003 C 
HETATM   24  C6  UNL     1      26.083   7.844  50.280  1.00  0.00    -0.070 C 
BRANCH  24  25
HETATM   25  C7  UNL     1      27.027   8.947  50.178  1.00  0.00     0.261 C 
BRANCH  25  26
HETATM   26  O2  UNL     1      28.071   8.660  49.298  1.00  0.00    -0.384 OA
HETATM   27  C8  UNL     1      29.022   9.662  49.396  1.00  0.00     0.202 C 
ENDBRANCH  25  26
ENDBRANCH  24  25
ENDBRANCH  20  23
ENDBRANCH  16  19
ENDBRANCH   1  16
TORSDOF 9
ENDMDL
