MODEL 1
REMARK VINA RESULT:      -7.7      0.000      0.000
REMARK  0 active torsions:
REMARK  status: ('A' for Active; 'I' for Inactive)
ROOT
HETATM    1  O1  UNL     1      34.706   8.077  46.542  1.00  0.00    -0.293 OA
HETATM    2  C1  UNL     1      34.264   8.480  47.623  1.00  0.00     0.186 C 
HETATM    3  C2  UNL     1      34.286   9.819  46.922  1.00  0.00     0.255 C 
HETATM    4  O2  UNL     1      34.657   9.585  45.547  1.00  0.00    -0.356 OA
HETATM    5  C3  UNL     1      33.662   9.124  44.699  1.00  0.00     0.137 C 
HETATM    6  C4  UNL     1      32.454   8.743  45.149  1.00  0.00     0.053 C 
HETATM    7  C5  UNL     1      31.148   8.221  44.757  1.00  0.00     0.033 C 
HETATM    8  C6  UNL     1      29.975   7.855  45.220  1.00  0.00     0.027 C 
HETATM    9  C7  UNL     1      29.303   7.780  46.527  1.00  0.00     0.002 C 
HETATM   10  C8  UNL     1      30.127   8.215  47.514  1.00  0.00     0.125 C 
HETATM   11  N1  UNL     1      30.017   8.371  48.961  1.00  0.00    -0.412 N 
HETATM   12  C9  UNL     1      31.269   8.173  49.683  1.00  0.00     0.116 C 
HETATM   13  C10 UNL     1      31.750   6.794  49.793  1.00  0.00     0.049 C 
HETATM   14  C11 UNL     1      32.139   5.979  48.648  1.00  0.00     0.276 C 
HETATM   15  N2  UNL     1      33.236   6.321  47.837  1.00  0.00     0.111 NA
HETATM   16  C12 UNL     1      34.173   7.224  48.482  1.00  0.00     0.318 C 
HETATM   17  C13 UNL     1      35.575   6.660  48.512  1.00  0.00     0.211 C 
HETATM   18  O3  UNL     1      35.650   5.364  48.918  1.00  0.00    -0.386 OA
HETATM   19  C14 UNL     1      34.707   4.498  48.380  1.00  0.00     0.205 C 
HETATM   20  C15 UNL     1      33.982   5.236  47.308  1.00  0.00     0.269 C 
HETATM   21  C16 UNL     1      33.285   4.350  46.319  1.00  0.00     0.140 C 
HETATM   22 CL1  UNL     1      31.775   3.644  46.851  1.00  0.00    -0.118 Cl
HETATM   23  C17 UNL     1      33.239   4.994  44.990  1.00  0.00    -0.005 C 
HETATM   24  C18 UNL     1      33.300   5.446  43.760  1.00  0.00    -0.001 C 
HETATM   25  C19 UNL     1      33.029   6.317  42.638  1.00  0.00     0.017 C 
HETATM   26  C20 UNL     1      32.302   7.370  42.550  1.00  0.00     0.088 C 
HETATM   27  N3  UNL     1      31.474   8.167  43.374  1.00  0.00    -0.366 N 
HETATM   28  H8  UNL     1      29.393   8.560  49.809  1.00  0.00     0.153 HD
HETATM   29  H26 UNL     1      30.924   8.965  42.997  1.00  0.00     0.165 HD
ENDROOT
TORSDOF 0
ENDMDL
MODEL 2
REMARK VINA RESULT:      -7.5      2.733      4.934
REMARK  0 active torsions:
REMARK  status: ('A' for Active; 'I' for Inactive)
ROOT
HETATM    1  O1  UNL     1      29.998   8.014  44.816  1.00  0.00    -0.293 OA
HETATM    2  C1  UNL     1      30.635   9.057  44.635  1.00  0.00     0.186 C 
HETATM    3  C2  UNL     1      29.262   9.634  44.379  1.00  0.00     0.255 C 
HETATM    4  O2  UNL     1      28.296   8.601  44.667  1.00  0.00    -0.356 OA
HETATM    5  C3  UNL     1      27.988   8.384  46.001  1.00  0.00     0.137 C 
HETATM    6  C4  UNL     1      28.669   8.972  46.999  1.00  0.00     0.053 C 
HETATM    7  C5  UNL     1      28.782   9.099  48.450  1.00  0.00     0.033 C 
HETATM    8  C6  UNL     1      29.461   9.687  49.408  1.00  0.00     0.027 C 
HETATM    9  C7  UNL     1      30.587  10.628  49.517  1.00  0.00     0.002 C 
HETATM   10  C8  UNL     1      31.033  10.984  48.285  1.00  0.00     0.125 C 
HETATM   11  N1  UNL     1      32.083  11.860  47.778  1.00  0.00    -0.412 N 
HETATM   12  C9  UNL     1      32.676  11.422  46.518  1.00  0.00     0.116 C 
HETATM   13  C10 UNL     1      33.570  10.264  46.585  1.00  0.00     0.049 C 
HETATM   14  C11 UNL     1      33.139   8.931  46.989  1.00  0.00     0.276 C 
HETATM   15  N2  UNL     1      32.206   8.196  46.233  1.00  0.00     0.111 NA
HETATM   16  C12 UNL     1      32.088   8.652  44.859  1.00  0.00     0.318 C 
HETATM   17  C13 UNL     1      32.348   7.540  43.869  1.00  0.00     0.211 C 
HETATM   18  O3  UNL     1      33.456   6.798  44.137  1.00  0.00    -0.386 OA
HETATM   19  C14 UNL     1      33.636   6.424  45.463  1.00  0.00     0.205 C 
HETATM   20  C15 UNL     1      32.397   6.791  46.204  1.00  0.00     0.269 C 
HETATM   21  C16 UNL     1      32.217   6.053  47.497  1.00  0.00     0.140 C 
HETATM   22 CL1  UNL     1      33.185   6.613  48.842  1.00  0.00    -0.118 Cl
HETATM   23  C17 UNL     1      30.780   5.873  47.793  1.00  0.00    -0.005 C 
HETATM   24  C18 UNL     1      29.532   5.552  48.033  1.00  0.00    -0.001 C 
HETATM   25  C19 UNL     1      28.136   5.749  48.359  1.00  0.00     0.017 C 
HETATM   26  C20 UNL     1      27.478   6.820  48.615  1.00  0.00     0.088 C 
HETATM   27  N3  UNL     1      27.702   8.213  48.712  1.00  0.00    -0.366 N 
HETATM   28  H8  UNL     1      32.683  12.735  47.920  1.00  0.00     0.153 HD
HETATM   29  H26 UNL     1      26.959   8.871  49.022  1.00  0.00     0.165 HD
ENDROOT
TORSDOF 0
ENDMDL
MODEL 3
REMARK VINA RESULT:      -6.9      9.320     11.969
REMARK  0 active torsions:
REMARK  status: ('A' for Active; 'I' for Inactive)
ROOT
HETATM    1  O1  UNL     1      22.451   4.689  52.227  1.00  0.00    -0.293 OA
HETATM    2  C1  UNL     1      22.899   5.661  51.611  1.00  0.00     0.186 C 
HETATM    3  C2  UNL     1      23.701   5.861  52.877  1.00  0.00     0.255 C 
HETATM    4  O2  UNL     1      23.441   4.733  53.739  1.00  0.00    -0.356 OA
HETATM    5  C3  UNL     1      24.122   3.558  53.457  1.00  0.00     0.137 C 
HETATM    6  C4  UNL     1      24.857   3.404  52.343  1.00  0.00     0.053 C 
HETATM    7  C5  UNL     1      25.704   2.480  51.594  1.00  0.00     0.033 C 
HETATM    8  C6  UNL     1      26.417   2.353  50.498  1.00  0.00     0.027 C 
HETATM    9  C7  UNL     1      26.767   3.180  49.332  1.00  0.00     0.002 C 
HETATM   10  C8  UNL     1      26.195   4.408  49.429  1.00  0.00     0.125 C 
HETATM   11  N1  UNL     1      26.186   5.613  48.606  1.00  0.00    -0.412 N 
HETATM   12  C9  UNL     1      24.949   6.383  48.681  1.00  0.00     0.116 C 
HETATM   13  C10 UNL     1      23.784   5.816  47.997  1.00  0.00     0.049 C 
HETATM   14  C11 UNL     1      23.164   4.550  48.368  1.00  0.00     0.276 C 
HETATM   15  N2  UNL     1      22.545   4.370  49.618  1.00  0.00     0.111 NA
HETATM   16  C12 UNL     1      22.179   5.617  50.268  1.00  0.00     0.318 C 
HETATM   17  C13 UNL     1      20.706   5.670  50.604  1.00  0.00     0.211 C 
HETATM   18  O3  UNL     1      19.886   5.285  49.590  1.00  0.00    -0.386 OA
HETATM   19  C14 UNL     1      20.263   4.143  48.897  1.00  0.00     0.205 C 
HETATM   20  C15 UNL     1      21.403   3.528  49.633  1.00  0.00     0.269 C 
HETATM   21  C16 UNL     1      21.623   2.078  49.320  1.00  0.00     0.140 C 
HETATM   22 CL1  UNL     1      22.420   1.732  47.801  1.00  0.00    -0.118 Cl
HETATM   23  C17 UNL     1      22.182   1.375  50.493  1.00  0.00    -0.005 C 
HETATM   24  C18 UNL     1      22.535   0.670  51.541  1.00  0.00    -0.001 C 
HETATM   25  C19 UNL     1      23.378   0.201  52.619  1.00  0.00     0.017 C 
HETATM   26  C20 UNL     1      24.566   0.541  52.963  1.00  0.00     0.088 C 
HETATM   27  N3  UNL     1      25.582   1.435  52.551  1.00  0.00    -0.366 N 
HETATM   28  H8  UNL     1      26.698   6.236  47.903  1.00  0.00     0.153 HD
HETATM   29  H26 UNL     1      26.521   1.447  52.997  1.00  0.00     0.165 HD
ENDROOT
TORSDOF 0
ENDMDL
MODEL 4
REMARK VINA RESULT:      -6.8     10.517     12.944
REMARK  0 active torsions:
REMARK  status: ('A' for Active; 'I' for Inactive)
ROOT
HETATM    1  O1  UNL     1      22.912   2.960  48.636  1.00  0.00    -0.293 OA
HETATM    2  C1  UNL     1      22.250   3.868  48.124  1.00  0.00     0.186 C 
HETATM    3  C2  UNL     1      21.647   2.732  47.330  1.00  0.00     0.255 C 
HETATM    4  O2  UNL     1      22.185   1.500  47.855  1.00  0.00    -0.356 OA
HETATM    5  C3  UNL     1      21.622   1.019  49.026  1.00  0.00     0.137 C 
HETATM    6  C4  UNL     1      20.740   1.734  49.745  1.00  0.00     0.053 C 
HETATM    7  C5  UNL     1      19.906   1.736  50.944  1.00  0.00     0.033 C 
HETATM    8  C6  UNL     1      19.044   2.453  51.629  1.00  0.00     0.027 C 
HETATM    9  C7  UNL     1      18.407   3.775  51.520  1.00  0.00     0.002 C 
HETATM   10  C8  UNL     1      18.827   4.417  50.400  1.00  0.00     0.125 C 
HETATM   11  N1  UNL     1      18.547   5.708  49.781  1.00  0.00    -0.412 N 
HETATM   12  C9  UNL     1      19.672   6.279  49.048  1.00  0.00     0.116 C 
HETATM   13  C10 UNL     1      20.772   6.817  49.853  1.00  0.00     0.049 C 
HETATM   14  C11 UNL     1      21.599   6.007  50.737  1.00  0.00     0.276 C 
HETATM   15  N2  UNL     1      22.433   4.988  50.240  1.00  0.00     0.111 NA
HETATM   16  C12 UNL     1      22.739   5.129  48.827  1.00  0.00     0.318 C 
HETATM   17  C13 UNL     1      24.228   5.175  48.572  1.00  0.00     0.211 C 
HETATM   18  O3  UNL     1      24.914   6.010  49.397  1.00  0.00    -0.386 OA
HETATM   19  C14 UNL     1      24.576   5.955  50.743  1.00  0.00     0.205 C 
HETATM   20  C15 UNL     1      23.659   4.795  50.927  1.00  0.00     0.269 C 
HETATM   21  C16 UNL     1      23.577   4.299  52.340  1.00  0.00     0.140 C 
HETATM   22 CL1  UNL     1      22.591   5.248  53.431  1.00  0.00    -0.118 Cl
HETATM   23  C17 UNL     1      23.311   2.845  52.362  1.00  0.00    -0.005 C 
HETATM   24  C18 UNL     1      23.227   1.539  52.446  1.00  0.00    -0.001 C 
HETATM   25  C19 UNL     1      22.638   0.224  52.323  1.00  0.00     0.017 C 
HETATM   26  C20 UNL     1      21.489  -0.143  51.886  1.00  0.00     0.088 C 
HETATM   27  N3  UNL     1      20.315   0.437  51.353  1.00  0.00    -0.366 N 
HETATM   28  H8  UNL     1      17.852   6.505  49.616  1.00  0.00     0.153 HD
HETATM   29  H26 UNL     1      19.468  -0.127  51.140  1.00  0.00     0.165 HD
ENDROOT
TORSDOF 0
ENDMDL
MODEL 5
REMARK VINA RESULT:      -6.8      4.654      6.814
REMARK  0 active torsions:
REMARK  status: ('A' for Active; 'I' for Inactive)
ROOT
HETATM    1  O1  UNL     1      26.998  10.807  45.768  1.00  0.00    -0.293 OA
HETATM    2  C1  UNL     1      26.306  10.213  46.600  1.00  0.00     0.186 C 
HETATM    3  C2  UNL     1      25.886   9.399  45.397  1.00  0.00     0.255 C 
HETATM    4  O2  UNL     1      26.686   9.833  44.278  1.00  0.00    -0.356 OA
HETATM    5  C3  UNL     1      27.977   9.336  44.199  1.00  0.00     0.137 C 
HETATM    6  C4  UNL     1      28.534   8.624  45.194  1.00  0.00     0.053 C 
HETATM    7  C5  UNL     1      29.739   7.921  45.625  1.00  0.00     0.033 C 
HETATM    8  C6  UNL     1      30.261   7.227  46.611  1.00  0.00     0.027 C 
HETATM    9  C7  UNL     1      29.844   6.748  47.937  1.00  0.00     0.002 C 
HETATM   10  C8  UNL     1      28.567   7.128  48.203  1.00  0.00     0.125 C 
HETATM   11  N1  UNL     1      27.644   6.948  49.318  1.00  0.00    -0.412 N 
HETATM   12  C9  UNL     1      26.714   8.055  49.513  1.00  0.00     0.116 C 
HETATM   13  C10 UNL     1      27.272   9.287  50.076  1.00  0.00     0.049 C 
HETATM   14  C11 UNL     1      28.286  10.094  49.409  1.00  0.00     0.276 C 
HETATM   15  N2  UNL     1      28.027  10.743  48.187  1.00  0.00     0.111 NA
HETATM   16  C12 UNL     1      26.612  10.920  47.915  1.00  0.00     0.318 C 
HETATM   17  C13 UNL     1      26.257  12.371  47.678  1.00  0.00     0.211 C 
HETATM   18  O3  UNL     1      26.782  13.233  48.590  1.00  0.00    -0.386 OA
HETATM   19  C14 UNL     1      28.113  13.027  48.931  1.00  0.00     0.205 C 
HETATM   20  C15 UNL     1      28.660  11.999  48.002  1.00  0.00     0.269 C 
HETATM   21  C16 UNL     1      30.156  11.999  47.903  1.00  0.00     0.140 C 
HETATM   22 CL1  UNL     1      31.014  11.252  49.232  1.00  0.00    -0.118 Cl
HETATM   23  C17 UNL     1      30.585  11.561  46.558  1.00  0.00    -0.005 C 
HETATM   24  C18 UNL     1      31.021  11.327  45.344  1.00  0.00    -0.001 C 
HETATM   25  C19 UNL     1      31.293  10.573  44.140  1.00  0.00     0.017 C 
HETATM   26  C20 UNL     1      31.046   9.350  43.843  1.00  0.00     0.088 C 
HETATM   27  N3  UNL     1      30.454   8.208  44.430  1.00  0.00    -0.366 N 
HETATM   28  H8  UNL     1      27.317   6.342  50.138  1.00  0.00     0.153 HD
HETATM   29  H26 UNL     1      30.456   7.281  43.958  1.00  0.00     0.165 HD
ENDROOT
TORSDOF 0
ENDMDL
MODEL 6
REMARK VINA RESULT:      -6.8      2.940      5.485
REMARK  0 active torsions:
REMARK  status: ('A' for Active; 'I' for Inactive)
ROOT
HETATM    1  O1  UNL     1      30.680  11.240  47.285  1.00  0.00    -0.293 OA
HETATM    2  C1  UNL     1      31.868  11.358  47.601  1.00  0.00     0.186 C 
HETATM    3  C2  UNL     1      31.285  11.645  48.966  1.00  0.00     0.255 C 
HETATM    4  O2  UNL     1      29.860  11.432  48.884  1.00  0.00    -0.356 OA
HETATM    5  C3  UNL     1      29.418  10.120  48.939  1.00  0.00     0.137 C 
HETATM    6  C4  UNL     1      30.263   9.075  48.895  1.00  0.00     0.053 C 
HETATM    7  C5  UNL     1      30.355   7.618  48.909  1.00  0.00     0.033 C 
HETATM    8  C6  UNL     1      31.200   6.613  48.866  1.00  0.00     0.027 C 
HETATM    9  C7  UNL     1      32.657   6.427  48.771  1.00  0.00     0.002 C 
HETATM   10  C8  UNL     1      33.289   7.628  48.722  1.00  0.00     0.125 C 
HETATM   11  N1  UNL     1      34.680   8.062  48.633  1.00  0.00    -0.412 N 
HETATM   12  C9  UNL     1      34.873   9.313  47.908  1.00  0.00     0.116 C 
HETATM   13  C10 UNL     1      34.719   9.255  46.452  1.00  0.00     0.049 C 
HETATM   14  C11 UNL     1      33.468   8.917  45.783  1.00  0.00     0.276 C 
HETATM   15  N2  UNL     1      32.328   9.734  45.894  1.00  0.00     0.111 NA
HETATM   16  C12 UNL     1      32.629  11.094  46.307  1.00  0.00     0.318 C 
HETATM   17  C13 UNL     1      32.104  12.114  45.322  1.00  0.00     0.211 C 
HETATM   18  O3  UNL     1      32.380  11.831  44.020  1.00  0.00    -0.386 OA
HETATM   19  C14 UNL     1      32.183  10.514  43.625  1.00  0.00     0.205 C 
HETATM   20  C15 UNL     1      31.500   9.807  44.745  1.00  0.00     0.269 C 
HETATM   21  C16 UNL     1      30.793   8.550  44.334  1.00  0.00     0.140 C 
HETATM   22 CL1  UNL     1      31.808   7.149  44.072  1.00  0.00    -0.118 Cl
HETATM   23  C17 UNL     1      29.614   8.316  45.194  1.00  0.00    -0.005 C 
HETATM   24  C18 UNL     1      28.477   8.135  45.822  1.00  0.00    -0.001 C 
HETATM   25  C19 UNL     1      27.586   7.856  46.926  1.00  0.00     0.017 C 
HETATM   26  C20 UNL     1      27.834   7.586  48.156  1.00  0.00     0.088 C 
HETATM   27  N3  UNL     1      28.949   7.430  49.011  1.00  0.00    -0.366 N 
HETATM   28  H8  UNL     1      35.708   7.865  48.853  1.00  0.00     0.153 HD
HETATM   29  H26 UNL     1      28.849   7.124  49.999  1.00  0.00     0.165 HD
ENDROOT
TORSDOF 0
ENDMDL
MODEL 7
REMARK VINA RESULT:      -6.6      3.971      6.776
REMARK  0 active torsions:
REMARK  status: ('A' for Active; 'I' for Inactive)
ROOT
HETATM    1  O1  UNL     1      29.195  10.355  48.954  1.00  0.00    -0.293 OA
HETATM    2  C1  UNL     1      29.598  11.328  48.310  1.00  0.00     0.186 C 
HETATM    3  C2  UNL     1      30.883  11.061  49.060  1.00  0.00     0.255 C 
HETATM    4  O2  UNL     1      30.700   9.844  49.815  1.00  0.00    -0.356 OA
HETATM    5  C3  UNL     1      30.823   8.651  49.120  1.00  0.00     0.137 C 
HETATM    6  C4  UNL     1      30.934   8.608  47.781  1.00  0.00     0.053 C 
HETATM    7  C5  UNL     1      31.072   7.725  46.626  1.00  0.00     0.033 C 
HETATM    8  C6  UNL     1      31.181   7.709  45.317  1.00  0.00     0.027 C 
HETATM    9  C7  UNL     1      31.223   8.690  44.222  1.00  0.00     0.002 C 
HETATM   10  C8  UNL     1      31.130   9.954  44.709  1.00  0.00     0.125 C 
HETATM   11  N1  UNL     1      31.122  11.291  44.125  1.00  0.00    -0.412 N 
HETATM   12  C9  UNL     1      30.317  12.263  44.857  1.00  0.00     0.116 C 
HETATM   13  C10 UNL     1      28.863  12.123  44.746  1.00  0.00     0.049 C 
HETATM   14  C11 UNL     1      28.122  10.963  45.226  1.00  0.00     0.276 C 
HETATM   15  N2  UNL     1      28.072  10.632  46.592  1.00  0.00     0.111 NA
HETATM   16  C12 UNL     1      28.397  11.744  47.469  1.00  0.00     0.318 C 
HETATM   17  C13 UNL     1      27.293  12.024  48.463  1.00  0.00     0.211 C 
HETATM   18  O3  UNL     1      26.046  12.061  47.921  1.00  0.00    -0.386 OA
HETATM   19  C14 UNL     1      25.743  11.056  47.012  1.00  0.00     0.205 C 
HETATM   20  C15 UNL     1      26.855  10.066  47.052  1.00  0.00     0.269 C 
HETATM   21  C16 UNL     1      26.490   8.713  46.517  1.00  0.00     0.140 C 
HETATM   22 CL1  UNL     1      26.426   8.568  44.775  1.00  0.00    -0.118 Cl
HETATM   23  C17 UNL     1      27.265   7.659  47.204  1.00  0.00    -0.005 C 
HETATM   24  C18 UNL     1      27.809   6.674  47.877  1.00  0.00    -0.001 C 
HETATM   25  C19 UNL     1      28.854   5.806  48.372  1.00  0.00     0.017 C 
HETATM   26  C20 UNL     1      30.118   5.804  48.150  1.00  0.00     0.088 C 
HETATM   27  N3  UNL     1      31.072   6.538  47.408  1.00  0.00    -0.366 N 
HETATM   28  H8  UNL     1      31.442  11.939  43.335  1.00  0.00     0.153 HD
HETATM   29  H26 UNL     1      32.070   6.252  47.357  1.00  0.00     0.165 HD
ENDROOT
TORSDOF 0
ENDMDL
MODEL 8
REMARK VINA RESULT:      -6.4      9.283     11.606
REMARK  0 active torsions:
REMARK  status: ('A' for Active; 'I' for Inactive)
ROOT
HETATM    1  O1  UNL     1      22.097   6.050  50.966  1.00  0.00    -0.293 OA
HETATM    2  C1  UNL     1      20.936   6.244  50.592  1.00  0.00     0.186 C 
HETATM    3  C2  UNL     1      21.320   7.697  50.757  1.00  0.00     0.255 C 
HETATM    4  O2  UNL     1      22.727   7.740  51.077  1.00  0.00    -0.356 OA
HETATM    5  C3  UNL     1      23.615   7.595  50.022  1.00  0.00     0.137 C 
HETATM    6  C4  UNL     1      23.211   7.257  48.786  1.00  0.00     0.053 C 
HETATM    7  C5  UNL     1      23.655   6.984  47.422  1.00  0.00     0.033 C 
HETATM    8  C6  UNL     1      23.236   6.654  46.221  1.00  0.00     0.027 C 
HETATM    9  C7  UNL     1      21.953   6.359  45.566  1.00  0.00     0.002 C 
HETATM   10  C8  UNL     1      20.929   6.465  46.451  1.00  0.00     0.125 C 
HETATM   11  N1  UNL     1      19.481   6.300  46.383  1.00  0.00    -0.412 N 
HETATM   12  C9  UNL     1      18.873   5.809  47.615  1.00  0.00     0.116 C 
HETATM   13  C10 UNL     1      19.095   4.396  47.934  1.00  0.00     0.049 C 
HETATM   14  C11 UNL     1      20.407   3.824  48.207  1.00  0.00     0.276 C 
HETATM   15  N2  UNL     1      21.167   4.218  49.324  1.00  0.00     0.111 NA
HETATM   16  C12 UNL     1      20.375   4.844  50.369  1.00  0.00     0.318 C 
HETATM   17  C13 UNL     1      20.531   4.138  51.697  1.00  0.00     0.211 C 
HETATM   18  O3  UNL     1      20.428   2.783  51.627  1.00  0.00    -0.386 OA
HETATM   19  C14 UNL     1      21.106   2.171  50.581  1.00  0.00     0.205 C 
HETATM   20  C15 UNL     1      21.955   3.207  49.930  1.00  0.00     0.269 C 
HETATM   21  C16 UNL     1      23.087   2.649  49.119  1.00  0.00     0.140 C 
HETATM   22 CL1  UNL     1      22.663   2.011  47.546  1.00  0.00    -0.118 Cl
HETATM   23  C17 UNL     1      24.236   3.579  49.127  1.00  0.00    -0.005 C 
HETATM   24  C18 UNL     1      25.335   4.288  49.221  1.00  0.00    -0.001 C 
HETATM   25  C19 UNL     1      26.222   5.415  49.035  1.00  0.00     0.017 C 
HETATM   26  C20 UNL     1      26.043   6.534  48.434  1.00  0.00     0.088 C 
HETATM   27  N3  UNL     1      25.028   7.209  47.717  1.00  0.00    -0.366 N 
HETATM   28  H8  UNL     1      18.586   6.359  45.798  1.00  0.00     0.153 HD
HETATM   29  H26 UNL     1      25.194   8.127  47.257  1.00  0.00     0.165 HD
ENDROOT
TORSDOF 0
ENDMDL
MODEL 9
REMARK VINA RESULT:      -6.4     23.382     25.961
REMARK  0 active torsions:
REMARK  status: ('A' for Active; 'I' for Inactive)
ROOT
HETATM    1  O1  UNL     1      40.044   0.099  68.147  1.00  0.00    -0.293 OA
HETATM    2  C1  UNL     1      39.387  -0.658  67.426  1.00  0.00     0.186 C 
HETATM    3  C2  UNL     1      40.518  -0.414  66.453  1.00  0.00     0.255 C 
HETATM    4  O2  UNL     1      41.518   0.369  67.137  1.00  0.00    -0.356 OA
HETATM    5  C3  UNL     1      42.367  -0.310  67.997  1.00  0.00     0.137 C 
HETATM    6  C4  UNL     1      42.174  -1.599  68.326  1.00  0.00     0.053 C 
HETATM    7  C5  UNL     1      42.691  -2.717  69.111  1.00  0.00     0.033 C 
HETATM    8  C6  UNL     1      42.483  -3.977  69.416  1.00  0.00     0.027 C 
HETATM    9  C7  UNL     1      41.508  -5.026  69.079  1.00  0.00     0.002 C 
HETATM   10  C8  UNL     1      40.577  -4.552  68.211  1.00  0.00     0.125 C 
HETATM   11  N1  UNL     1      39.407  -5.111  67.541  1.00  0.00    -0.412 N 
HETATM   12  C9  UNL     1      38.336  -4.149  67.302  1.00  0.00     0.116 C 
HETATM   13  C10 UNL     1      37.560  -3.731  68.472  1.00  0.00     0.049 C 
HETATM   14  C11 UNL     1      38.128  -3.005  69.602  1.00  0.00     0.276 C 
HETATM   15  N2  UNL     1      38.652  -1.707  69.457  1.00  0.00     0.111 NA
HETATM   16  C12 UNL     1      38.171  -1.018  68.272  1.00  0.00     0.318 C 
HETATM   17  C13 UNL     1      37.517   0.303  68.611  1.00  0.00     0.211 C 
HETATM   18  O3  UNL     1      36.633   0.243  69.642  1.00  0.00    -0.386 OA
HETATM   19  C14 UNL     1      37.037  -0.486  70.753  1.00  0.00     0.205 C 
HETATM   20  C15 UNL     1      38.472  -0.835  70.562  1.00  0.00     0.269 C 
HETATM   21  C16 UNL     1      39.190  -1.189  71.831  1.00  0.00     0.140 C 
HETATM   22 CL1  UNL     1      38.886  -2.791  72.464  1.00  0.00    -0.118 Cl
HETATM   23  C17 UNL     1      40.616  -0.813  71.739  1.00  0.00    -0.005 C 
HETATM   24  C18 UNL     1      41.849  -0.368  71.774  1.00  0.00    -0.001 C 
HETATM   25  C19 UNL     1      43.249  -0.271  71.425  1.00  0.00     0.017 C 
HETATM   26  C20 UNL     1      43.950  -0.930  70.576  1.00  0.00     0.088 C 
HETATM   27  N3  UNL     1      43.783  -1.974  69.636  1.00  0.00    -0.366 N 
HETATM   28  H8  UNL     1      38.922  -5.970  67.127  1.00  0.00     0.153 HD
HETATM   29  H26 UNL     1      44.584  -2.375  69.110  1.00  0.00     0.165 HD
ENDROOT
TORSDOF 0
ENDMDL
