MODEL 1
REMARK VINA RESULT:      -8.5      0.000      0.000
REMARK  4 active torsions:
REMARK  status: ('A' for Active; 'I' for Inactive)
REMARK    1  A    between atoms: C11_15  and  C12_16 
REMARK    2  A    between atoms: C12_16  and  O1_17 
REMARK    3  A    between atoms: O1_17  and  C13_18 
REMARK    4  A    between atoms: C13_18  and  C14_19 
ROOT
HETATM    1  C1  UNL     1      29.412   5.799  48.344  1.00  0.00     0.017 C 
HETATM    2  C2  UNL     1      28.246   6.186  48.300  1.00  0.00    -0.089 C 
HETATM    3  C3  UNL     1      26.857   6.621  48.258  1.00  0.00     0.070 C 
HETATM    4  C4  UNL     1      25.847   5.828  48.718  1.00  0.00    -0.047 C 
HETATM    5  C5  UNL     1      26.380   4.569  49.216  1.00  0.00     0.025 C 
HETATM    6  C6  UNL     1      26.049   3.411  49.755  1.00  0.00     0.090 C 
HETATM    7  N1  UNL     1      24.938   2.587  50.219  1.00  0.00    -0.354 N 
HETATM    8  C7  UNL     1      23.769   2.782  51.028  1.00  0.00     0.115 C 
HETATM    9  N2  UNL     1      22.712   2.709  50.204  1.00  0.00    -0.226 NA
HETATM   10  C8  UNL     1      22.168   3.875  49.507  1.00  0.00     0.257 C 
HETATM   11  N3  UNL     1      22.460   5.166  49.552  1.00  0.00    -0.166 NA
HETATM   12  N4  UNL     1      23.342   5.806  50.482  1.00  0.00    -0.280 N 
HETATM   13  C9  UNL     1      23.772   5.564  51.846  1.00  0.00     0.109 C 
HETATM   14  C10 UNL     1      23.545   4.552  52.709  1.00  0.00     0.006 C 
HETATM   15  C11 UNL     1      23.557   3.060  52.473  1.00  0.00     0.103 C 
HETATM   16  C18 UNL     1      23.831   6.939  49.753  1.00  0.00     0.155 C 
HETATM   17  C19 UNL     1      24.587   6.580  48.506  1.00  0.00     0.061 C 
HETATM   18  H5  UNL     1      24.886   1.558  49.929  1.00  0.00     0.166 HD
ENDROOT
BRANCH  15  19
HETATM   19  C12 UNL     1      24.643   2.435  53.357  1.00  0.00     0.184 C 
BRANCH  19  20
HETATM   20  O1  UNL     1      25.078   1.274  52.858  1.00  0.00    -0.387 OA
BRANCH  20  21
HETATM   21  C13 UNL     1      26.304   0.778  53.006  1.00  0.00     0.201 C 
BRANCH  21  22
HETATM   22  C14 UNL     1      26.528  -0.562  53.619  1.00  0.00     0.173 C 
HETATM   23  C15 UNL     1      27.049  -1.542  52.607  1.00  0.00     0.303 C 
HETATM   24  N5  UNL     1      28.132  -2.336  53.219  1.00  0.00     0.088 N 
HETATM   25  C16 UNL     1      29.266  -1.445  53.468  1.00  0.00     0.295 C 
HETATM   26  H17 UNL     1      27.812  -2.730  54.109  1.00  0.00     0.316 HD
HETATM   27  C17 UNL     1      28.738  -0.271  54.274  1.00  0.00     0.198 C 
HETATM   28  O2  UNL     1      27.453  -0.465  54.701  1.00  0.00    -0.380 OA
ENDBRANCH  21  22
ENDBRANCH  20  21
ENDBRANCH  19  20
ENDBRANCH  15  19
TORSDOF 4
ENDMDL
MODEL 2
REMARK VINA RESULT:      -8.1      2.370      5.148
REMARK  4 active torsions:
REMARK  status: ('A' for Active; 'I' for Inactive)
REMARK    1  A    between atoms: C11_15  and  C12_16 
REMARK    2  A    between atoms: C12_16  and  O1_17 
REMARK    3  A    between atoms: O1_17  and  C13_18 
REMARK    4  A    between atoms: C13_18  and  C14_19 
ROOT
HETATM    1  C1  UNL     1      21.649  -1.380  54.347  1.00  0.00     0.017 C 
HETATM    2  C2  UNL     1      21.098  -0.625  53.549  1.00  0.00    -0.089 C 
HETATM    3  C3  UNL     1      20.465   0.288  52.607  1.00  0.00     0.070 C 
HETATM    4  C4  UNL     1      21.063   1.455  52.233  1.00  0.00    -0.047 C 
HETATM    5  C5  UNL     1      22.348   1.601  52.901  1.00  0.00     0.025 C 
HETATM    6  C6  UNL     1      23.394   2.393  53.037  1.00  0.00     0.090 C 
HETATM    7  N1  UNL     1      23.991   3.659  52.625  1.00  0.00    -0.354 N 
HETATM    8  C7  UNL     1      24.193   4.357  51.387  1.00  0.00     0.115 C 
HETATM    9  N2  UNL     1      23.376   5.421  51.405  1.00  0.00    -0.226 NA
HETATM   10  C8  UNL     1      22.000   5.373  50.910  1.00  0.00     0.257 C 
HETATM   11  N3  UNL     1      21.295   4.428  50.306  1.00  0.00    -0.166 NA
HETATM   12  N4  UNL     1      21.795   3.181  49.809  1.00  0.00    -0.280 N 
HETATM   13  C9  UNL     1      23.062   2.697  49.296  1.00  0.00     0.109 C 
HETATM   14  C10 UNL     1      24.282   3.262  49.195  1.00  0.00     0.006 C 
HETATM   15  C11 UNL     1      25.044   4.103  50.194  1.00  0.00     0.103 C 
HETATM   16  C18 UNL     1      20.660   2.309  49.893  1.00  0.00     0.155 C 
HETATM   17  C19 UNL     1      20.137   2.123  51.287  1.00  0.00     0.061 C 
HETATM   18  H5  UNL     1      24.407   4.313  53.363  1.00  0.00     0.166 HD
ENDROOT
BRANCH  15  19
HETATM   19  C12 UNL     1      26.349   3.380  50.546  1.00  0.00     0.184 C 
BRANCH  19  20
HETATM   20  O1  UNL     1      26.120   2.155  51.030  1.00  0.00    -0.387 OA
BRANCH  20  21
HETATM   21  C13 UNL     1      26.938   1.470  51.824  1.00  0.00     0.201 C 
BRANCH  21  22
HETATM   22  C14 UNL     1      26.746   1.448  53.301  1.00  0.00     0.173 C 
HETATM   23  C15 UNL     1      26.661   0.041  53.818  1.00  0.00     0.303 C 
HETATM   24  N5  UNL     1      27.454  -0.065  55.058  1.00  0.00     0.088 N 
HETATM   25  C16 UNL     1      28.867   0.102  54.712  1.00  0.00     0.295 C 
HETATM   26  H17 UNL     1      27.178   0.674  55.711  1.00  0.00     0.316 HD
HETATM   27  C17 UNL     1      28.981   1.401  53.936  1.00  0.00     0.198 C 
HETATM   28  O2  UNL     1      27.819   2.125  53.952  1.00  0.00    -0.380 OA
ENDBRANCH  21  22
ENDBRANCH  20  21
ENDBRANCH  19  20
ENDBRANCH  15  19
TORSDOF 4
ENDMDL
MODEL 3
REMARK VINA RESULT:      -7.8      2.980      6.773
REMARK  4 active torsions:
REMARK  status: ('A' for Active; 'I' for Inactive)
REMARK    1  A    between atoms: C11_15  and  C12_16 
REMARK    2  A    between atoms: C12_16  and  O1_17 
REMARK    3  A    between atoms: O1_17  and  C13_18 
REMARK    4  A    between atoms: C13_18  and  C14_19 
ROOT
HETATM    1  C1  UNL     1      27.552   0.192  52.811  1.00  0.00     0.017 C 
HETATM    2  C2  UNL     1      26.370  -0.067  53.021  1.00  0.00    -0.089 C 
HETATM    3  C3  UNL     1      24.961  -0.350  53.261  1.00  0.00     0.070 C 
HETATM    4  C4  UNL     1      23.986   0.543  52.925  1.00  0.00    -0.047 C 
HETATM    5  C5  UNL     1      24.575   1.732  52.330  1.00  0.00     0.025 C 
HETATM    6  C6  UNL     1      24.297   2.915  51.815  1.00  0.00     0.090 C 
HETATM    7  N1  UNL     1      23.226   3.849  51.487  1.00  0.00    -0.354 N 
HETATM    8  C7  UNL     1      21.943   3.774  50.849  1.00  0.00     0.115 C 
HETATM    9  N2  UNL     1      21.022   3.967  51.806  1.00  0.00    -0.226 NA
HETATM   10  C8  UNL     1      20.459   2.872  52.597  1.00  0.00     0.257 C 
HETATM   11  N3  UNL     1      20.606   1.556  52.543  1.00  0.00    -0.166 NA
HETATM   12  N4  UNL     1      21.280   0.818  51.517  1.00  0.00    -0.280 N 
HETATM   13  C9  UNL     1      21.541   1.002  50.102  1.00  0.00     0.109 C 
HETATM   14  C10 UNL     1      21.305   2.024  49.255  1.00  0.00     0.006 C 
HETATM   15  C11 UNL     1      21.506   3.509  49.452  1.00  0.00     0.103 C 
HETATM   16  C18 UNL     1      21.743  -0.355  52.198  1.00  0.00     0.155 C 
HETATM   17  C19 UNL     1      22.695  -0.069  53.322  1.00  0.00     0.061 C 
HETATM   18  H5  UNL     1      23.322   4.880  51.757  1.00  0.00     0.166 HD
ENDROOT
BRANCH  15  19
HETATM   19  C12 UNL     1      22.520   4.006  48.416  1.00  0.00     0.184 C 
BRANCH  19  20
HETATM   20  O1  UNL     1      22.883   5.272  48.647  1.00  0.00    -0.387 OA
BRANCH  20  21
HETATM   21  C13 UNL     1      24.036   5.826  48.284  1.00  0.00     0.201 C 
BRANCH  21  22
HETATM   22  C14 UNL     1      25.276   5.634  49.088  1.00  0.00     0.173 C 
HETATM   23  C15 UNL     1      26.445   6.339  48.463  1.00  0.00     0.303 C 
HETATM   24  N5  UNL     1      27.221   7.015  49.520  1.00  0.00     0.088 N 
HETATM   25  C16 UNL     1      26.401   8.099  50.065  1.00  0.00     0.295 C 
HETATM   26  H17 UNL     1      27.441   6.351  50.268  1.00  0.00     0.316 HD
HETATM   27  C17 UNL     1      25.074   7.486  50.476  1.00  0.00     0.198 C 
HETATM   28  O2  UNL     1      25.088   6.119  50.416  1.00  0.00    -0.380 OA
ENDBRANCH  21  22
ENDBRANCH  20  21
ENDBRANCH  19  20
ENDBRANCH  15  19
TORSDOF 4
ENDMDL
MODEL 4
REMARK VINA RESULT:      -7.4      2.861      3.741
REMARK  4 active torsions:
REMARK  status: ('A' for Active; 'I' for Inactive)
REMARK    1  A    between atoms: C11_15  and  C12_16 
REMARK    2  A    between atoms: C12_16  and  O1_17 
REMARK    3  A    between atoms: O1_17  and  C13_18 
REMARK    4  A    between atoms: C13_18  and  C14_19 
ROOT
HETATM    1  C1  UNL     1      21.527   3.937  45.296  1.00  0.00     0.017 C 
HETATM    2  C2  UNL     1      20.965   4.258  46.340  1.00  0.00    -0.089 C 
HETATM    3  C3  UNL     1      20.311   4.620  47.591  1.00  0.00     0.070 C 
HETATM    4  C4  UNL     1      20.614   3.990  48.762  1.00  0.00    -0.047 C 
HETATM    5  C5  UNL     1      21.631   2.974  48.541  1.00  0.00     0.025 C 
HETATM    6  C6  UNL     1      22.353   2.042  49.134  1.00  0.00     0.090 C 
HETATM    7  N1  UNL     1      22.636   1.383  50.404  1.00  0.00    -0.354 N 
HETATM    8  C7  UNL     1      22.886   1.796  51.755  1.00  0.00     0.115 C 
HETATM    9  N2  UNL     1      21.814   1.434  52.476  1.00  0.00    -0.226 NA
HETATM   10  C8  UNL     1      20.646   2.299  52.650  1.00  0.00     0.257 C 
HETATM   11  N3  UNL     1      20.386   3.543  52.276  1.00  0.00    -0.166 NA
HETATM   12  N4  UNL     1      21.315   4.471  51.706  1.00  0.00    -0.280 N 
HETATM   13  C9  UNL     1      22.747   4.692  51.782  1.00  0.00     0.109 C 
HETATM   14  C10 UNL     1      23.746   4.007  52.374  1.00  0.00     0.006 C 
HETATM   15  C11 UNL     1      24.006   2.519  52.415  1.00  0.00     0.103 C 
HETATM   16  C18 UNL     1      20.488   5.322  50.903  1.00  0.00     0.155 C 
HETATM   17  C19 UNL     1      19.757   4.601  49.807  1.00  0.00     0.061 C 
HETATM   18  H5  UNL     1      22.681   0.314  50.446  1.00  0.00     0.166 HD
ENDROOT
BRANCH  15  19
HETATM   19  C12 UNL     1      25.358   2.241  51.749  1.00  0.00     0.184 C 
BRANCH  19  20
HETATM   20  O1  UNL     1      26.248   1.757  52.621  1.00  0.00    -0.387 OA
BRANCH  20  21
HETATM   21  C13 UNL     1      25.960   1.194  53.791  1.00  0.00     0.201 C 
BRANCH  21  22
HETATM   22  C14 UNL     1      26.347  -0.214  54.090  1.00  0.00     0.173 C 
HETATM   23  C15 UNL     1      27.021  -0.855  52.911  1.00  0.00     0.303 C 
HETATM   24  N5  UNL     1      28.184  -1.629  53.383  1.00  0.00     0.088 N 
HETATM   25  C16 UNL     1      29.182  -0.688  53.896  1.00  0.00     0.295 C 
HETATM   26  H17 UNL     1      27.898  -2.260  54.138  1.00  0.00     0.316 HD
HETATM   27  C17 UNL     1      28.480   0.186  54.919  1.00  0.00     0.198 C 
HETATM   28  O2  UNL     1      27.221  -0.262  55.216  1.00  0.00    -0.380 OA
ENDBRANCH  21  22
ENDBRANCH  20  21
ENDBRANCH  19  20
ENDBRANCH  15  19
TORSDOF 4
ENDMDL
MODEL 5
REMARK VINA RESULT:      -7.3      2.261      2.921
REMARK  4 active torsions:
REMARK  status: ('A' for Active; 'I' for Inactive)
REMARK    1  A    between atoms: C11_15  and  C12_16 
REMARK    2  A    between atoms: C12_16  and  O1_17 
REMARK    3  A    between atoms: O1_17  and  C13_18 
REMARK    4  A    between atoms: C13_18  and  C14_19 
ROOT
HETATM    1  C1  UNL     1      26.956   4.353  49.118  1.00  0.00     0.017 C 
HETATM    2  C2  UNL     1      25.848   4.874  49.216  1.00  0.00    -0.089 C 
HETATM    3  C3  UNL     1      24.523   5.467  49.334  1.00  0.00     0.070 C 
HETATM    4  C4  UNL     1      23.405   4.696  49.462  1.00  0.00    -0.047 C 
HETATM    5  C5  UNL     1      23.761   3.286  49.460  1.00  0.00     0.025 C 
HETATM    6  C6  UNL     1      23.270   2.063  49.528  1.00  0.00     0.090 C 
HETATM    7  N1  UNL     1      22.048   1.275  49.649  1.00  0.00    -0.354 N 
HETATM    8  C7  UNL     1      20.871   1.306  50.468  1.00  0.00     0.115 C 
HETATM    9  N2  UNL     1      19.855   1.676  49.673  1.00  0.00    -0.226 NA
HETATM   10  C8  UNL     1      19.487   3.076  49.457  1.00  0.00     0.257 C 
HETATM   11  N3  UNL     1      19.926   4.212  49.979  1.00  0.00    -0.166 NA
HETATM   12  N4  UNL     1      20.828   4.346  51.083  1.00  0.00    -0.280 N 
HETATM   13  C9  UNL     1      21.157   3.567  52.261  1.00  0.00     0.109 C 
HETATM   14  C10 UNL     1      20.770   2.347  52.686  1.00  0.00     0.006 C 
HETATM   15  C11 UNL     1      20.619   1.057  51.913  1.00  0.00     0.103 C 
HETATM   16  C18 UNL     1      21.483   5.596  50.829  1.00  0.00     0.155 C 
HETATM   17  C19 UNL     1      22.254   5.627  49.541  1.00  0.00     0.061 C 
HETATM   18  H5  UNL     1      21.890   0.440  48.998  1.00  0.00     0.166 HD
ENDROOT
BRANCH  15  19
HETATM   19  C12 UNL     1      21.578   0.018  52.505  1.00  0.00     0.184 C 
BRANCH  19  20
HETATM   20  O1  UNL     1      22.833   0.475  52.555  1.00  0.00    -0.387 OA
BRANCH  20  21
HETATM   21  C13 UNL     1      23.745   0.141  53.464  1.00  0.00     0.201 C 
BRANCH  21  22
HETATM   22  C14 UNL     1      25.022  -0.518  53.073  1.00  0.00     0.173 C 
HETATM   23  C15 UNL     1      25.887   0.407  52.265  1.00  0.00     0.303 C 
HETATM   24  N5  UNL     1      27.283   0.288  52.728  1.00  0.00     0.088 N 
HETATM   25  C16 UNL     1      27.360   0.825  54.088  1.00  0.00     0.295 C 
HETATM   26  H17 UNL     1      27.562  -0.698  52.739  1.00  0.00     0.316 HD
HETATM   27  C17 UNL     1      26.304   0.107  54.908  1.00  0.00     0.198 C 
HETATM   28  O2  UNL     1      25.739  -0.941  54.232  1.00  0.00    -0.380 OA
ENDBRANCH  21  22
ENDBRANCH  20  21
ENDBRANCH  19  20
ENDBRANCH  15  19
TORSDOF 4
ENDMDL
MODEL 6
REMARK VINA RESULT:      -7.3      1.529      1.996
REMARK  4 active torsions:
REMARK  status: ('A' for Active; 'I' for Inactive)
REMARK    1  A    between atoms: C11_15  and  C12_16 
REMARK    2  A    between atoms: C12_16  and  O1_17 
REMARK    3  A    between atoms: O1_17  and  C13_18 
REMARK    4  A    between atoms: C13_18  and  C14_19 
ROOT
HETATM    1  C1  UNL     1      26.949   9.165  50.046  1.00  0.00     0.017 C 
HETATM    2  C2  UNL     1      25.752   8.891  50.065  1.00  0.00    -0.089 C 
HETATM    3  C3  UNL     1      24.338   8.540  50.082  1.00  0.00     0.070 C 
HETATM    4  C4  UNL     1      23.919   7.256  49.893  1.00  0.00    -0.047 C 
HETATM    5  C5  UNL     1      25.060   6.378  49.688  1.00  0.00     0.025 C 
HETATM    6  C6  UNL     1      25.414   5.128  49.456  1.00  0.00     0.090 C 
HETATM    7  N1  UNL     1      24.923   3.771  49.241  1.00  0.00    -0.354 N 
HETATM    8  C7  UNL     1      23.960   2.906  49.859  1.00  0.00     0.115 C 
HETATM    9  N2  UNL     1      22.939   2.784  48.997  1.00  0.00    -0.226 NA
HETATM   10  C8  UNL     1      21.798   3.700  48.985  1.00  0.00     0.257 C 
HETATM   11  N3  UNL     1      21.448   4.710  49.767  1.00  0.00    -0.166 NA
HETATM   12  N4  UNL     1      22.068   5.082  51.003  1.00  0.00    -0.280 N 
HETATM   13  C9  UNL     1      22.789   4.392  52.056  1.00  0.00     0.109 C 
HETATM   14  C10 UNL     1      23.219   3.121  52.186  1.00  0.00     0.006 C 
HETATM   15  C11 UNL     1      23.895   2.220  51.177  1.00  0.00     0.103 C 
HETATM   16  C18 UNL     1      21.830   6.493  51.086  1.00  0.00     0.155 C 
HETATM   17  C19 UNL     1      22.438   7.279  49.960  1.00  0.00     0.061 C 
HETATM   18  H5  UNL     1      25.314   3.189  48.432  1.00  0.00     0.166 HD
ENDROOT
BRANCH  15  19
HETATM   19  C12 UNL     1      25.280   1.841  51.711  1.00  0.00     0.184 C 
BRANCH  19  20
HETATM   20  O1  UNL     1      25.248   0.696  52.400  1.00  0.00    -0.387 OA
BRANCH  20  21
HETATM   21  C13 UNL     1      25.623   0.543  53.667  1.00  0.00     0.201 C 
BRANCH  21  22
HETATM   22  C14 UNL     1      26.392  -0.655  54.108  1.00  0.00     0.173 C 
HETATM   23  C15 UNL     1      27.059  -1.332  52.945  1.00  0.00     0.303 C 
HETATM   24  N5  UNL     1      28.431  -1.713  53.332  1.00  0.00     0.088 N 
HETATM   25  C16 UNL     1      29.208  -0.487  53.524  1.00  0.00     0.295 C 
HETATM   26  H17 UNL     1      28.410  -2.239  54.210  1.00  0.00     0.316 HD
HETATM   27  C17 UNL     1      28.435   0.377  54.505  1.00  0.00     0.198 C 
HETATM   28  O2  UNL     1      27.379  -0.287  55.069  1.00  0.00    -0.380 OA
ENDBRANCH  21  22
ENDBRANCH  20  21
ENDBRANCH  19  20
ENDBRANCH  15  19
TORSDOF 4
ENDMDL
MODEL 7
REMARK VINA RESULT:      -7.2      3.724      7.860
REMARK  4 active torsions:
REMARK  status: ('A' for Active; 'I' for Inactive)
REMARK    1  A    between atoms: C11_15  and  C12_16 
REMARK    2  A    between atoms: C12_16  and  O1_17 
REMARK    3  A    between atoms: O1_17  and  C13_18 
REMARK    4  A    between atoms: C13_18  and  C14_19 
ROOT
HETATM    1  C1  UNL     1      20.916  -1.676  54.207  1.00  0.00     0.017 C 
HETATM    2  C2  UNL     1      22.017  -1.145  54.090  1.00  0.00    -0.089 C 
HETATM    3  C3  UNL     1      23.315  -0.503  53.931  1.00  0.00     0.070 C 
HETATM    4  C4  UNL     1      23.537   0.424  52.956  1.00  0.00    -0.047 C 
HETATM    5  C5  UNL     1      22.329   0.632  52.172  1.00  0.00     0.025 C 
HETATM    6  C6  UNL     1      21.821   1.301  51.154  1.00  0.00     0.090 C 
HETATM    7  N1  UNL     1      22.105   2.284  50.114  1.00  0.00    -0.354 N 
HETATM    8  C7  UNL     1      22.755   3.561  50.043  1.00  0.00     0.115 C 
HETATM    9  N2  UNL     1      23.896   3.377  49.361  1.00  0.00    -0.226 NA
HETATM   10  C8  UNL     1      25.156   3.006  50.008  1.00  0.00     0.257 C 
HETATM   11  N3  UNL     1      25.504   2.857  51.278  1.00  0.00    -0.166 NA
HETATM   12  N4  UNL     1      24.715   3.202  52.422  1.00  0.00    -0.280 N 
HETATM   13  C9  UNL     1      23.683   4.177  52.720  1.00  0.00     0.109 C 
HETATM   14  C10 UNL     1      23.023   5.071  51.956  1.00  0.00     0.006 C 
HETATM   15  C11 UNL     1      22.427   4.910  50.577  1.00  0.00     0.103 C 
HETATM   16  C18 UNL     1      25.170   2.290  53.429  1.00  0.00     0.155 C 
HETATM   17  C19 UNL     1      24.953   0.845  53.084  1.00  0.00     0.061 C 
HETATM   18  H5  UNL     1      21.796   2.093  49.108  1.00  0.00     0.166 HD
ENDROOT
BRANCH  15  19
HETATM   19  C12 UNL     1      20.917   5.155  50.666  1.00  0.00     0.184 C 
BRANCH  19  20
HETATM   20  O1  UNL     1      20.241   4.397  49.796  1.00  0.00    -0.387 OA
BRANCH  20  21
HETATM   21  C13 UNL     1      18.951   4.082  49.881  1.00  0.00     0.201 C 
BRANCH  21  22
HETATM   22  C14 UNL     1      18.244   4.058  51.192  1.00  0.00     0.173 C 
HETATM   23  C15 UNL     1      16.754   4.015  51.006  1.00  0.00     0.303 C 
HETATM   24  N5  UNL     1      16.178   3.049  51.960  1.00  0.00     0.088 N 
HETATM   25  C16 UNL     1      16.623   1.708  51.576  1.00  0.00     0.295 C 
HETATM   26  H17 UNL     1      16.509   3.256  52.907  1.00  0.00     0.316 HD
HETATM   27  C17 UNL     1      18.138   1.756  51.482  1.00  0.00     0.198 C 
HETATM   28  O2  UNL     1      18.656   2.929  51.959  1.00  0.00    -0.380 OA
ENDBRANCH  21  22
ENDBRANCH  20  21
ENDBRANCH  19  20
ENDBRANCH  15  19
TORSDOF 4
ENDMDL
MODEL 8
REMARK VINA RESULT:      -7.0      8.695     11.644
REMARK  4 active torsions:
REMARK  status: ('A' for Active; 'I' for Inactive)
REMARK    1  A    between atoms: C11_15  and  C12_16 
REMARK    2  A    between atoms: C12_16  and  O1_17 
REMARK    3  A    between atoms: O1_17  and  C13_18 
REMARK    4  A    between atoms: C13_18  and  C14_19 
ROOT
HETATM    1  C1  UNL     1      32.614   5.753  41.623  1.00  0.00     0.017 C 
HETATM    2  C2  UNL     1      33.204   5.156  42.520  1.00  0.00    -0.089 C 
HETATM    3  C3  UNL     1      33.900   4.469  43.599  1.00  0.00     0.070 C 
HETATM    4  C4  UNL     1      34.063   5.046  44.824  1.00  0.00    -0.047 C 
HETATM    5  C5  UNL     1      33.457   6.369  44.844  1.00  0.00     0.025 C 
HETATM    6  C6  UNL     1      33.240   7.430  45.598  1.00  0.00     0.090 C 
HETATM    7  N1  UNL     1      33.451   8.018  46.916  1.00  0.00    -0.354 N 
HETATM    8  C7  UNL     1      33.319   7.586  48.278  1.00  0.00     0.115 C 
HETATM    9  N2  UNL     1      34.563   7.481  48.772  1.00  0.00    -0.226 NA
HETATM   10  C8  UNL     1      35.352   6.252  48.679  1.00  0.00     0.257 C 
HETATM   11  N3  UNL     1      35.075   5.038  48.227  1.00  0.00    -0.166 NA
HETATM   12  N4  UNL     1      33.786   4.551  47.835  1.00  0.00    -0.280 N 
HETATM   13  C9  UNL     1      32.411   4.833  48.199  1.00  0.00     0.109 C 
HETATM   14  C10 UNL     1      31.851   5.761  49.001  1.00  0.00     0.006 C 
HETATM   15  C11 UNL     1      32.156   7.235  49.135  1.00  0.00     0.103 C 
HETATM   16  C18 UNL     1      34.091   3.550  46.856  1.00  0.00     0.155 C 
HETATM   17  C19 UNL     1      34.818   4.076  45.653  1.00  0.00     0.061 C 
HETATM   18  H5  UNL     1      33.801   9.026  46.995  1.00  0.00     0.166 HD
ENDROOT
BRANCH  15  19
HETATM   19  C12 UNL     1      30.897   8.029  48.769  1.00  0.00     0.184 C 
BRANCH  19  20
HETATM   20  O1  UNL     1      31.182   9.303  48.482  1.00  0.00    -0.387 OA
BRANCH  20  21
HETATM   21  C13 UNL     1      30.506  10.365  48.914  1.00  0.00     0.201 C 
BRANCH  21  22
HETATM   22  C14 UNL     1      30.917  11.748  48.544  1.00  0.00     0.173 C 
HETATM   23  C15 UNL     1      30.627  12.033  47.098  1.00  0.00     0.303 C 
HETATM   24  N5  UNL     1      30.054  13.388  46.980  1.00  0.00     0.088 N 
HETATM   25  C16 UNL     1      28.734  13.382  47.614  1.00  0.00     0.295 C 
HETATM   26  H17 UNL     1      30.656  14.062  47.462  1.00  0.00     0.316 HD
HETATM   27  C17 UNL     1      28.921  12.837  49.019  1.00  0.00     0.198 C 
HETATM   28  O2  UNL     1      30.240  12.703  49.358  1.00  0.00    -0.380 OA
ENDBRANCH  21  22
ENDBRANCH  20  21
ENDBRANCH  19  20
ENDBRANCH  15  19
TORSDOF 4
ENDMDL
MODEL 9
REMARK VINA RESULT:      -7.0      3.050      7.365
REMARK  4 active torsions:
REMARK  status: ('A' for Active; 'I' for Inactive)
REMARK    1  A    between atoms: C11_15  and  C12_16 
REMARK    2  A    between atoms: C12_16  and  O1_17 
REMARK    3  A    between atoms: O1_17  and  C13_18 
REMARK    4  A    between atoms: C13_18  and  C14_19 
ROOT
HETATM    1  C1  UNL     1      25.929  -0.504  54.549  1.00  0.00     0.017 C 
HETATM    2  C2  UNL     1      24.807  -0.409  54.058  1.00  0.00    -0.089 C 
HETATM    3  C3  UNL     1      23.481  -0.271  53.472  1.00  0.00     0.070 C 
HETATM    4  C4  UNL     1      23.069   0.900  52.906  1.00  0.00    -0.047 C 
HETATM    5  C5  UNL     1      24.122   1.901  52.994  1.00  0.00     0.025 C 
HETATM    6  C6  UNL     1      24.431   3.151  52.704  1.00  0.00     0.090 C 
HETATM    7  N1  UNL     1      23.945   4.389  52.105  1.00  0.00    -0.354 N 
HETATM    8  C7  UNL     1      23.252   4.759  50.905  1.00  0.00     0.115 C 
HETATM    9  N2  UNL     1      22.019   5.142  51.272  1.00  0.00    -0.226 NA
HETATM   10  C8  UNL     1      20.898   4.207  51.382  1.00  0.00     0.257 C 
HETATM   11  N3  UNL     1      20.772   2.918  51.103  1.00  0.00    -0.166 NA
HETATM   12  N4  UNL     1      21.731   2.098  50.424  1.00  0.00    -0.280 N 
HETATM   13  C9  UNL     1      22.766   2.310  49.430  1.00  0.00     0.109 C 
HETATM   14  C10 UNL     1      23.260   3.423  48.849  1.00  0.00     0.006 C 
HETATM   15  C11 UNL     1      23.621   4.755  49.464  1.00  0.00     0.103 C 
HETATM   16  C18 UNL     1      21.480   0.788  50.949  1.00  0.00     0.155 C 
HETATM   17  C19 UNL     1      21.682   0.678  52.432  1.00  0.00     0.061 C 
HETATM   18  H5  UNL     1      24.087   5.316  52.620  1.00  0.00     0.166 HD
ENDROOT
BRANCH  15  19
HETATM   19  C12 UNL     1      25.117   5.006  49.241  1.00  0.00     0.184 C 
BRANCH  19  20
HETATM   20  O1  UNL     1      25.601   5.906  50.102  1.00  0.00    -0.387 OA
BRANCH  20  21
HETATM   21  C13 UNL     1      26.008   7.134  49.793  1.00  0.00     0.201 C 
BRANCH  21  22
HETATM   22  C14 UNL     1      26.183   7.559  48.376  1.00  0.00     0.173 C 
HETATM   23  C15 UNL     1      26.082   9.051  48.239  1.00  0.00     0.303 C 
HETATM   24  N5  UNL     1      27.139   9.523  47.324  1.00  0.00     0.088 N 
HETATM   25  C16 UNL     1      28.434   9.312  47.975  1.00  0.00     0.295 C 
HETATM   26  H17 UNL     1      27.109   8.986  46.452  1.00  0.00     0.316 HD
HETATM   27  C17 UNL     1      28.488   7.852  48.388  1.00  0.00     0.198 C 
HETATM   28  O2  UNL     1      27.447   7.124  47.878  1.00  0.00    -0.380 OA
ENDBRANCH  21  22
ENDBRANCH  20  21
ENDBRANCH  19  20
ENDBRANCH  15  19
TORSDOF 4
ENDMDL
