MODEL 1
REMARK VINA RESULT:      -9.7      0.000      0.000
REMARK  1 active torsions:
REMARK  status: ('A' for Active; 'I' for Inactive)
REMARK    1  A    between atoms: C17_20  and  O1_21 
ROOT
HETATM    1  C1  UNL     1      26.772   0.008  52.185  1.00  0.00     0.042 C 
HETATM    2  C2  UNL     1      26.030   1.351  52.341  1.00  0.00     0.079 C 
HETATM    3 CL1  UNL     1      26.715   2.093  53.839  1.00  0.00    -0.110 Cl
HETATM    4  C3  UNL     1      26.295   2.207  51.172  1.00  0.00     0.003 C 
HETATM    5  C4  UNL     1      26.639   2.797  50.056  1.00  0.00    -0.002 C 
HETATM    6  C5  UNL     1      26.507   4.053  49.349  1.00  0.00    -0.003 C 
HETATM    7  C6  UNL     1      25.989   5.253  49.431  1.00  0.00    -0.013 C 
HETATM    8  C7  UNL     1      25.602   6.641  49.117  1.00  0.00     0.071 C 
HETATM    9  C8  UNL     1      25.144   7.292  50.404  1.00  0.00    -0.015 C 
HETATM   10  C9  UNL     1      24.311   6.591  51.218  1.00  0.00     0.001 C 
HETATM   11  C10 UNL     1      23.243   5.564  51.101  1.00  0.00     0.157 C 
HETATM   12  N1  UNL     1      23.494   4.503  52.042  1.00  0.00    -0.376 N 
HETATM   13  C11 UNL     1      23.193   3.152  51.714  1.00  0.00     0.042 C 
HETATM   14  C12 UNL     1      22.474   2.969  50.589  1.00  0.00     0.032 C 
HETATM   15  C13 UNL     1      22.352   3.964  49.527  1.00  0.00     0.032 C 
HETATM   16  C14 UNL     1      23.014   5.121  49.723  1.00  0.00     0.060 C 
HETATM   17  N2  UNL     1      23.393   5.748  48.497  1.00  0.00    -0.266 NA
HETATM   18  C15 UNL     1      24.331   6.641  48.283  1.00  0.00     0.102 C 
HETATM   19  C16 UNL     1      23.482   1.882  52.358  1.00  0.00     0.032 A 
HETATM   20  C17 UNL     1      22.246   1.370  52.785  1.00  0.00     0.078 A 
HETATM   21  C18 UNL     1      22.035   0.162  53.470  1.00  0.00     0.037 A 
HETATM   22  C19 UNL     1      23.172  -0.568  53.733  1.00  0.00     0.003 A 
HETATM   23  C20 UNL     1      24.380  -0.058  53.309  1.00  0.00     0.010 A 
HETATM   24  C21 UNL     1      24.595   1.126  52.636  1.00  0.00    -0.016 A 
HETATM   25  H12 UNL     1      23.902   4.793  52.957  1.00  0.00     0.160 HD
ENDROOT
BRANCH  20  26
HETATM   26  O1  UNL     1      21.022   2.042  52.562  1.00  0.00    -0.360 OA
HETATM   27  H16 UNL     1      20.304   1.886  53.247  1.00  0.00     0.217 HD
ENDBRANCH  20  26
TORSDOF 1
ENDMDL
MODEL 2
REMARK VINA RESULT:      -8.9      3.887      6.026
REMARK  1 active torsions:
REMARK  status: ('A' for Active; 'I' for Inactive)
REMARK    1  A    between atoms: C17_20  and  O1_21 
ROOT
HETATM    1  C1  UNL     1      20.899   3.145  52.208  1.00  0.00     0.042 C 
HETATM    2  C2  UNL     1      21.919   1.992  52.129  1.00  0.00     0.079 C 
HETATM    3 CL1  UNL     1      22.050   1.600  50.370  1.00  0.00    -0.110 Cl
HETATM    4  C3  UNL     1      23.220   2.439  52.656  1.00  0.00     0.003 C 
HETATM    5  C4  UNL     1      24.272   3.021  53.171  1.00  0.00    -0.002 C 
HETATM    6  C5  UNL     1      25.674   2.791  53.449  1.00  0.00    -0.003 C 
HETATM    7  C6  UNL     1      26.634   1.906  53.342  1.00  0.00    -0.013 C 
HETATM    8  C7  UNL     1      27.948   1.242  53.419  1.00  0.00     0.071 C 
HETATM    9  C8  UNL     1      27.914   0.047  52.489  1.00  0.00    -0.015 C 
HETATM   10  C9  UNL     1      26.817  -0.755  52.515  1.00  0.00     0.001 C 
HETATM   11  C10 UNL     1      25.789  -1.208  53.489  1.00  0.00     0.157 C 
HETATM   12  N1  UNL     1      24.480  -1.057  52.908  1.00  0.00    -0.376 N 
HETATM   13  C11 UNL     1      23.368  -0.673  53.707  1.00  0.00     0.042 C 
HETATM   14  C12 UNL     1      23.575  -0.678  55.038  1.00  0.00     0.032 C 
HETATM   15  C13 UNL     1      24.896  -0.645  55.660  1.00  0.00     0.032 C 
HETATM   16  C14 UNL     1      25.945  -0.606  54.816  1.00  0.00     0.060 C 
HETATM   17  N2  UNL     1      27.082   0.042  55.387  1.00  0.00    -0.266 NA
HETATM   18  C15 UNL     1      28.111   0.588  54.782  1.00  0.00     0.102 C 
HETATM   19  C16 UNL     1      22.004  -0.282  53.395  1.00  0.00     0.032 A 
HETATM   20  C17 UNL     1      21.180  -1.302  53.895  1.00  0.00     0.078 A 
HETATM   21  C18 UNL     1      19.779  -1.359  53.813  1.00  0.00     0.037 A 
HETATM   22  C19 UNL     1      19.186  -0.294  53.175  1.00  0.00     0.003 A 
HETATM   23  C20 UNL     1      20.003   0.704  52.688  1.00  0.00     0.010 A 
HETATM   24  C21 UNL     1      21.378   0.767  52.764  1.00  0.00    -0.016 A 
HETATM   25  H12 UNL     1      24.412  -1.247  51.884  1.00  0.00     0.160 HD
ENDROOT
BRANCH  20  26
HETATM   26  O1  UNL     1      21.691  -2.436  54.568  1.00  0.00    -0.360 OA
HETATM   27  H16 UNL     1      21.668  -2.400  55.571  1.00  0.00     0.217 HD
ENDBRANCH  20  26
TORSDOF 1
ENDMDL
MODEL 3
REMARK VINA RESULT:      -8.9      3.168      4.143
REMARK  1 active torsions:
REMARK  status: ('A' for Active; 'I' for Inactive)
REMARK    1  A    between atoms: C17_20  and  O1_21 
ROOT
HETATM    1  C1  UNL     1      25.499   0.780  52.072  1.00  0.00     0.042 C 
HETATM    2  C2  UNL     1      24.135   1.449  52.333  1.00  0.00     0.079 C 
HETATM    3 CL1  UNL     1      24.508   2.895  53.349  1.00  0.00    -0.110 Cl
HETATM    4  C3  UNL     1      23.528   1.859  51.054  1.00  0.00     0.003 C 
HETATM    5  C4  UNL     1      23.159   2.126  49.828  1.00  0.00    -0.002 C 
HETATM    6  C5  UNL     1      22.108   2.777  49.075  1.00  0.00    -0.003 C 
HETATM    7  C6  UNL     1      20.984   3.436  49.198  1.00  0.00    -0.013 C 
HETATM    8  C7  UNL     1      19.748   4.178  48.886  1.00  0.00     0.071 C 
HETATM    9  C8  UNL     1      19.285   4.854  50.159  1.00  0.00    -0.015 C 
HETATM   10  C9  UNL     1      19.293   4.130  51.309  1.00  0.00     0.001 C 
HETATM   11  C10 UNL     1      19.125   2.718  51.739  1.00  0.00     0.157 C 
HETATM   12  N1  UNL     1      20.194   2.360  52.637  1.00  0.00    -0.376 N 
HETATM   13  C11 UNL     1      20.752   1.052  52.620  1.00  0.00     0.042 C 
HETATM   14  C12 UNL     1      20.083   0.140  51.888  1.00  0.00     0.032 C 
HETATM   15  C13 UNL     1      19.125   0.477  50.839  1.00  0.00     0.032 C 
HETATM   16  C14 UNL     1      18.927   1.792  50.620  1.00  0.00     0.060 C 
HETATM   17  N2  UNL     1      18.537   2.070  49.275  1.00  0.00    -0.266 NA
HETATM   18  C15 UNL     1      18.620   3.198  48.609  1.00  0.00     0.102 C 
HETATM   19  C16 UNL     1      21.913   0.456  53.257  1.00  0.00     0.032 A 
HETATM   20  C17 UNL     1      21.417  -0.474  54.184  1.00  0.00     0.078 A 
HETATM   21  C18 UNL     1      22.178  -1.284  55.043  1.00  0.00     0.037 A 
HETATM   22  C19 UNL     1      23.542  -1.128  54.939  1.00  0.00     0.003 A 
HETATM   23  C20 UNL     1      24.020  -0.214  54.025  1.00  0.00     0.010 A 
HETATM   24  C21 UNL     1      23.279   0.585  53.180  1.00  0.00    -0.016 A 
HETATM   25  H12 UNL     1      20.517   3.113  53.283  1.00  0.00     0.160 HD
ENDROOT
BRANCH  20  26
HETATM   26  O1  UNL     1      20.035  -0.710  54.365  1.00  0.00    -0.360 OA
HETATM   27  H16 UNL     1      19.458   0.107  54.464  1.00  0.00     0.217 HD
ENDBRANCH  20  26
TORSDOF 1
ENDMDL
MODEL 4
REMARK VINA RESULT:      -8.7      2.884      4.242
REMARK  1 active torsions:
REMARK  status: ('A' for Active; 'I' for Inactive)
REMARK    1  A    between atoms: C17_20  and  O1_21 
ROOT
HETATM    1  C1  UNL     1      21.206  -1.693  54.436  1.00  0.00     0.042 C 
HETATM    2  C2  UNL     1      21.064  -0.288  53.816  1.00  0.00     0.079 C 
HETATM    3 CL1  UNL     1      20.646   0.796  55.199  1.00  0.00    -0.110 Cl
HETATM    4  C3  UNL     1      22.342   0.120  53.207  1.00  0.00     0.003 C 
HETATM    5  C4  UNL     1      23.544   0.285  52.719  1.00  0.00    -0.002 C 
HETATM    6  C5  UNL     1      24.372   1.263  52.046  1.00  0.00    -0.003 C 
HETATM    7  C6  UNL     1      24.377   2.482  51.569  1.00  0.00    -0.013 C 
HETATM    8  C7  UNL     1      24.807   3.739  50.928  1.00  0.00     0.071 C 
HETATM    9  C8  UNL     1      23.806   4.811  51.302  1.00  0.00    -0.015 C 
HETATM   10  C9  UNL     1      22.483   4.507  51.232  1.00  0.00     0.001 C 
HETATM   11  C10 UNL     1      21.580   3.634  50.437  1.00  0.00     0.157 C 
HETATM   12  N1  UNL     1      20.720   2.898  51.328  1.00  0.00    -0.376 N 
HETATM   13  C11 UNL     1      20.339   1.560  51.032  1.00  0.00     0.042 C 
HETATM   14  C12 UNL     1      20.646   1.124  49.795  1.00  0.00     0.032 C 
HETATM   15  C13 UNL     1      21.652   1.744  48.937  1.00  0.00     0.032 C 
HETATM   16  C14 UNL     1      22.289   2.814  49.451  1.00  0.00     0.060 C 
HETATM   17  N2  UNL     1      23.605   2.974  48.920  1.00  0.00    -0.266 NA
HETATM   18  C15 UNL     1      24.623   3.633  49.423  1.00  0.00     0.102 C 
HETATM   19  C16 UNL     1      19.649   0.530  51.789  1.00  0.00     0.032 A 
HETATM   20  C17 UNL     1      18.416   0.332  51.147  1.00  0.00     0.078 A 
HETATM   21  C18 UNL     1      17.407  -0.566  51.535  1.00  0.00     0.037 A 
HETATM   22  C19 UNL     1      17.687  -1.310  52.658  1.00  0.00     0.003 A 
HETATM   23  C20 UNL     1      18.900  -1.110  53.281  1.00  0.00     0.010 A 
HETATM   24  C21 UNL     1      19.894  -0.232  52.907  1.00  0.00    -0.016 A 
HETATM   25  H12 UNL     1      20.406   3.408  52.182  1.00  0.00     0.160 HD
ENDROOT
BRANCH  20  26
HETATM   26  O1  UNL     1      18.035   1.045  49.987  1.00  0.00    -0.360 OA
HETATM   27  H16 UNL     1      17.475   1.865  50.139  1.00  0.00     0.217 HD
ENDBRANCH  20  26
TORSDOF 1
ENDMDL
MODEL 5
REMARK VINA RESULT:      -8.4      2.737      4.473
REMARK  1 active torsions:
REMARK  status: ('A' for Active; 'I' for Inactive)
REMARK    1  A    between atoms: C17_20  and  O1_21 
ROOT
HETATM    1  C1  UNL     1      22.244  -1.067  54.962  1.00  0.00     0.042 C 
HETATM    2  C2  UNL     1      22.591  -0.334  53.651  1.00  0.00     0.079 C 
HETATM    3 CL1  UNL     1      22.658  -1.629  52.393  1.00  0.00    -0.110 Cl
HETATM    4  C3  UNL     1      21.535   0.642  53.331  1.00  0.00     0.003 C 
HETATM    5  C4  UNL     1      20.511   1.451  53.236  1.00  0.00    -0.002 C 
HETATM    6  C5  UNL     1      19.924   2.440  52.357  1.00  0.00    -0.003 C 
HETATM    7  C6  UNL     1      20.084   3.053  51.211  1.00  0.00    -0.013 C 
HETATM    8  C7  UNL     1      19.881   3.941  50.051  1.00  0.00     0.071 C 
HETATM    9  C8  UNL     1      20.780   3.451  48.935  1.00  0.00    -0.015 C 
HETATM   10  C9  UNL     1      22.063   3.124  49.242  1.00  0.00     0.001 C 
HETATM   11  C10 UNL     1      23.117   3.530  50.208  1.00  0.00     0.157 C 
HETATM   12  N1  UNL     1      23.685   2.355  50.817  1.00  0.00    -0.376 N 
HETATM   13  C11 UNL     1      24.089   2.365  52.181  1.00  0.00     0.042 C 
HETATM   14  C12 UNL     1      24.108   3.573  52.777  1.00  0.00     0.032 C 
HETATM   15  C13 UNL     1      23.387   4.741  52.278  1.00  0.00     0.032 C 
HETATM   16  C14 UNL     1      22.671   4.557  51.153  1.00  0.00     0.060 C 
HETATM   17  N2  UNL     1      21.550   5.438  51.068  1.00  0.00    -0.266 NA
HETATM   18  C15 UNL     1      20.456   5.315  50.353  1.00  0.00     0.102 C 
HETATM   19  C16 UNL     1      24.519   1.326  53.100  1.00  0.00     0.032 A 
HETATM   20  C17 UNL     1      25.871   1.583  53.376  1.00  0.00     0.078 A 
HETATM   21  C18 UNL     1      26.712   0.828  54.211  1.00  0.00     0.037 A 
HETATM   22  C19 UNL     1      26.120  -0.264  54.803  1.00  0.00     0.003 A 
HETATM   23  C20 UNL     1      24.792  -0.508  54.528  1.00  0.00     0.010 A 
HETATM   24  C21 UNL     1      23.961   0.228  53.709  1.00  0.00    -0.016 A 
HETATM   25  H12 UNL     1      23.777   1.520  50.199  1.00  0.00     0.160 HD
ENDROOT
BRANCH  20  26
HETATM   26  O1  UNL     1      26.570   2.679  52.820  1.00  0.00    -0.360 OA
HETATM   27  H16 UNL     1      27.253   2.455  52.119  1.00  0.00     0.217 HD
ENDBRANCH  20  26
TORSDOF 1
ENDMDL
MODEL 6
REMARK VINA RESULT:      -8.3      1.511      1.788
REMARK  1 active torsions:
REMARK  status: ('A' for Active; 'I' for Inactive)
REMARK    1  A    between atoms: C17_20  and  O1_21 
ROOT
HETATM    1  C1  UNL     1      26.494   1.036  52.546  1.00  0.00     0.042 C 
HETATM    2  C2  UNL     1      25.248   1.916  52.321  1.00  0.00     0.079 C 
HETATM    3 CL1  UNL     1      25.156   2.979  53.779  1.00  0.00    -0.110 Cl
HETATM    4  C3  UNL     1      25.423   2.725  51.102  1.00  0.00     0.003 C 
HETATM    5  C4  UNL     1      25.762   3.334  49.996  1.00  0.00    -0.002 C 
HETATM    6  C5  UNL     1      25.305   4.353  49.075  1.00  0.00    -0.003 C 
HETATM    7  C6  UNL     1      24.334   5.202  48.847  1.00  0.00    -0.013 C 
HETATM    8  C7  UNL     1      23.500   6.251  48.232  1.00  0.00     0.071 C 
HETATM    9  C8  UNL     1      22.501   6.712  49.272  1.00  0.00    -0.015 C 
HETATM   10  C9  UNL     1      21.857   5.766  50.007  1.00  0.00     0.001 C 
HETATM   11  C10 UNL     1      21.381   4.367  49.852  1.00  0.00     0.157 C 
HETATM   12  N1  UNL     1      21.801   3.590  50.990  1.00  0.00    -0.376 N 
HETATM   13  C11 UNL     1      22.183   2.228  50.840  1.00  0.00     0.042 C 
HETATM   14  C12 UNL     1      21.918   1.674  49.641  1.00  0.00     0.032 C 
HETATM   15  C13 UNL     1      21.669   2.442  48.424  1.00  0.00     0.032 C 
HETATM   16  C14 UNL     1      21.716   3.782  48.551  1.00  0.00     0.060 C 
HETATM   17  N2  UNL     1      22.100   4.433  47.339  1.00  0.00    -0.266 NA
HETATM   18  C15 UNL     1      22.603   5.634  47.171  1.00  0.00     0.102 C 
HETATM   19  C16 UNL     1      22.798   1.262  51.734  1.00  0.00     0.032 A 
HETATM   20  C17 UNL     1      21.823   0.283  51.983  1.00  0.00     0.078 A 
HETATM   21  C18 UNL     1      21.966  -0.847  52.805  1.00  0.00     0.037 A 
HETATM   22  C19 UNL     1      23.194  -0.979  53.411  1.00  0.00     0.003 A 
HETATM   23  C20 UNL     1      24.145  -0.014  53.160  1.00  0.00     0.010 A 
HETATM   24  C21 UNL     1      24.013   1.098  52.354  1.00  0.00    -0.016 A 
HETATM   25  H12 UNL     1      21.803   4.089  51.906  1.00  0.00     0.160 HD
ENDROOT
BRANCH  20  26
HETATM   26  O1  UNL     1      20.532   0.326  51.408  1.00  0.00    -0.360 OA
HETATM   27  H16 UNL     1      19.767   0.131  52.029  1.00  0.00     0.217 HD
ENDBRANCH  20  26
TORSDOF 1
ENDMDL
MODEL 7
REMARK VINA RESULT:      -8.3      2.667      5.232
REMARK  1 active torsions:
REMARK  status: ('A' for Active; 'I' for Inactive)
REMARK    1  A    between atoms: C17_20  and  O1_21 
ROOT
HETATM    1  C1  UNL     1      22.625   4.640  47.464  1.00  0.00     0.042 C 
HETATM    2  C2  UNL     1      22.776   3.530  48.523  1.00  0.00     0.079 C 
HETATM    3 CL1  UNL     1      22.459   1.989  47.637  1.00  0.00    -0.110 Cl
HETATM    4  C3  UNL     1      24.145   3.542  49.066  1.00  0.00     0.003 C 
HETATM    5  C4  UNL     1      25.390   3.727  49.425  1.00  0.00    -0.002 C 
HETATM    6  C5  UNL     1      26.422   3.168  50.272  1.00  0.00    -0.003 C 
HETATM    7  C6  UNL     1      26.675   2.202  51.118  1.00  0.00    -0.013 C 
HETATM    8  C7  UNL     1      27.364   1.318  52.077  1.00  0.00     0.071 C 
HETATM    9  C8  UNL     1      26.542   0.052  52.205  1.00  0.00    -0.015 C 
HETATM   10  C9  UNL     1      25.195   0.172  52.338  1.00  0.00     0.001 C 
HETATM   11  C10 UNL     1      24.211   1.128  52.909  1.00  0.00     0.157 C 
HETATM   12  N1  UNL     1      23.174   1.383  51.942  1.00  0.00    -0.376 N 
HETATM   13  C11 UNL     1      22.586   2.672  51.827  1.00  0.00     0.042 C 
HETATM   14  C12 UNL     1      22.898   3.547  52.804  1.00  0.00     0.032 C 
HETATM   15  C13 UNL     1      24.056   3.410  53.684  1.00  0.00     0.032 C 
HETATM   16  C14 UNL     1      24.832   2.330  53.473  1.00  0.00     0.060 C 
HETATM   17  N2  UNL     1      26.190   2.550  53.857  1.00  0.00    -0.266 NA
HETATM   18  C15 UNL     1      27.270   1.909  53.475  1.00  0.00     0.102 C 
HETATM   19  C16 UNL     1      21.673   3.270  50.868  1.00  0.00     0.032 A 
HETATM   20  C17 UNL     1      20.474   3.500  51.559  1.00  0.00     0.078 A 
HETATM   21  C18 UNL     1      19.298   4.057  51.028  1.00  0.00     0.037 A 
HETATM   22  C19 UNL     1      19.362   4.401  49.697  1.00  0.00     0.003 A 
HETATM   23  C20 UNL     1      20.544   4.172  49.027  1.00  0.00     0.010 A 
HETATM   24  C21 UNL     1      21.702   3.626  49.540  1.00  0.00    -0.016 A 
HETATM   25  H12 UNL     1      22.895   0.571  51.349  1.00  0.00     0.160 HD
ENDROOT
BRANCH  20  26
HETATM   26  O1  UNL     1      20.307   3.184  52.927  1.00  0.00    -0.360 OA
HETATM   27  H16 UNL     1      19.475   3.541  53.362  1.00  0.00     0.217 HD
ENDBRANCH  20  26
TORSDOF 1
ENDMDL
MODEL 8
REMARK VINA RESULT:      -8.2      2.902      6.662
REMARK  1 active torsions:
REMARK  status: ('A' for Active; 'I' for Inactive)
REMARK    1  A    between atoms: C17_20  and  O1_21 
ROOT
HETATM    1  C1  UNL     1      22.217   5.764  46.116  1.00  0.00     0.042 C 
HETATM    2  C2  UNL     1      22.648   5.683  47.594  1.00  0.00     0.079 C 
HETATM    3 CL1  UNL     1      21.450   6.695  48.489  1.00  0.00    -0.110 Cl
HETATM    4  C3  UNL     1      22.591   4.285  48.055  1.00  0.00     0.003 C 
HETATM    5  C4  UNL     1      22.488   2.997  48.259  1.00  0.00    -0.002 C 
HETATM    6  C5  UNL     1      22.606   2.000  49.303  1.00  0.00    -0.003 C 
HETATM    7  C6  UNL     1      22.870   1.840  50.575  1.00  0.00    -0.013 C 
HETATM    8  C7  UNL     1      23.094   1.227  51.898  1.00  0.00     0.071 C 
HETATM    9  C8  UNL     1      23.049   2.335  52.930  1.00  0.00    -0.015 C 
HETATM   10  C9  UNL     1      23.719   3.487  52.665  1.00  0.00     0.001 C 
HETATM   11  C10 UNL     1      24.932   3.927  51.926  1.00  0.00     0.157 C 
HETATM   12  N1  UNL     1      24.602   5.056  51.094  1.00  0.00    -0.376 N 
HETATM   13  C11 UNL     1      25.205   5.220  49.817  1.00  0.00     0.042 C 
HETATM   14  C12 UNL     1      26.236   4.395  49.546  1.00  0.00     0.032 C 
HETATM   15  C13 UNL     1      26.489   3.145  50.256  1.00  0.00     0.032 C 
HETATM   16  C14 UNL     1      25.616   2.832  51.233  1.00  0.00     0.060 C 
HETATM   17  N2  UNL     1      25.505   1.423  51.437  1.00  0.00    -0.266 NA
HETATM   18  C15 UNL     1      24.532   0.746  52.001  1.00  0.00     0.102 C 
HETATM   19  C16 UNL     1      24.960   6.126  48.708  1.00  0.00     0.032 A 
HETATM   20  C17 UNL     1      26.088   6.956  48.624  1.00  0.00     0.078 A 
HETATM   21  C18 UNL     1      26.292   7.997  47.703  1.00  0.00     0.037 A 
HETATM   22  C19 UNL     1      25.267   8.196  46.807  1.00  0.00     0.003 A 
HETATM   23  C20 UNL     1      24.163   7.375  46.896  1.00  0.00     0.010 A 
HETATM   24  C21 UNL     1      23.955   6.352  47.797  1.00  0.00    -0.016 A 
HETATM   25  H12 UNL     1      23.906   5.725  51.490  1.00  0.00     0.160 HD
ENDROOT
BRANCH  20  26
HETATM   26  O1  UNL     1      27.195   6.832  49.496  1.00  0.00    -0.360 OA
HETATM   27  H16 UNL     1      27.837   6.089  49.288  1.00  0.00     0.217 HD
ENDBRANCH  20  26
TORSDOF 1
ENDMDL
MODEL 9
REMARK VINA RESULT:      -8.1      2.379      4.082
REMARK  1 active torsions:
REMARK  status: ('A' for Active; 'I' for Inactive)
REMARK    1  A    between atoms: C17_20  and  O1_21 
ROOT
HETATM    1  C1  UNL     1      21.324   0.340  54.156  1.00  0.00     0.042 C 
HETATM    2  C2  UNL     1      21.797   0.779  52.756  1.00  0.00     0.079 C 
HETATM    3 CL1  UNL     1      21.167  -0.486  51.630  1.00  0.00    -0.110 Cl
HETATM    4  C3  UNL     1      21.225   2.096  52.425  1.00  0.00     0.003 C 
HETATM    5  C4  UNL     1      20.636   3.260  52.332  1.00  0.00    -0.002 C 
HETATM    6  C5  UNL     1      20.427   4.356  51.410  1.00  0.00    -0.003 C 
HETATM    7  C6  UNL     1      20.701   4.775  50.200  1.00  0.00    -0.013 C 
HETATM    8  C7  UNL     1      20.762   5.599  48.978  1.00  0.00     0.071 C 
HETATM    9  C8  UNL     1      21.236   4.709  47.849  1.00  0.00    -0.015 C 
HETATM   10  C9  UNL     1      22.286   3.879  48.083  1.00  0.00     0.001 C 
HETATM   11  C10 UNL     1      23.515   3.843  48.919  1.00  0.00     0.157 C 
HETATM   12  N1  UNL     1      23.598   2.573  49.594  1.00  0.00    -0.376 N 
HETATM   13  C11 UNL     1      24.119   2.483  50.914  1.00  0.00     0.042 C 
HETATM   14  C12 UNL     1      24.716   3.596  51.385  1.00  0.00     0.032 C 
HETATM   15  C13 UNL     1      24.505   4.932  50.833  1.00  0.00     0.032 C 
HETATM   16  C14 UNL     1      23.656   5.013  49.791  1.00  0.00     0.060 C 
HETATM   17  N2  UNL     1      23.011   6.284  49.708  1.00  0.00    -0.266 NA
HETATM   18  C15 UNL     1      21.895   6.605  49.097  1.00  0.00     0.102 C 
HETATM   19  C16 UNL     1      24.171   1.413  51.894  1.00  0.00     0.032 A 
HETATM   20  C17 UNL     1      25.526   1.077  52.036  1.00  0.00     0.078 A 
HETATM   21  C18 UNL     1      26.057   0.080  52.873  1.00  0.00     0.037 A 
HETATM   22  C19 UNL     1      25.130  -0.616  53.614  1.00  0.00     0.003 A 
HETATM   23  C20 UNL     1      23.801  -0.279  53.469  1.00  0.00     0.010 A 
HETATM   24  C21 UNL     1      23.273   0.697  52.650  1.00  0.00    -0.016 A 
HETATM   25  H12 UNL     1      23.256   1.748  49.055  1.00  0.00     0.160 HD
ENDROOT
BRANCH  20  26
HETATM   26  O1  UNL     1      26.555   1.733  51.321  1.00  0.00    -0.360 OA
HETATM   27  H16 UNL     1      26.311   2.066  50.406  1.00  0.00     0.217 HD
ENDBRANCH  20  26
TORSDOF 1
ENDMDL
