MODEL 1
REMARK VINA RESULT:      -8.7      0.000      0.000
REMARK  3 active torsions:
REMARK  status: ('A' for Active; 'I' for Inactive)
REMARK    1  A    between atoms: O1_2  and  C2_3 
REMARK    2  A    between atoms: C5_6  and  C6_7 
REMARK    3  A    between atoms: C9_13  and  O2_14 
ROOT
HETATM    1  C6  UNL     1      23.922   0.814  52.462  1.00  0.00     0.042 C 
HETATM    2  N1  UNL     1      23.305  -0.333  52.798  1.00  0.00    -0.180 NA
HETATM    3  C7  UNL     1      22.304  -0.875  53.671  1.00  0.00     0.208 A 
HETATM    4  S1  UNL     1      21.542   0.229  52.644  1.00  0.00     0.083 SA
HETATM    5  C8  UNL     1      19.906   0.246  53.091  1.00  0.00     0.370 A 
HETATM    6  N2  UNL     1      19.991  -0.543  53.942  1.00  0.00    -0.210 NA
HETATM    7  C9  UNL     1      21.151  -1.181  54.331  1.00  0.00     0.177 A 
HETATM    8  N3  UNL     1      20.461   1.224  51.997  1.00  0.00     0.029 N 
HETATM    9  C10 UNL     1      21.392   1.982  51.107  1.00  0.00     0.295 C 
HETATM   10  P1  UNL     1      23.077   2.149  51.630  1.00  0.00    -0.029 P 
HETATM   11  C11 UNL     1      23.152   3.543  52.500  1.00  0.00     0.015 C 
HETATM   12  C12 UNL     1      23.668   4.803  51.986  1.00  0.00     0.025 C 
HETATM   13  C13 UNL     1      24.284   4.856  50.825  1.00  0.00     0.034 C 
HETATM   14 CL1  UNL     1      24.806   6.485  50.462  1.00  0.00    -0.084 Cl
HETATM   15  C14 UNL     1      24.476   3.773  49.883  1.00  0.00     0.025 C 
HETATM   16  C15 UNL     1      24.005   2.565  50.129  1.00  0.00     0.015 C 
HETATM   17  H7  UNL     1      19.352   1.377  52.011  1.00  0.00     0.299 HD
ENDROOT
BRANCH   1  18
HETATM   18  C5  UNL     1      25.381   0.871  52.808  1.00  0.00    -0.013 A 
HETATM   19  C4  UNL     1      26.108  -0.265  52.597  1.00  0.00     0.016 A 
HETATM   20  C3  UNL     1      27.422  -0.263  52.930  1.00  0.00     0.037 A 
HETATM   21  C2  UNL     1      28.012   0.847  53.465  1.00  0.00     0.068 A 
HETATM   22  C17 UNL     1      27.262   1.973  53.666  1.00  0.00     0.037 A 
HETATM   23  C16 UNL     1      25.938   1.958  53.326  1.00  0.00     0.016 A 
BRANCH  21  24
HETATM   24  O1  UNL     1      29.358   0.764  53.776  1.00  0.00    -0.356 OA
HETATM   25  C1  UNL     1      30.012  -0.481  53.576  1.00  0.00     0.210 C 
ENDBRANCH  21  24
ENDBRANCH   1  18
BRANCH   7  26
HETATM   26  O2  UNL     1      22.019  -2.019  55.024  1.00  0.00    -0.346 OA
HETATM   27  H6  UNL     1      22.031  -2.031  56.039  1.00  0.00     0.219 HD
ENDBRANCH   7  26
TORSDOF 3
ENDMDL
MODEL 2
REMARK VINA RESULT:      -8.6      3.373      5.772
REMARK  3 active torsions:
REMARK  status: ('A' for Active; 'I' for Inactive)
REMARK    1  A    between atoms: O1_2  and  C2_3 
REMARK    2  A    between atoms: C5_6  and  C6_7 
REMARK    3  A    between atoms: C9_13  and  O2_14 
ROOT
HETATM    1  C6  UNL     1      25.759   3.015  51.057  1.00  0.00     0.042 C 
HETATM    2  N1  UNL     1      26.900   2.411  51.435  1.00  0.00    -0.180 NA
HETATM    3  C7  UNL     1      27.730   2.155  52.577  1.00  0.00     0.208 A 
HETATM    4  S1  UNL     1      26.241   1.404  52.849  1.00  0.00     0.083 SA
HETATM    5  C8  UNL     1      26.349   0.673  54.376  1.00  0.00     0.370 A 
HETATM    6  N2  UNL     1      27.442   0.998  54.604  1.00  0.00    -0.210 NA
HETATM    7  C9  UNL     1      28.245   1.752  53.772  1.00  0.00     0.177 A 
HETATM    8  N3  UNL     1      25.008   0.663  53.561  1.00  0.00     0.029 N 
HETATM    9  C10 UNL     1      23.974   0.946  52.519  1.00  0.00     0.295 C 
HETATM   10  P1  UNL     1      24.150   2.430  51.566  1.00  0.00    -0.029 P 
HETATM   11  C11 UNL     1      23.315   3.595  52.373  1.00  0.00     0.015 C 
HETATM   12  C12 UNL     1      21.986   4.058  51.998  1.00  0.00     0.025 C 
HETATM   13  C13 UNL     1      21.439   3.689  50.860  1.00  0.00     0.034 C 
HETATM   14 CL1  UNL     1      19.854   4.398  50.663  1.00  0.00    -0.084 Cl
HETATM   15  C14 UNL     1      21.980   2.764  49.885  1.00  0.00     0.025 C 
HETATM   16  C15 UNL     1      23.142   2.169  50.082  1.00  0.00     0.015 C 
HETATM   17  H7  UNL     1      24.823   0.028  54.464  1.00  0.00     0.299 HD
ENDROOT
BRANCH   1  18
HETATM   18  C5  UNL     1      25.940   4.195  50.148  1.00  0.00    -0.013 A 
HETATM   19  C4  UNL     1      27.043   4.189  49.345  1.00  0.00     0.016 A 
HETATM   20  C3  UNL     1      27.260   5.254  48.535  1.00  0.00     0.037 A 
HETATM   21  C2  UNL     1      26.397   6.313  48.517  1.00  0.00     0.068 A 
HETATM   22  C17 UNL     1      25.298   6.294  49.330  1.00  0.00     0.037 A 
HETATM   23  C16 UNL     1      25.091   5.214  50.143  1.00  0.00     0.016 A 
BRANCH  21  24
HETATM   24  O1  UNL     1      26.692   7.359  47.660  1.00  0.00    -0.356 OA
HETATM   25  C1  UNL     1      28.057   7.605  47.356  1.00  0.00     0.210 C 
ENDBRANCH  21  24
ENDBRANCH   1  18
BRANCH   7  26
HETATM   26  O2  UNL     1      29.350   2.447  53.291  1.00  0.00    -0.346 OA
HETATM   27  H6  UNL     1      29.249   3.135  52.551  1.00  0.00     0.219 HD
ENDBRANCH   7  26
TORSDOF 3
ENDMDL
MODEL 3
REMARK VINA RESULT:      -7.9      3.523      6.273
REMARK  3 active torsions:
REMARK  status: ('A' for Active; 'I' for Inactive)
REMARK    1  A    between atoms: O1_2  and  C2_3 
REMARK    2  A    between atoms: C5_6  and  C6_7 
REMARK    3  A    between atoms: C9_13  and  O2_14 
ROOT
HETATM    1  C6  UNL     1      23.911   1.893  51.468  1.00  0.00     0.042 C 
HETATM    2  N1  UNL     1      23.256   2.626  50.550  1.00  0.00    -0.180 NA
HETATM    3  C7  UNL     1      22.840   3.965  50.246  1.00  0.00     0.208 A 
HETATM    4  S1  UNL     1      24.529   3.948  50.272  1.00  0.00     0.083 SA
HETATM    5  C8  UNL     1      25.025   5.536  49.942  1.00  0.00     0.370 A 
HETATM    6  N2  UNL     1      23.960   5.989  49.823  1.00  0.00    -0.210 NA
HETATM    7  C9  UNL     1      22.775   5.295  49.955  1.00  0.00     0.177 A 
HETATM    8  N3  UNL     1      26.064   4.417  50.303  1.00  0.00     0.029 N 
HETATM    9  C10 UNL     1      26.662   3.119  50.739  1.00  0.00     0.295 C 
HETATM   10  P1  UNL     1      25.668   2.051  51.746  1.00  0.00    -0.029 P 
HETATM   11  C11 UNL     1      25.996   2.456  53.306  1.00  0.00     0.015 C 
HETATM   12  C12 UNL     1      26.880   1.698  54.180  1.00  0.00     0.025 C 
HETATM   13  C13 UNL     1      27.337   0.518  53.819  1.00  0.00     0.034 C 
HETATM   14 CL1  UNL     1      28.361  -0.168  55.058  1.00  0.00    -0.084 Cl
HETATM   15  C14 UNL     1      27.128  -0.154  52.553  1.00  0.00     0.025 C 
HETATM   16  C15 UNL     1      26.421   0.409  51.591  1.00  0.00     0.015 C 
HETATM   17  H7  UNL     1      26.668   5.321  50.033  1.00  0.00     0.299 HD
ENDROOT
BRANCH   1  18
HETATM   18  C5  UNL     1      23.059   0.910  52.217  1.00  0.00    -0.013 A 
HETATM   19  C4  UNL     1      21.802   0.692  51.732  1.00  0.00     0.016 A 
HETATM   20  C3  UNL     1      20.990  -0.163  52.401  1.00  0.00     0.037 A 
HETATM   21  C2  UNL     1      21.415  -0.797  53.534  1.00  0.00     0.068 A 
HETATM   22  C17 UNL     1      22.679  -0.562  53.998  1.00  0.00     0.037 A 
HETATM   23  C16 UNL     1      23.488   0.303  53.315  1.00  0.00     0.016 A 
BRANCH  21  24
HETATM   24  O1  UNL     1      20.522  -1.654  54.155  1.00  0.00    -0.356 OA
HETATM   25  C1  UNL     1      19.178  -1.661  53.697  1.00  0.00     0.210 C 
ENDBRANCH  21  24
ENDBRANCH   1  18
BRANCH   7  26
HETATM   26  O2  UNL     1      21.412   5.021  49.992  1.00  0.00    -0.346 OA
HETATM   27  H6  UNL     1      21.060   4.098  49.758  1.00  0.00     0.219 HD
ENDBRANCH   7  26
TORSDOF 3
ENDMDL
MODEL 4
REMARK VINA RESULT:      -7.9      8.664     11.109
REMARK  3 active torsions:
REMARK  status: ('A' for Active; 'I' for Inactive)
REMARK    1  A    between atoms: O1_2  and  C2_3 
REMARK    2  A    between atoms: C5_6  and  C6_7 
REMARK    3  A    between atoms: C9_13  and  O2_14 
ROOT
HETATM    1  C6  UNL     1      30.612   6.129  48.043  1.00  0.00     0.042 C 
HETATM    2  N1  UNL     1      31.070   4.868  47.948  1.00  0.00    -0.180 NA
HETATM    3  C7  UNL     1      31.726   3.959  47.054  1.00  0.00     0.208 A 
HETATM    4  S1  UNL     1      32.794   5.230  47.361  1.00  0.00     0.083 SA
HETATM    5  C8  UNL     1      34.195   4.902  46.463  1.00  0.00     0.370 A 
HETATM    6  N2  UNL     1      33.828   3.900  46.000  1.00  0.00    -0.210 NA
HETATM    7  C9  UNL     1      32.596   3.319  46.222  1.00  0.00     0.177 A 
HETATM    8  N3  UNL     1      34.040   6.238  47.271  1.00  0.00     0.029 N 
HETATM    9  C10 UNL     1      33.460   7.349  48.086  1.00  0.00     0.295 C 
HETATM   10  P1  UNL     1      31.699   7.546  48.073  1.00  0.00    -0.029 P 
HETATM   11  C11 UNL     1      31.363   8.588  46.845  1.00  0.00     0.015 C 
HETATM   12  C12 UNL     1      31.060  10.000  47.029  1.00  0.00     0.025 C 
HETATM   13  C13 UNL     1      30.856  10.495  48.231  1.00  0.00     0.034 C 
HETATM   14 CL1  UNL     1      30.502  12.205  48.156  1.00  0.00    -0.084 Cl
HETATM   15  C14 UNL     1      30.967   9.800  49.497  1.00  0.00     0.025 C 
HETATM   16  C15 UNL     1      31.316   8.528  49.548  1.00  0.00     0.015 C 
HETATM   17  H7  UNL     1      35.086   6.241  46.871  1.00  0.00     0.299 HD
ENDROOT
BRANCH   1  18
HETATM   18  C5  UNL     1      29.120   6.253  48.156  1.00  0.00    -0.013 A 
HETATM   19  C4  UNL     1      28.442   5.144  48.572  1.00  0.00     0.016 A 
HETATM   20  C3  UNL     1      27.091   5.205  48.654  1.00  0.00     0.037 A 
HETATM   21  C2  UNL     1      26.415   6.347  48.328  1.00  0.00     0.068 A 
HETATM   22  C17 UNL     1      27.118   7.444  47.914  1.00  0.00     0.037 A 
HETATM   23  C16 UNL     1      28.482   7.370  47.836  1.00  0.00     0.016 A 
BRANCH  21  24
HETATM   24  O1  UNL     1      25.036   6.324  48.439  1.00  0.00    -0.356 OA
HETATM   25  C1  UNL     1      24.438   5.203  49.074  1.00  0.00     0.210 C 
ENDBRANCH  21  24
ENDBRANCH   1  18
BRANCH   7  26
HETATM   26  O2  UNL     1      31.539   2.417  46.154  1.00  0.00    -0.346 OA
HETATM   27  H6  UNL     1      31.471   1.644  46.808  1.00  0.00     0.219 HD
ENDBRANCH   7  26
TORSDOF 3
ENDMDL
MODEL 5
REMARK VINA RESULT:      -7.8      2.537      5.947
REMARK  3 active torsions:
REMARK  status: ('A' for Active; 'I' for Inactive)
REMARK    1  A    between atoms: O1_2  and  C2_3 
REMARK    2  A    between atoms: C5_6  and  C6_7 
REMARK    3  A    between atoms: C9_13  and  O2_14 
ROOT
HETATM    1  C6  UNL     1      23.010   1.206  52.797  1.00  0.00     0.042 C 
HETATM    2  N1  UNL     1      24.058   0.790  53.529  1.00  0.00    -0.180 NA
HETATM    3  C7  UNL     1      25.356   0.190  53.422  1.00  0.00     0.208 A 
HETATM    4  S1  UNL     1      25.415   1.677  52.625  1.00  0.00     0.083 SA
HETATM    5  C8  UNL     1      26.990   1.828  52.014  1.00  0.00     0.370 A 
HETATM    6  N2  UNL     1      27.390   0.814  52.419  1.00  0.00    -0.210 NA
HETATM    7  C9  UNL     1      26.658  -0.104  53.145  1.00  0.00     0.177 A 
HETATM    8  N3  UNL     1      25.888   2.900  51.699  1.00  0.00     0.029 N 
HETATM    9  C10 UNL     1      24.571   3.600  51.601  1.00  0.00     0.295 C 
HETATM   10  P1  UNL     1      23.104   2.611  51.699  1.00  0.00    -0.029 P 
HETATM   11  C11 UNL     1      22.729   2.192  50.153  1.00  0.00     0.015 C 
HETATM   12  C12 UNL     1      21.691   2.835  49.359  1.00  0.00     0.025 C 
HETATM   13  C13 UNL     1      20.852   3.687  49.908  1.00  0.00     0.034 C 
HETATM   14 CL1  UNL     1      19.710   4.293  48.732  1.00  0.00    -0.084 Cl
HETATM   15  C14 UNL     1      20.858   4.167  51.274  1.00  0.00     0.025 C 
HETATM   16  C15 UNL     1      21.776   3.766  52.133  1.00  0.00     0.015 C 
HETATM   17  H7  UNL     1      26.840   3.302  51.266  1.00  0.00     0.299 HD
ENDROOT
BRANCH   1  18
HETATM   18  C5  UNL     1      21.746   0.421  52.998  1.00  0.00    -0.013 A 
HETATM   19  C4  UNL     1      21.767  -0.538  53.969  1.00  0.00     0.016 A 
HETATM   20  C3  UNL     1      20.657  -1.292  54.158  1.00  0.00     0.037 A 
HETATM   21  C2  UNL     1      19.537  -1.101  53.397  1.00  0.00     0.068 A 
HETATM   22  C17 UNL     1      19.542  -0.133  52.432  1.00  0.00     0.037 A 
HETATM   23  C16 UNL     1      20.669   0.620  52.251  1.00  0.00     0.016 A 
BRANCH  21  24
HETATM   24  O1  UNL     1      18.448  -1.914  53.656  1.00  0.00    -0.356 OA
HETATM   25  C1  UNL     1      17.227  -1.622  52.991  1.00  0.00     0.210 C 
ENDBRANCH  21  24
ENDBRANCH   1  18
BRANCH   7  26
HETATM   26  O2  UNL     1      26.331  -1.252  53.859  1.00  0.00    -0.346 OA
HETATM   27  H6  UNL     1      27.055  -1.824  54.284  1.00  0.00     0.219 HD
ENDBRANCH   7  26
TORSDOF 3
ENDMDL
MODEL 6
REMARK VINA RESULT:      -7.7      3.688      5.643
REMARK  3 active torsions:
REMARK  status: ('A' for Active; 'I' for Inactive)
REMARK    1  A    between atoms: O1_2  and  C2_3 
REMARK    2  A    between atoms: C5_6  and  C6_7 
REMARK    3  A    between atoms: C9_13  and  O2_14 
ROOT
HETATM    1  C6  UNL     1      24.101   3.151  51.289  1.00  0.00     0.042 C 
HETATM    2  N1  UNL     1      24.988   4.143  51.091  1.00  0.00    -0.180 NA
HETATM    3  C7  UNL     1      25.663   4.879  50.061  1.00  0.00     0.208 A 
HETATM    4  S1  UNL     1      24.008   5.175  49.899  1.00  0.00     0.083 SA
HETATM    5  C8  UNL     1      23.838   6.211  48.567  1.00  0.00     0.370 A 
HETATM    6  N2  UNL     1      24.970   6.296  48.317  1.00  0.00    -0.210 NA
HETATM    7  C9  UNL     1      25.992   5.668  48.999  1.00  0.00     0.177 A 
HETATM    8  N3  UNL     1      22.585   5.634  49.314  1.00  0.00     0.029 N 
HETATM    9  C10 UNL     1      21.721   4.831  50.233  1.00  0.00     0.295 C 
HETATM   10  P1  UNL     1      22.376   3.306  50.855  1.00  0.00    -0.029 P 
HETATM   11  C11 UNL     1      21.917   2.141  49.788  1.00  0.00     0.015 C 
HETATM   12  C12 UNL     1      20.809   1.222  50.006  1.00  0.00     0.025 C 
HETATM   13  C13 UNL     1      20.209   1.152  51.175  1.00  0.00     0.034 C 
HETATM   14 CL1  UNL     1      18.928  -0.036  51.157  1.00  0.00    -0.084 Cl
HETATM   15  C14 UNL     1      20.467   1.969  52.343  1.00  0.00     0.025 C 
HETATM   16  C15 UNL     1      21.381   2.921  52.321  1.00  0.00     0.015 C 
HETATM   17  H7  UNL     1      22.185   6.358  48.560  1.00  0.00     0.299 HD
ENDROOT
BRANCH   1  18
HETATM   18  C5  UNL     1      24.665   1.918  51.933  1.00  0.00    -0.013 A 
HETATM   19  C4  UNL     1      25.937   1.569  51.583  1.00  0.00     0.016 A 
HETATM   20  C3  UNL     1      26.469   0.443  52.117  1.00  0.00     0.037 A 
HETATM   21  C2  UNL     1      25.754  -0.331  52.987  1.00  0.00     0.068 A 
HETATM   22  C17 UNL     1      24.482   0.041  53.322  1.00  0.00     0.037 A 
HETATM   23  C16 UNL     1      23.957   1.180  52.776  1.00  0.00     0.016 A 
BRANCH  21  24
HETATM   24  O1  UNL     1      26.373  -1.464  53.485  1.00  0.00    -0.356 OA
HETATM   25  C1  UNL     1      27.130  -2.259  52.586  1.00  0.00     0.210 C 
ENDBRANCH  21  24
ENDBRANCH   1  18
BRANCH   7  26
HETATM   26  O2  UNL     1      27.271   5.261  49.363  1.00  0.00    -0.346 OA
HETATM   27  H6  UNL     1      28.091   5.731  48.993  1.00  0.00     0.219 HD
ENDBRANCH   7  26
TORSDOF 3
ENDMDL
MODEL 7
REMARK VINA RESULT:      -7.5      3.542      5.715
REMARK  3 active torsions:
REMARK  status: ('A' for Active; 'I' for Inactive)
REMARK    1  A    between atoms: O1_2  and  C2_3 
REMARK    2  A    between atoms: C5_6  and  C6_7 
REMARK    3  A    between atoms: C9_13  and  O2_14 
ROOT
HETATM    1  C6  UNL     1      25.851   3.386  50.308  1.00  0.00     0.042 C 
HETATM    2  N1  UNL     1      26.729   2.570  50.918  1.00  0.00    -0.180 NA
HETATM    3  C7  UNL     1      27.157   2.119  52.210  1.00  0.00     0.208 A 
HETATM    4  S1  UNL     1      25.550   1.639  52.010  1.00  0.00     0.083 SA
HETATM    5  C8  UNL     1      25.111   0.836  53.437  1.00  0.00     0.370 A 
HETATM    6  N2  UNL     1      26.136   0.946  53.975  1.00  0.00    -0.210 NA
HETATM    7  C9  UNL     1      27.250   1.577  53.458  1.00  0.00     0.177 A 
HETATM    8  N3  UNL     1      24.064   1.105  52.300  1.00  0.00     0.029 N 
HETATM    9  C10 UNL     1      23.419   1.615  51.051  1.00  0.00     0.295 C 
HETATM   10  P1  UNL     1      24.091   3.082  50.318  1.00  0.00    -0.029 P 
HETATM   11  C11 UNL     1      23.267   4.343  50.978  1.00  0.00     0.015 C 
HETATM   12  C12 UNL     1      22.188   5.056  50.309  1.00  0.00     0.025 C 
HETATM   13  C13 UNL     1      21.924   4.842  49.038  1.00  0.00     0.034 C 
HETATM   14 CL1  UNL     1      20.592   5.835  48.495  1.00  0.00    -0.084 Cl
HETATM   15  C14 UNL     1      22.555   3.877  48.161  1.00  0.00     0.025 C 
HETATM   16  C15 UNL     1      23.503   3.073  48.603  1.00  0.00     0.015 C 
HETATM   17  H7  UNL     1      23.536   0.475  53.060  1.00  0.00     0.299 HD
ENDROOT
BRANCH   1  18
HETATM   18  C5  UNL     1      26.466   4.552  49.590  1.00  0.00    -0.013 A 
HETATM   19  C4  UNL     1      25.788   5.736  49.649  1.00  0.00     0.016 A 
HETATM   20  C3  UNL     1      26.294   6.804  48.985  1.00  0.00     0.037 A 
HETATM   21  C2  UNL     1      27.454   6.705  48.270  1.00  0.00     0.068 A 
HETATM   22  C17 UNL     1      28.113   5.508  48.227  1.00  0.00     0.037 A 
HETATM   23  C16 UNL     1      27.593   4.438  48.902  1.00  0.00     0.016 A 
BRANCH  21  24
HETATM   24  O1  UNL     1      27.900   7.843  47.621  1.00  0.00    -0.356 OA
HETATM   25  C1  UNL     1      28.121   9.010  48.400  1.00  0.00     0.210 C 
ENDBRANCH  21  24
ENDBRANCH   1  18
BRANCH   7  26
HETATM   26  O2  UNL     1      28.542   2.080  53.351  1.00  0.00    -0.346 OA
HETATM   27  H6  UNL     1      28.760   2.818  52.689  1.00  0.00     0.219 HD
ENDBRANCH   7  26
TORSDOF 3
ENDMDL
MODEL 8
REMARK VINA RESULT:      -7.3      3.461      6.284
REMARK  3 active torsions:
REMARK  status: ('A' for Active; 'I' for Inactive)
REMARK    1  A    between atoms: O1_2  and  C2_3 
REMARK    2  A    between atoms: C5_6  and  C6_7 
REMARK    3  A    between atoms: C9_13  and  O2_14 
ROOT
HETATM    1  C6  UNL     1      24.200   2.273  50.902  1.00  0.00     0.042 C 
HETATM    2  N1  UNL     1      25.509   2.025  51.087  1.00  0.00    -0.180 NA
HETATM    3  C7  UNL     1      26.564   2.135  52.052  1.00  0.00     0.208 A 
HETATM    4  S1  UNL     1      25.403   1.084  52.684  1.00  0.00     0.083 SA
HETATM    5  C8  UNL     1      25.969   0.612  54.211  1.00  0.00     0.370 A 
HETATM    6  N2  UNL     1      26.959   1.222  54.183  1.00  0.00    -0.210 NA
HETATM    7  C9  UNL     1      27.372   2.033  53.145  1.00  0.00     0.177 A 
HETATM    8  N3  UNL     1      24.558   0.164  53.692  1.00  0.00     0.029 N 
HETATM    9  C10 UNL     1      23.319   0.043  52.864  1.00  0.00     0.295 C 
HETATM   10  P1  UNL     1      22.922   1.384  51.776  1.00  0.00    -0.029 P 
HETATM   11  C11 UNL     1      21.962   2.404  52.637  1.00  0.00     0.015 C 
HETATM   12  C12 UNL     1      20.513   2.473  52.506  1.00  0.00     0.025 C 
HETATM   13  C13 UNL     1      19.893   1.833  51.538  1.00  0.00     0.034 C 
HETATM   14 CL1  UNL     1      18.167   2.098  51.612  1.00  0.00    -0.084 Cl
HETATM   15  C14 UNL     1      20.480   0.948  50.553  1.00  0.00     0.025 C 
HETATM   16  C15 UNL     1      21.774   0.688  50.557  1.00  0.00     0.015 C 
HETATM   17  H7  UNL     1      24.711  -0.372  54.663  1.00  0.00     0.299 HD
ENDROOT
BRANCH   1  18
HETATM   18  C5  UNL     1      23.896   3.330  49.880  1.00  0.00    -0.013 A 
HETATM   19  C4  UNL     1      24.491   4.546  50.058  1.00  0.00     0.016 A 
HETATM   20  C3  UNL     1      24.214   5.537  49.176  1.00  0.00     0.037 A 
HETATM   21  C2  UNL     1      23.359   5.331  48.130  1.00  0.00     0.068 A 
HETATM   22  C17 UNL     1      22.776   4.104  47.974  1.00  0.00     0.037 A 
HETATM   23  C16 UNL     1      23.064   3.113  48.871  1.00  0.00     0.016 A 
BRANCH  21  24
HETATM   24  O1  UNL     1      23.131   6.397  47.277  1.00  0.00    -0.356 OA
HETATM   25  C1  UNL     1      22.055   6.295  46.357  1.00  0.00     0.210 C 
ENDBRANCH  21  24
ENDBRANCH   1  18
BRANCH   7  26
HETATM   26  O2  UNL     1      28.148   2.908  52.393  1.00  0.00    -0.346 OA
HETATM   27  H6  UNL     1      28.525   3.755  52.806  1.00  0.00     0.219 HD
ENDBRANCH   7  26
TORSDOF 3
ENDMDL
MODEL 9
REMARK VINA RESULT:      -7.2      2.210      3.105
REMARK  3 active torsions:
REMARK  status: ('A' for Active; 'I' for Inactive)
REMARK    1  A    between atoms: O1_2  and  C2_3 
REMARK    2  A    between atoms: C5_6  and  C6_7 
REMARK    3  A    between atoms: C9_13  and  O2_14 
ROOT
HETATM    1  C6  UNL     1      21.310   1.024  51.737  1.00  0.00     0.042 C 
HETATM    2  N1  UNL     1      20.338   0.106  51.591  1.00  0.00    -0.180 NA
HETATM    3  C7  UNL     1      18.989  -0.196  51.977  1.00  0.00     0.208 A 
HETATM    4  S1  UNL     1      18.954   1.230  51.073  1.00  0.00     0.083 SA
HETATM    5  C8  UNL     1      17.330   1.717  51.016  1.00  0.00     0.370 A 
HETATM    6  N2  UNL     1      16.902   0.832  51.637  1.00  0.00    -0.210 NA
HETATM    7  C9  UNL     1      17.642  -0.199  52.180  1.00  0.00     0.177 A 
HETATM    8  N3  UNL     1      18.468   2.605  50.401  1.00  0.00     0.029 N 
HETATM    9  C10 UNL     1      19.816   3.135  50.031  1.00  0.00     0.295 C 
HETATM   10  P1  UNL     1      21.192   2.666  51.045  1.00  0.00    -0.029 P 
HETATM   11  C11 UNL     1      21.318   3.820  52.210  1.00  0.00     0.015 C 
HETATM   12  C12 UNL     1      22.292   4.902  52.189  1.00  0.00     0.025 C 
HETATM   13  C13 UNL     1      23.268   4.914  51.307  1.00  0.00     0.034 C 
HETATM   14 CL1  UNL     1      24.290   6.316  51.517  1.00  0.00    -0.084 Cl
HETATM   15  C14 UNL     1      23.487   3.973  50.228  1.00  0.00     0.025 C 
HETATM   16  C15 UNL     1      22.661   2.963  50.026  1.00  0.00     0.015 C 
HETATM   17  H7  UNL     1      17.506   3.109  50.129  1.00  0.00     0.299 HD
ENDROOT
BRANCH   1  18
HETATM   18  C5  UNL     1      22.516   0.551  52.495  1.00  0.00    -0.013 A 
HETATM   19  C4  UNL     1      23.729   1.008  52.067  1.00  0.00     0.016 A 
HETATM   20  C3  UNL     1      24.845   0.577  52.705  1.00  0.00     0.037 A 
HETATM   21  C2  UNL     1      24.765  -0.296  53.753  1.00  0.00     0.068 A 
HETATM   22  C17 UNL     1      23.538  -0.739  54.162  1.00  0.00     0.037 A 
HETATM   23  C16 UNL     1      22.420  -0.296  53.511  1.00  0.00     0.016 A 
BRANCH  21  24
HETATM   24  O1  UNL     1      25.952  -0.686  54.347  1.00  0.00    -0.356 OA
HETATM   25  C1  UNL     1      26.836   0.330  54.798  1.00  0.00     0.210 C 
ENDBRANCH  21  24
ENDBRANCH   1  18
BRANCH   7  26
HETATM   26  O2  UNL     1      17.960  -1.364  52.869  1.00  0.00    -0.346 OA
HETATM   27  H6  UNL     1      17.506  -2.243  52.642  1.00  0.00     0.219 HD
ENDBRANCH   7  26
TORSDOF 3
ENDMDL
