MODEL 1
REMARK VINA RESULT:      -7.9      0.000      0.000
REMARK  6 active torsions:
REMARK  status: ('A' for Active; 'I' for Inactive)
REMARK    1  A    between atoms: C2_2  and  C3_3 
REMARK    2  A    between atoms: C2_2  and  C8_9 
REMARK    3  A    between atoms: C4_4  and  C5_5 
REMARK    4  A    between atoms: C6_6  and  C7_7 
REMARK    5  A    between atoms: C7_7  and  N1_8 
REMARK    6  A    between atoms: C11_14  and  C12_15 
ROOT
HETATM    1  C8  UNL     1      21.271   0.358  53.020  1.00  0.00     0.079 A 
HETATM    2  N2  UNL     1      20.261  -0.459  53.307  1.00  0.00    -0.240 NA
HETATM    3  C9  UNL     1      20.302  -1.464  54.191  1.00  0.00     0.233 A 
HETATM    4  N3  UNL     1      21.452  -1.678  54.848  1.00  0.00    -0.253 NA
HETATM    5  C10 UNL     1      22.522  -0.897  54.617  1.00  0.00     0.132 A 
HETATM    6  C11 UNL     1      22.436   0.127  53.701  1.00  0.00     0.013 A 
ENDROOT
BRANCH   6   7
HETATM    7  C12 UNL     1      23.563   0.980  53.503  1.00  0.00     0.040 C 
HETATM    8  C13 UNL     1      24.700   0.542  52.922  1.00  0.00     0.006 C 
HETATM    9  C14 UNL     1      24.942  -0.839  52.419  1.00  0.00     0.057 C 
HETATM   10  N5  UNL     1      25.786   1.483  52.775  1.00  0.00    -0.381 N 
HETATM   11  C15 UNL     1      25.978  -1.562  53.248  1.00  0.00     0.010 C 
HETATM   12  C16 UNL     1      27.328  -1.303  52.633  1.00  0.00     0.038 C 
HETATM   13  C17 UNL     1      27.768   0.082  52.935  1.00  0.00    -0.038 A 
HETATM   14  C18 UNL     1      28.843  -0.027  53.738  1.00  0.00     0.092 A 
HETATM   15  C21 UNL     1      27.190   1.357  52.479  1.00  0.00     0.136 A 
HETATM   16  N4  UNL     1      29.472   1.168  54.183  1.00  0.00    -0.375 N 
HETATM   17  C19 UNL     1      29.051   2.481  53.843  1.00  0.00     0.086 A 
HETATM   18  H19 UNL     1      30.314   1.067  54.811  1.00  0.00     0.164 HD
HETATM   19  C20 UNL     1      27.988   2.467  53.052  1.00  0.00     0.019 A 
HETATM   20  H23 UNL     1      25.504   2.503  52.914  1.00  0.00     0.160 HD
ENDBRANCH   6   7
BRANCH   1  21
HETATM   21  C2  UNL     1      21.080   1.396  52.020  1.00  0.00    -0.015 C 
HETATM   22  C1  UNL     1      20.363   2.450  52.371  1.00  0.00     0.026 C 
BRANCH  21  23
HETATM   23  C3  UNL     1      21.654   1.284  50.704  1.00  0.00     0.022 C 
HETATM   24  C4  UNL     1      22.563   1.744  49.888  1.00  0.00     0.065 C 
BRANCH  24  25
HETATM   25  C5  UNL     1      23.575   2.763  49.995  1.00  0.00    -0.077 C 
HETATM   26  C6  UNL     1      24.425   3.618  50.088  1.00  0.00    -0.072 C 
BRANCH  26  27
HETATM   27  C7  UNL     1      25.429   4.657  50.214  1.00  0.00     0.360 C 
BRANCH  27  28
HETATM   28  N1  UNL     1      26.779   4.126  50.156  1.00  0.00     0.089 N 
HETATM   29  H7  UNL     1      27.152   4.056  51.133  1.00  0.00     0.313 HD
HETATM   30  H8  UNL     1      27.393   4.772  49.621  1.00  0.00     0.313 HD
ENDBRANCH  27  28
ENDBRANCH  26  27
ENDBRANCH  24  25
ENDBRANCH  21  23
ENDBRANCH   1  21
TORSDOF 6
ENDMDL
MODEL 2
REMARK VINA RESULT:      -7.9      2.015      6.287
REMARK  6 active torsions:
REMARK  status: ('A' for Active; 'I' for Inactive)
REMARK    1  A    between atoms: C2_2  and  C3_3 
REMARK    2  A    between atoms: C2_2  and  C8_9 
REMARK    3  A    between atoms: C4_4  and  C5_5 
REMARK    4  A    between atoms: C6_6  and  C7_7 
REMARK    5  A    between atoms: C7_7  and  N1_8 
REMARK    6  A    between atoms: C11_14  and  C12_15 
ROOT
HETATM    1  C8  UNL     1      27.183   0.264  53.685  1.00  0.00     0.079 A 
HETATM    2  N2  UNL     1      28.411  -0.138  54.003  1.00  0.00    -0.240 NA
HETATM    3  C9  UNL     1      29.439   0.669  54.296  1.00  0.00     0.233 A 
HETATM    4  N3  UNL     1      29.228   1.993  54.268  1.00  0.00    -0.253 NA
HETATM    5  C10 UNL     1      28.015   2.482  53.957  1.00  0.00     0.132 A 
HETATM    6  C11 UNL     1      26.984   1.618  53.663  1.00  0.00     0.013 A 
ENDROOT
BRANCH   6   7
HETATM    7  C12 UNL     1      25.689   2.148  53.385  1.00  0.00     0.040 C 
HETATM    8  C13 UNL     1      25.294   2.452  52.131  1.00  0.00     0.006 C 
HETATM    9  C14 UNL     1      26.114   2.288  50.898  1.00  0.00     0.057 C 
HETATM   10  N5  UNL     1      23.965   2.991  51.956  1.00  0.00    -0.381 N 
HETATM   11  C15 UNL     1      26.491   3.621  50.295  1.00  0.00     0.010 C 
HETATM   12  C16 UNL     1      25.420   4.003  49.307  1.00  0.00     0.038 C 
HETATM   13  C17 UNL     1      24.200   4.450  50.024  1.00  0.00    -0.038 A 
HETATM   14  C18 UNL     1      24.055   5.759  49.747  1.00  0.00     0.092 A 
HETATM   15  C21 UNL     1      23.290   3.670  50.879  1.00  0.00     0.136 A 
HETATM   16  N4  UNL     1      22.949   6.447  50.315  1.00  0.00    -0.375 N 
HETATM   17  C19 UNL     1      21.974   5.854  51.162  1.00  0.00     0.086 A 
HETATM   18  H19 UNL     1      22.847   7.473  50.089  1.00  0.00     0.164 HD
HETATM   19  C20 UNL     1      22.216   4.567  51.365  1.00  0.00     0.019 A 
HETATM   20  H23 UNL     1      23.327   2.868  52.803  1.00  0.00     0.160 HD
ENDBRANCH   6   7
BRANCH   1  21
HETATM   21  C2  UNL     1      26.172  -0.733  53.373  1.00  0.00    -0.015 C 
HETATM   22  C1  UNL     1      26.407  -1.534  52.346  1.00  0.00     0.026 C 
BRANCH  21  23
HETATM   23  C3  UNL     1      24.967  -0.850  54.152  1.00  0.00     0.022 C 
HETATM   24  C4  UNL     1      23.669  -0.702  54.150  1.00  0.00     0.065 C 
BRANCH  24  25
HETATM   25  C5  UNL     1      22.716  -0.272  53.161  1.00  0.00    -0.077 C 
HETATM   26  C6  UNL     1      21.919   0.092  52.327  1.00  0.00    -0.072 C 
BRANCH  26  27
HETATM   27  C7  UNL     1      20.966   0.551  51.336  1.00  0.00     0.360 C 
BRANCH  27  28
HETATM   28  N1  UNL     1      21.553   0.643  50.011  1.00  0.00     0.089 N 
HETATM   29  H7  UNL     1      21.075  -0.050  49.386  1.00  0.00     0.313 HD
HETATM   30  H8  UNL     1      22.563   0.401  50.050  1.00  0.00     0.313 HD
ENDBRANCH  27  28
ENDBRANCH  26  27
ENDBRANCH  24  25
ENDBRANCH  21  23
ENDBRANCH   1  21
TORSDOF 6
ENDMDL
MODEL 3
REMARK VINA RESULT:      -7.9      1.851      5.290
REMARK  6 active torsions:
REMARK  status: ('A' for Active; 'I' for Inactive)
REMARK    1  A    between atoms: C2_2  and  C3_3 
REMARK    2  A    between atoms: C2_2  and  C8_9 
REMARK    3  A    between atoms: C4_4  and  C5_5 
REMARK    4  A    between atoms: C6_6  and  C7_7 
REMARK    5  A    between atoms: C7_7  and  N1_8 
REMARK    6  A    between atoms: C11_14  and  C12_15 
ROOT
HETATM    1  C8  UNL     1      24.711   3.849  50.790  1.00  0.00     0.079 A 
HETATM    2  N2  UNL     1      24.674   5.084  50.296  1.00  0.00    -0.240 NA
HETATM    3  C9  UNL     1      25.602   5.630  49.501  1.00  0.00     0.233 A 
HETATM    4  N3  UNL     1      26.665   4.881  49.168  1.00  0.00    -0.253 NA
HETATM    5  C10 UNL     1      26.780   3.622  49.625  1.00  0.00     0.132 A 
HETATM    6  C11 UNL     1      25.801   3.099  50.440  1.00  0.00     0.013 A 
ENDROOT
BRANCH   6   7
HETATM    7  C12 UNL     1      25.909   1.744  50.876  1.00  0.00     0.040 C 
HETATM    8  C13 UNL     1      26.434   1.418  52.076  1.00  0.00     0.006 C 
HETATM    9  C14 UNL     1      26.957   2.380  53.086  1.00  0.00     0.057 C 
HETATM   10  N5  UNL     1      26.505   0.017  52.420  1.00  0.00    -0.381 N 
HETATM   11  C15 UNL     1      28.456   2.265  53.243  1.00  0.00     0.010 C 
HETATM   12  C16 UNL     1      28.732   1.261  54.331  1.00  0.00     0.038 C 
HETATM   13  C17 UNL     1      28.482  -0.114  53.832  1.00  0.00    -0.038 A 
HETATM   14  C18 UNL     1      29.676  -0.734  53.810  1.00  0.00     0.092 A 
HETATM   15  C21 UNL     1      27.209  -0.735  53.428  1.00  0.00     0.136 A 
HETATM   16  N4  UNL     1      29.724  -2.084  53.367  1.00  0.00    -0.375 N 
HETATM   17  C19 UNL     1      28.598  -2.837  52.940  1.00  0.00     0.086 A 
HETATM   18  H19 UNL     1      30.667  -2.557  53.356  1.00  0.00     0.164 HD
HETATM   19  C20 UNL     1      27.480  -2.128  53.003  1.00  0.00     0.019 A 
HETATM   20  H23 UNL     1      25.911  -0.618  51.801  1.00  0.00     0.160 HD
ENDBRANCH   6   7
BRANCH   1  21
HETATM   21  C2  UNL     1      23.634   3.402  51.658  1.00  0.00    -0.015 C 
HETATM   22  C1  UNL     1      23.456   4.060  52.792  1.00  0.00     0.026 C 
BRANCH  21  23
HETATM   23  C3  UNL     1      22.790   2.292  51.297  1.00  0.00     0.022 C 
HETATM   24  C4  UNL     1      22.330   1.129  51.670  1.00  0.00     0.065 C 
BRANCH  24  25
HETATM   25  C5  UNL     1      22.517   0.311  52.840  1.00  0.00    -0.077 C 
HETATM   26  C6  UNL     1      22.675  -0.380  53.820  1.00  0.00    -0.072 C 
BRANCH  26  27
HETATM   27  C7  UNL     1      22.842  -1.218  54.991  1.00  0.00     0.360 C 
BRANCH  27  28
HETATM   28  N1  UNL     1      24.214  -1.235  55.464  1.00  0.00     0.089 N 
HETATM   29  H7  UNL     1      24.215  -1.492  56.480  1.00  0.00     0.313 HD
HETATM   30  H8  UNL     1      24.636  -0.290  55.369  1.00  0.00     0.313 HD
ENDBRANCH  27  28
ENDBRANCH  26  27
ENDBRANCH  24  25
ENDBRANCH  21  23
ENDBRANCH   1  21
TORSDOF 6
ENDMDL
MODEL 4
REMARK VINA RESULT:      -7.8      2.433      3.827
REMARK  6 active torsions:
REMARK  status: ('A' for Active; 'I' for Inactive)
REMARK    1  A    between atoms: C2_2  and  C3_3 
REMARK    2  A    between atoms: C2_2  and  C8_9 
REMARK    3  A    between atoms: C4_4  and  C5_5 
REMARK    4  A    between atoms: C6_6  and  C7_7 
REMARK    5  A    between atoms: C7_7  and  N1_8 
REMARK    6  A    between atoms: C11_14  and  C12_15 
ROOT
HETATM    1  C8  UNL     1      22.156   4.253  50.377  1.00  0.00     0.079 A 
HETATM    2  N2  UNL     1      20.830   4.324  50.302  1.00  0.00    -0.240 NA
HETATM    3  C9  UNL     1      19.981   4.080  51.309  1.00  0.00     0.233 A 
HETATM    4  N3  UNL     1      20.498   3.732  52.497  1.00  0.00    -0.253 NA
HETATM    5  C10 UNL     1      21.829   3.638  52.658  1.00  0.00     0.132 A 
HETATM    6  C11 UNL     1      22.667   3.899  51.597  1.00  0.00     0.013 A 
ENDROOT
BRANCH   6   7
HETATM    7  C12 UNL     1      24.079   3.846  51.795  1.00  0.00     0.040 C 
HETATM    8  C13 UNL     1      24.755   2.678  51.815  1.00  0.00     0.006 C 
HETATM    9  C14 UNL     1      24.158   1.325  51.641  1.00  0.00     0.057 C 
HETATM   10  N5  UNL     1      26.183   2.732  52.030  1.00  0.00    -0.381 N 
HETATM   11  C15 UNL     1      24.222   0.517  52.917  1.00  0.00     0.010 C 
HETATM   12  C16 UNL     1      25.514  -0.258  52.911  1.00  0.00     0.038 C 
HETATM   13  C17 UNL     1      26.654   0.649  53.196  1.00  0.00    -0.038 A 
HETATM   14  C18 UNL     1      27.152   0.271  54.387  1.00  0.00     0.092 A 
HETATM   15  C21 UNL     1      27.183   1.755  52.381  1.00  0.00     0.136 A 
HETATM   16  N4  UNL     1      28.267   0.984  54.905  1.00  0.00    -0.375 N 
HETATM   17  C19 UNL     1      28.904   2.075  54.257  1.00  0.00     0.086 A 
HETATM   18  H19 UNL     1      28.648   0.676  55.840  1.00  0.00     0.164 HD
HETATM   19  C20 UNL     1      28.332   2.359  53.095  1.00  0.00     0.019 A 
HETATM   20  H23 UNL     1      26.609   3.702  51.906  1.00  0.00     0.160 HD
ENDBRANCH   6   7
BRANCH   1  21
HETATM   21  C2  UNL     1      22.948   4.530  49.189  1.00  0.00    -0.015 C 
HETATM   22  C1  UNL     1      23.093   3.548  48.316  1.00  0.00     0.026 C 
BRANCH  21  23
HETATM   23  C3  UNL     1      23.543   5.823  48.969  1.00  0.00     0.022 C 
HETATM   24  C4  UNL     1      24.658   6.467  48.753  1.00  0.00     0.065 C 
BRANCH  24  25
HETATM   25  C5  UNL     1      26.034   6.063  48.623  1.00  0.00    -0.077 C 
HETATM   26  C6  UNL     1      27.189   5.722  48.517  1.00  0.00    -0.072 C 
BRANCH  26  27
HETATM   27  C7  UNL     1      28.581   5.331  48.407  1.00  0.00     0.360 C 
BRANCH  27  28
HETATM   28  N1  UNL     1      29.479   6.334  48.950  1.00  0.00     0.089 N 
HETATM   29  H7  UNL     1      30.454   6.115  48.635  1.00  0.00     0.313 HD
HETATM   30  H8  UNL     1      29.460   6.304  49.989  1.00  0.00     0.313 HD
ENDBRANCH  27  28
ENDBRANCH  26  27
ENDBRANCH  24  25
ENDBRANCH  21  23
ENDBRANCH   1  21
TORSDOF 6
ENDMDL
MODEL 5
REMARK VINA RESULT:      -7.8      2.357      3.520
REMARK  6 active torsions:
REMARK  status: ('A' for Active; 'I' for Inactive)
REMARK    1  A    between atoms: C2_2  and  C3_3 
REMARK    2  A    between atoms: C2_2  and  C8_9 
REMARK    3  A    between atoms: C4_4  and  C5_5 
REMARK    4  A    between atoms: C6_6  and  C7_7 
REMARK    5  A    between atoms: C7_7  and  N1_8 
REMARK    6  A    between atoms: C11_14  and  C12_15 
ROOT
HETATM    1  C8  UNL     1      21.100   3.028  49.988  1.00  0.00     0.079 A 
HETATM    2  N2  UNL     1      19.774   3.131  50.031  1.00  0.00    -0.240 NA
HETATM    3  C9  UNL     1      19.049   3.363  51.133  1.00  0.00     0.233 A 
HETATM    4  N3  UNL     1      19.701   3.502  52.297  1.00  0.00    -0.253 NA
HETATM    5  C10 UNL     1      21.041   3.413  52.341  1.00  0.00     0.132 A 
HETATM    6  C11 UNL     1      21.749   3.175  51.184  1.00  0.00     0.013 A 
ENDROOT
BRANCH   6   7
HETATM    7  C12 UNL     1      23.174   3.134  51.236  1.00  0.00     0.040 C 
HETATM    8  C13 UNL     1      23.847   2.011  51.567  1.00  0.00     0.006 C 
HETATM    9  C14 UNL     1      23.231   0.699  51.912  1.00  0.00     0.057 C 
HETATM   10  N5  UNL     1      25.289   2.076  51.597  1.00  0.00    -0.381 N 
HETATM   11  C15 UNL     1      23.438   0.350  53.368  1.00  0.00     0.010 C 
HETATM   12  C16 UNL     1      24.720  -0.434  53.479  1.00  0.00     0.038 C 
HETATM   13  C17 UNL     1      25.886   0.470  53.325  1.00  0.00    -0.038 A 
HETATM   14  C18 UNL     1      26.516   0.483  54.514  1.00  0.00     0.092 A 
HETATM   15  C21 UNL     1      26.321   1.228  52.140  1.00  0.00     0.136 A 
HETATM   16  N4  UNL     1      27.685   1.281  54.646  1.00  0.00    -0.375 N 
HETATM   17  C19 UNL     1      28.246   2.075  53.611  1.00  0.00     0.086 A 
HETATM   18  H19 UNL     1      28.169   1.280  55.584  1.00  0.00     0.164 HD
HETATM   19  C20 UNL     1      27.545   1.986  52.490  1.00  0.00     0.019 A 
HETATM   20  H23 UNL     1      25.700   2.935  51.117  1.00  0.00     0.160 HD
ENDBRANCH   6   7
BRANCH   1  21
HETATM   21  C2  UNL     1      21.747   2.756  48.715  1.00  0.00    -0.015 C 
HETATM   22  C1  UNL     1      21.831   1.491  48.336  1.00  0.00     0.026 C 
BRANCH  21  23
HETATM   23  C3  UNL     1      22.270   3.819  47.896  1.00  0.00     0.022 C 
HETATM   24  C4  UNL     1      22.812   5.007  47.898  1.00  0.00     0.065 C 
BRANCH  24  25
HETATM   25  C5  UNL     1      23.184   5.931  48.938  1.00  0.00    -0.077 C 
HETATM   26  C6  UNL     1      23.492   6.707  49.813  1.00  0.00    -0.072 C 
BRANCH  26  27
HETATM   27  C7  UNL     1      23.844   7.651  50.856  1.00  0.00     0.360 C 
BRANCH  27  28
HETATM   28  N1  UNL     1      24.445   7.000  52.006  1.00  0.00     0.089 N 
HETATM   29  H7  UNL     1      25.428   6.732  51.762  1.00  0.00     0.313 HD
HETATM   30  H8  UNL     1      23.921   6.133  52.240  1.00  0.00     0.313 HD
ENDBRANCH  27  28
ENDBRANCH  26  27
ENDBRANCH  24  25
ENDBRANCH  21  23
ENDBRANCH   1  21
TORSDOF 6
ENDMDL
MODEL 6
REMARK VINA RESULT:      -7.5      2.477      6.486
REMARK  6 active torsions:
REMARK  status: ('A' for Active; 'I' for Inactive)
REMARK    1  A    between atoms: C2_2  and  C3_3 
REMARK    2  A    between atoms: C2_2  and  C8_9 
REMARK    3  A    between atoms: C4_4  and  C5_5 
REMARK    4  A    between atoms: C6_6  and  C7_7 
REMARK    5  A    between atoms: C7_7  and  N1_8 
REMARK    6  A    between atoms: C11_14  and  C12_15 
ROOT
HETATM    1  C8  UNL     1      24.788   1.562  52.538  1.00  0.00     0.079 A 
HETATM    2  N2  UNL     1      24.625   0.248  52.668  1.00  0.00    -0.240 NA
HETATM    3  C9  UNL     1      23.478  -0.363  52.991  1.00  0.00     0.233 A 
HETATM    4  N3  UNL     1      22.396   0.401  53.206  1.00  0.00    -0.253 NA
HETATM    5  C10 UNL     1      22.476   1.738  53.095  1.00  0.00     0.132 A 
HETATM    6  C11 UNL     1      23.675   2.326  52.760  1.00  0.00     0.013 A 
ENDROOT
BRANCH   6   7
HETATM    7  C12 UNL     1      23.733   3.743  52.594  1.00  0.00     0.040 C 
HETATM    8  C13 UNL     1      23.297   4.351  51.471  1.00  0.00     0.006 C 
HETATM    9  C14 UNL     1      22.711   3.668  50.284  1.00  0.00     0.057 C 
HETATM   10  N5  UNL     1      23.407   5.789  51.400  1.00  0.00    -0.381 N 
HETATM   11  C15 UNL     1      23.620   3.762  49.080  1.00  0.00     0.010 C 
HETATM   12  C16 UNL     1      23.248   5.005  48.314  1.00  0.00     0.038 C 
HETATM   13  C17 UNL     1      23.740   6.210  49.027  1.00  0.00    -0.038 A 
HETATM   14  C18 UNL     1      24.685   6.756  48.240  1.00  0.00     0.092 A 
HETATM   15  C21 UNL     1      23.320   6.751  50.330  1.00  0.00     0.136 A 
HETATM   16  N4  UNL     1      25.331   7.940  48.690  1.00  0.00    -0.375 N 
HETATM   17  C19 UNL     1      25.054   8.598  49.918  1.00  0.00     0.086 A 
HETATM   18  H19 UNL     1      26.070   8.357  48.063  1.00  0.00     0.164 HD
HETATM   19  C20 UNL     1      24.109   7.974  50.608  1.00  0.00     0.019 A 
HETATM   20  H23 UNL     1      23.594   6.263  52.338  1.00  0.00     0.160 HD
ENDBRANCH   6   7
BRANCH   1  21
HETATM   21  C2  UNL     1      26.103   2.081  52.199  1.00  0.00    -0.015 C 
HETATM   22  C1  UNL     1      26.297   2.473  50.951  1.00  0.00     0.026 C 
BRANCH  21  23
HETATM   23  C3  UNL     1      27.151   2.171  53.183  1.00  0.00     0.022 C 
HETATM   24  C4  UNL     1      28.130   1.536  53.768  1.00  0.00     0.065 C 
BRANCH  24  25
HETATM   25  C5  UNL     1      28.674   0.209  53.643  1.00  0.00    -0.077 C 
HETATM   26  C6  UNL     1      29.131  -0.905  53.532  1.00  0.00    -0.072 C 
BRANCH  26  27
HETATM   27  C7  UNL     1      29.655  -2.250  53.395  1.00  0.00     0.360 C 
BRANCH  27  28
HETATM   28  N1  UNL     1      28.607  -3.229  53.170  1.00  0.00     0.089 N 
HETATM   29  H7  UNL     1      27.956  -3.214  53.991  1.00  0.00     0.313 HD
HETATM   30  H8  UNL     1      29.018  -4.181  53.099  1.00  0.00     0.313 HD
ENDBRANCH  27  28
ENDBRANCH  26  27
ENDBRANCH  24  25
ENDBRANCH  21  23
ENDBRANCH   1  21
TORSDOF 6
ENDMDL
MODEL 7
REMARK VINA RESULT:      -7.4      2.124      6.086
REMARK  6 active torsions:
REMARK  status: ('A' for Active; 'I' for Inactive)
REMARK    1  A    between atoms: C2_2  and  C3_3 
REMARK    2  A    between atoms: C2_2  and  C8_9 
REMARK    3  A    between atoms: C4_4  and  C5_5 
REMARK    4  A    between atoms: C6_6  and  C7_7 
REMARK    5  A    between atoms: C7_7  and  N1_8 
REMARK    6  A    between atoms: C11_14  and  C12_15 
ROOT
HETATM    1  C8  UNL     1      24.786   0.239  53.078  1.00  0.00     0.079 A 
HETATM    2  N2  UNL     1      25.512  -0.854  53.296  1.00  0.00    -0.240 NA
HETATM    3  C9  UNL     1      26.850  -0.905  53.323  1.00  0.00     0.233 A 
HETATM    4  N3  UNL     1      27.527   0.233  53.111  1.00  0.00    -0.253 NA
HETATM    5  C10 UNL     1      26.869   1.383  52.884  1.00  0.00     0.132 A 
HETATM    6  C11 UNL     1      25.493   1.392  52.867  1.00  0.00     0.013 A 
ENDROOT
BRANCH   6   7
HETATM    7  C12 UNL     1      24.806   2.629  52.676  1.00  0.00     0.040 C 
HETATM    8  C13 UNL     1      24.810   3.273  51.490  1.00  0.00     0.006 C 
HETATM    9  C14 UNL     1      25.499   2.813  50.252  1.00  0.00     0.057 C 
HETATM   10  N5  UNL     1      24.091   4.523  51.402  1.00  0.00    -0.381 N 
HETATM   11  C15 UNL     1      26.658   3.713  49.890  1.00  0.00     0.010 C 
HETATM   12  C16 UNL     1      26.141   4.792  48.976  1.00  0.00     0.038 C 
HETATM   13  C17 UNL     1      25.357   5.785  49.752  1.00  0.00    -0.038 A 
HETATM   14  C18 UNL     1      26.050   6.937  49.703  1.00  0.00     0.092 A 
HETATM   15  C21 UNL     1      24.074   5.608  50.454  1.00  0.00     0.136 A 
HETATM   16  N4  UNL     1      25.515   8.070  50.374  1.00  0.00    -0.375 N 
HETATM   17  C19 UNL     1      24.294   8.082  51.100  1.00  0.00     0.086 A 
HETATM   18  H19 UNL     1      26.069   8.968  50.327  1.00  0.00     0.164 HD
HETATM   19  C20 UNL     1      23.699   6.897  51.080  1.00  0.00     0.019 A 
HETATM   20  H23 UNL     1      23.417   4.700  52.211  1.00  0.00     0.160 HD
ENDBRANCH   6   7
BRANCH   1  21
HETATM   21  C2  UNL     1      23.336   0.134  53.061  1.00  0.00    -0.015 C 
HETATM   22  C1  UNL     1      22.752  -0.362  54.140  1.00  0.00     0.026 C 
BRANCH  21  23
HETATM   23  C3  UNL     1      22.566   0.558  51.921  1.00  0.00     0.022 C 
HETATM   24  C4  UNL     1      21.374   0.606  51.390  1.00  0.00     0.065 C 
BRANCH  24  25
HETATM   25  C5  UNL     1      20.073   0.162  51.817  1.00  0.00    -0.077 C 
HETATM   26  C6  UNL     1      18.979  -0.213  52.171  1.00  0.00    -0.072 C 
BRANCH  26  27
HETATM   27  C7  UNL     1      17.658  -0.647  52.581  1.00  0.00     0.360 C 
BRANCH  27  28
HETATM   28  N1  UNL     1      17.689  -1.416  53.812  1.00  0.00     0.089 N 
HETATM   29  H7  UNL     1      16.813  -1.218  54.352  1.00  0.00     0.313 HD
HETATM   30  H8  UNL     1      18.501  -1.126  54.394  1.00  0.00     0.313 HD
ENDBRANCH  27  28
ENDBRANCH  26  27
ENDBRANCH  24  25
ENDBRANCH  21  23
ENDBRANCH   1  21
TORSDOF 6
ENDMDL
MODEL 8
REMARK VINA RESULT:      -7.4      2.430      5.099
REMARK  6 active torsions:
REMARK  status: ('A' for Active; 'I' for Inactive)
REMARK    1  A    between atoms: C2_2  and  C3_3 
REMARK    2  A    between atoms: C2_2  and  C8_9 
REMARK    3  A    between atoms: C4_4  and  C5_5 
REMARK    4  A    between atoms: C6_6  and  C7_7 
REMARK    5  A    between atoms: C7_7  and  N1_8 
REMARK    6  A    between atoms: C11_14  and  C12_15 
ROOT
HETATM    1  C8  UNL     1      23.669   0.434  53.249  1.00  0.00     0.079 A 
HETATM    2  N2  UNL     1      24.253  -0.679  53.686  1.00  0.00    -0.240 NA
HETATM    3  C9  UNL     1      25.530  -0.783  54.075  1.00  0.00     0.233 A 
HETATM    4  N3  UNL     1      26.296   0.317  54.022  1.00  0.00    -0.253 NA
HETATM    5  C10 UNL     1      25.783   1.482  53.592  1.00  0.00     0.132 A 
HETATM    6  C11 UNL     1      24.464   1.547  53.203  1.00  0.00     0.013 A 
ENDROOT
BRANCH   6   7
HETATM    7  C12 UNL     1      23.918   2.802  52.798  1.00  0.00     0.040 C 
HETATM    8  C13 UNL     1      24.194   3.347  51.595  1.00  0.00     0.006 C 
HETATM    9  C14 UNL     1      25.071   2.749  50.549  1.00  0.00     0.057 C 
HETATM   10  N5  UNL     1      23.598   4.625  51.283  1.00  0.00    -0.381 N 
HETATM   11  C15 UNL     1      26.340   3.548  50.361  1.00  0.00     0.010 C 
HETATM   12  C16 UNL     1      26.086   4.578  49.292  1.00  0.00     0.038 C 
HETATM   13  C17 UNL     1      25.243   5.674  49.830  1.00  0.00    -0.038 A 
HETATM   14  C18 UNL     1      26.014   6.777  49.839  1.00  0.00     0.092 A 
HETATM   15  C21 UNL     1      23.841   5.629  50.278  1.00  0.00     0.136 A 
HETATM   16  N4  UNL     1      25.444   7.990  50.314  1.00  0.00    -0.375 N 
HETATM   17  C19 UNL     1      24.112   8.130  50.785  1.00  0.00     0.086 A 
HETATM   18  H19 UNL     1      26.061   8.846  50.315  1.00  0.00     0.164 HD
HETATM   19  C20 UNL     1      23.448   6.984  50.730  1.00  0.00     0.019 A 
HETATM   20  H23 UNL     1      22.797   4.906  51.931  1.00  0.00     0.160 HD
ENDBRANCH   6   7
BRANCH   1  21
HETATM   21  C2  UNL     1      22.273   0.388  52.843  1.00  0.00    -0.015 C 
HETATM   22  C1  UNL     1      21.364   0.610  53.777  1.00  0.00     0.026 C 
BRANCH  21  23
HETATM   23  C3  UNL     1      21.896   0.118  51.480  1.00  0.00     0.022 C 
HETATM   24  C4  UNL     1      21.471   0.640  50.361  1.00  0.00     0.065 C 
BRANCH  24  25
HETATM   25  C5  UNL     1      21.134   1.978  49.950  1.00  0.00    -0.077 C 
HETATM   26  C6  UNL     1      20.852   3.104  49.610  1.00  0.00    -0.072 C 
BRANCH  26  27
HETATM   27  C7  UNL     1      20.495   4.453  49.215  1.00  0.00     0.360 C 
BRANCH  27  28
HETATM   28  N1  UNL     1      20.167   5.290  50.355  1.00  0.00     0.089 N 
HETATM   29  H7  UNL     1      19.826   6.216  50.003  1.00  0.00     0.313 HD
HETATM   30  H8  UNL     1      21.016   5.455  50.932  1.00  0.00     0.313 HD
ENDBRANCH  27  28
ENDBRANCH  26  27
ENDBRANCH  24  25
ENDBRANCH  21  23
ENDBRANCH   1  21
TORSDOF 6
ENDMDL
MODEL 9
REMARK VINA RESULT:      -7.1      2.274      6.208
REMARK  6 active torsions:
REMARK  status: ('A' for Active; 'I' for Inactive)
REMARK    1  A    between atoms: C2_2  and  C3_3 
REMARK    2  A    between atoms: C2_2  and  C8_9 
REMARK    3  A    between atoms: C4_4  and  C5_5 
REMARK    4  A    between atoms: C6_6  and  C7_7 
REMARK    5  A    between atoms: C7_7  and  N1_8 
REMARK    6  A    between atoms: C11_14  and  C12_15 
ROOT
HETATM    1  C8  UNL     1      24.425   0.494  53.433  1.00  0.00     0.079 A 
HETATM    2  N2  UNL     1      25.119  -0.557  53.860  1.00  0.00    -0.240 NA
HETATM    3  C9  UNL     1      26.410  -0.542  54.217  1.00  0.00     0.233 A 
HETATM    4  N3  UNL     1      27.070   0.623  54.140  1.00  0.00    -0.253 NA
HETATM    5  C10 UNL     1      26.442   1.734  53.718  1.00  0.00     0.132 A 
HETATM    6  C11 UNL     1      25.113   1.675  53.362  1.00  0.00     0.013 A 
ENDROOT
BRANCH   6   7
HETATM    7  C12 UNL     1      24.445   2.872  52.965  1.00  0.00     0.040 C 
HETATM    8  C13 UNL     1      24.539   3.362  51.711  1.00  0.00     0.006 C 
HETATM    9  C14 UNL     1      25.319   2.755  50.596  1.00  0.00     0.057 C 
HETATM   10  N5  UNL     1      23.829   4.584  51.412  1.00  0.00    -0.381 N 
HETATM   11  C15 UNL     1      26.503   3.611  50.212  1.00  0.00     0.010 C 
HETATM   12  C16 UNL     1      26.057   4.562  49.132  1.00  0.00     0.038 C 
HETATM   13  C17 UNL     1      25.218   5.638  49.715  1.00  0.00    -0.038 A 
HETATM   14  C18 UNL     1      25.913   6.781  49.573  1.00  0.00     0.092 A 
HETATM   15  C21 UNL     1      23.886   5.540  50.335  1.00  0.00     0.136 A 
HETATM   16  N4  UNL     1      25.331   7.985  50.054  1.00  0.00    -0.375 N 
HETATM   17  C19 UNL     1      24.058   8.078  50.678  1.00  0.00     0.086 A 
HETATM   18  H19 UNL     1      25.887   8.874  49.935  1.00  0.00     0.164 HD
HETATM   19  C20 UNL     1      23.466   6.895  50.764  1.00  0.00     0.019 A 
HETATM   20  H23 UNL     1      23.097   4.855  52.139  1.00  0.00     0.160 HD
ENDBRANCH   6   7
BRANCH   1  21
HETATM   21  C2  UNL     1      23.030   0.317  53.063  1.00  0.00    -0.015 C 
HETATM   22  C1  UNL     1      22.744   0.288  51.772  1.00  0.00     0.026 C 
BRANCH  21  23
HETATM   23  C3  UNL     1      22.001   0.174  54.061  1.00  0.00     0.022 C 
HETATM   24  C4  UNL     1      20.731  -0.045  54.268  1.00  0.00     0.065 C 
BRANCH  24  25
HETATM   25  C5  UNL     1      19.606  -0.283  53.401  1.00  0.00    -0.077 C 
HETATM   26  C6  UNL     1      18.664  -0.483  52.670  1.00  0.00    -0.072 C 
BRANCH  26  27
HETATM   27  C7  UNL     1      17.540  -0.702  51.781  1.00  0.00     0.360 C 
BRANCH  27  28
HETATM   28  N1  UNL     1      16.510  -1.524  52.390  1.00  0.00     0.089 N 
HETATM   29  H7  UNL     1      16.307  -2.331  51.753  1.00  0.00     0.313 HD
HETATM   30  H8  UNL     1      15.636  -0.974  52.505  1.00  0.00     0.313 HD
ENDBRANCH  27  28
ENDBRANCH  26  27
ENDBRANCH  24  25
ENDBRANCH  21  23
ENDBRANCH   1  21
TORSDOF 6
ENDMDL
