MODEL 1
REMARK VINA RESULT:      -9.2      0.000      0.000
REMARK  1 active torsions:
REMARK  status: ('A' for Active; 'I' for Inactive)
REMARK    1  A    between atoms: C5_5  and  C6_6 
ROOT
HETATM    1  C6  UNL     1      23.177   0.641  53.038  1.00  0.00     0.044 C 
HETATM    2  C7  UNL     1      22.156  -0.047  53.521  1.00  0.00     0.125 C 
HETATM    3  C8  UNL     1      22.237  -1.065  54.553  1.00  0.00     0.110 C 
HETATM    4  N1  UNL     1      22.282  -1.892  55.393  1.00  0.00    -0.191 NA
HETATM    5  C9  UNL     1      20.752   0.052  53.128  1.00  0.00     0.110 C 
HETATM    6  N2  UNL     1      19.654   0.143  52.804  1.00  0.00    -0.191 NA
ENDROOT
BRANCH   1   7
HETATM    7  C5  UNL     1      24.621   0.882  53.080  1.00  0.00    -0.040 C 
HETATM    8  C4  UNL     1      24.653   2.222  53.394  1.00  0.00    -0.002 C 
HETATM    9  C3  UNL     1      24.143   3.303  52.954  1.00  0.00     0.021 C 
HETATM   10  C2  UNL     1      23.464   2.605  51.822  1.00  0.00     0.066 C 
HETATM   11  C18 UNL     1      23.456   4.469  52.267  1.00  0.00     0.037 C 
HETATM   12  C1  UNL     1      23.108   2.003  50.654  1.00  0.00     0.037 C 
HETATM   13  N3  UNL     1      24.874   2.856  51.342  1.00  0.00    -0.396 N 
HETATM   14  C16 UNL     1      26.275   2.362  51.213  1.00  0.00     0.156 C 
HETATM   15  C17 UNL     1      24.248   4.172  50.936  1.00  0.00     0.119 C 
HETATM   16  C14 UNL     1      26.600   1.226  52.120  1.00  0.00    -0.044 C 
HETATM   17  C13 UNL     1      26.913  -0.232  51.941  1.00  0.00     0.005 C 
HETATM   18  C15 UNL     1      26.644   1.204  53.500  1.00  0.00    -0.006 C 
HETATM   19  C12 UNL     1      27.075  -0.913  53.120  1.00  0.00    -0.014 C 
HETATM   20  C11 UNL     1      25.921  -0.123  53.868  1.00  0.00     0.054 C 
HETATM   21  C10 UNL     1      24.790  -0.345  52.959  1.00  0.00    -0.003 C 
ENDBRANCH   1   7
TORSDOF 1
ENDMDL
MODEL 2
REMARK VINA RESULT:      -9.1      1.814      4.418
REMARK  1 active torsions:
REMARK  status: ('A' for Active; 'I' for Inactive)
REMARK    1  A    between atoms: C5_5  and  C6_6 
ROOT
HETATM    1  C6  UNL     1      24.674   1.017  52.621  1.00  0.00     0.044 C 
HETATM    2  C7  UNL     1      25.945   0.655  52.688  1.00  0.00     0.125 C 
HETATM    3  C8  UNL     1      26.427  -0.709  52.812  1.00  0.00     0.110 C 
HETATM    4  N1  UNL     1      26.839  -1.810  52.908  1.00  0.00    -0.191 NA
HETATM    5  C9  UNL     1      27.119   1.523  52.664  1.00  0.00     0.110 C 
HETATM    6  N2  UNL     1      28.030   2.223  52.646  1.00  0.00    -0.191 NA
ENDROOT
BRANCH   1   7
HETATM    7  C5  UNL     1      23.276   0.583  52.617  1.00  0.00    -0.040 C 
HETATM    8  C4  UNL     1      22.897   0.933  51.340  1.00  0.00    -0.002 C 
HETATM    9  C3  UNL     1      22.931   1.969  50.601  1.00  0.00     0.021 C 
HETATM   10  C2  UNL     1      23.523   2.810  51.684  1.00  0.00     0.066 C 
HETATM   11  C18 UNL     1      23.047   3.309  49.896  1.00  0.00     0.037 C 
HETATM   12  C1  UNL     1      23.778   3.610  52.756  1.00  0.00     0.037 C 
HETATM   13  N3  UNL     1      22.036   2.818  51.946  1.00  0.00    -0.396 N 
HETATM   14  C16 UNL     1      20.868   2.201  52.638  1.00  0.00     0.156 C 
HETATM   15  C17 UNL     1      22.111   3.976  50.976  1.00  0.00     0.119 C 
HETATM   16  C14 UNL     1      21.126   0.824  53.146  1.00  0.00    -0.044 C 
HETATM   17  C13 UNL     1      21.253   0.188  54.500  1.00  0.00     0.005 C 
HETATM   18  C15 UNL     1      21.402  -0.325  52.431  1.00  0.00    -0.006 C 
HETATM   19  C12 UNL     1      21.580  -1.143  54.459  1.00  0.00    -0.014 C 
HETATM   20  C11 UNL     1      22.566  -0.981  53.228  1.00  0.00     0.054 C 
HETATM   21  C10 UNL     1      23.476   0.056  53.727  1.00  0.00    -0.003 C 
ENDBRANCH   1   7
TORSDOF 1
ENDMDL
MODEL 3
REMARK VINA RESULT:      -8.0      2.040      5.341
REMARK  1 active torsions:
REMARK  status: ('A' for Active; 'I' for Inactive)
REMARK    1  A    between atoms: C5_5  and  C6_6 
ROOT
HETATM    1  C6  UNL     1      24.816   2.638  51.006  1.00  0.00     0.044 C 
HETATM    2  C7  UNL     1      25.253   3.749  50.437  1.00  0.00     0.125 C 
HETATM    3  C8  UNL     1      24.598   5.043  50.499  1.00  0.00     0.110 C 
HETATM    4  N1  UNL     1      24.084   6.103  50.543  1.00  0.00    -0.191 NA
HETATM    5  C9  UNL     1      26.457   3.918  49.627  1.00  0.00     0.110 C 
HETATM    6  N2  UNL     1      27.407   4.031  48.991  1.00  0.00    -0.191 NA
ENDROOT
BRANCH   1   7
HETATM    7  C5  UNL     1      23.775   2.007  51.820  1.00  0.00    -0.040 C 
HETATM    8  C4  UNL     1      24.258   2.240  53.089  1.00  0.00    -0.002 C 
HETATM    9  C3  UNL     1      25.344   2.060  53.729  1.00  0.00     0.021 C 
HETATM   10  C2  UNL     1      25.998   1.382  52.570  1.00  0.00     0.066 C 
HETATM   11  C18 UNL     1      26.707   1.739  54.314  1.00  0.00     0.037 C 
HETATM   12  C1  UNL     1      26.456   0.522  51.620  1.00  0.00     0.037 C 
HETATM   13  N3  UNL     1      25.195   0.303  53.257  1.00  0.00    -0.396 N 
HETATM   14  C16 UNL     1      23.909  -0.444  53.366  1.00  0.00     0.156 C 
HETATM   15  C17 UNL     1      26.470   0.200  54.065  1.00  0.00     0.119 C 
HETATM   16  C14 UNL     1      22.758   0.237  52.710  1.00  0.00    -0.044 C 
HETATM   17  C13 UNL     1      21.894  -0.033  51.512  1.00  0.00     0.005 C 
HETATM   18  C15 UNL     1      22.167   1.443  53.033  1.00  0.00    -0.006 C 
HETATM   19  C12 UNL     1      20.979   0.954  51.255  1.00  0.00    -0.014 C 
HETATM   20  C11 UNL     1      21.964   2.131  51.653  1.00  0.00     0.054 C 
HETATM   21  C10 UNL     1      23.110   1.849  50.780  1.00  0.00    -0.003 C 
ENDBRANCH   1   7
TORSDOF 1
ENDMDL
MODEL 4
REMARK VINA RESULT:      -7.9      2.026      4.940
REMARK  1 active torsions:
REMARK  status: ('A' for Active; 'I' for Inactive)
REMARK    1  A    between atoms: C5_5  and  C6_6 
ROOT
HETATM    1  C6  UNL     1      22.966   1.885  52.152  1.00  0.00     0.044 C 
HETATM    2  C7  UNL     1      24.021   2.580  51.761  1.00  0.00     0.125 C 
HETATM    3  C8  UNL     1      25.368   2.059  51.616  1.00  0.00     0.110 C 
HETATM    4  N1  UNL     1      26.468   1.654  51.488  1.00  0.00    -0.191 NA
HETATM    5  C9  UNL     1      24.070   3.997  51.406  1.00  0.00     0.110 C 
HETATM    6  N2  UNL     1      24.089   5.112  51.133  1.00  0.00    -0.191 NA
ENDROOT
BRANCH   1   7
HETATM    7  C5  UNL     1      22.448   0.587  52.588  1.00  0.00    -0.040 C 
HETATM    8  C4  UNL     1      21.822   0.156  51.439  1.00  0.00    -0.002 C 
HETATM    9  C3  UNL     1      20.962   0.603  50.614  1.00  0.00     0.021 C 
HETATM   10  C2  UNL     1      20.766   1.863  51.391  1.00  0.00     0.066 C 
HETATM   11  C18 UNL     1      19.916   1.305  49.766  1.00  0.00     0.037 C 
HETATM   12  C1  UNL     1      20.395   2.846  52.256  1.00  0.00     0.037 C 
HETATM   13  N3  UNL     1      19.872   0.845  52.058  1.00  0.00    -0.396 N 
HETATM   14  C16 UNL     1      19.705  -0.196  53.112  1.00  0.00     0.156 C 
HETATM   15  C17 UNL     1      18.920   1.331  50.988  1.00  0.00     0.119 C 
HETATM   16  C14 UNL     1      20.990  -0.702  53.670  1.00  0.00    -0.044 C 
HETATM   17  C13 UNL     1      21.693  -0.610  54.994  1.00  0.00     0.005 C 
HETATM   18  C15 UNL     1      21.994  -1.405  53.034  1.00  0.00    -0.006 C 
HETATM   19  C12 UNL     1      22.933  -1.194  55.005  1.00  0.00    -0.014 C 
HETATM   20  C11 UNL     1      23.296  -0.719  53.536  1.00  0.00     0.054 C 
HETATM   21  C10 UNL     1      23.087   0.730  53.646  1.00  0.00    -0.003 C 
ENDBRANCH   1   7
TORSDOF 1
ENDMDL
MODEL 5
REMARK VINA RESULT:      -7.4      1.693      5.135
REMARK  1 active torsions:
REMARK  status: ('A' for Active; 'I' for Inactive)
REMARK    1  A    between atoms: C5_5  and  C6_6 
ROOT
HETATM    1  C6  UNL     1      24.011   1.091  52.738  1.00  0.00     0.044 C 
HETATM    2  C7  UNL     1      25.305   1.054  53.012  1.00  0.00     0.125 C 
HETATM    3  C8  UNL     1      26.336   1.799  52.313  1.00  0.00     0.110 C 
HETATM    4  N1  UNL     1      27.188   2.400  51.761  1.00  0.00    -0.191 NA
HETATM    5  C9  UNL     1      25.973   0.266  54.045  1.00  0.00     0.110 C 
HETATM    6  N2  UNL     1      26.480  -0.363  54.861  1.00  0.00    -0.191 NA
ENDROOT
BRANCH   1   7
HETATM    7  C5  UNL     1      22.955   1.646  51.891  1.00  0.00    -0.040 C 
HETATM    8  C4  UNL     1      21.964   1.871  52.821  1.00  0.00    -0.002 C 
HETATM    9  C3  UNL     1      21.359   1.212  53.727  1.00  0.00     0.021 C 
HETATM   10  C2  UNL     1      22.092  -0.047  53.400  1.00  0.00     0.066 C 
HETATM   11  C18 UNL     1      20.748   0.254  54.734  1.00  0.00     0.037 C 
HETATM   12  C1  UNL     1      22.547  -1.227  52.896  1.00  0.00     0.037 C 
HETATM   13  N3  UNL     1      20.947   0.010  52.417  1.00  0.00    -0.396 N 
HETATM   14  C16 UNL     1      20.448   0.433  51.077  1.00  0.00     0.156 C 
HETATM   15  C17 UNL     1      20.238  -0.674  53.565  1.00  0.00     0.119 C 
HETATM   16  C14 UNL     1      21.299   1.461  50.413  1.00  0.00    -0.044 C 
HETATM   17  C13 UNL     1      22.195   1.495  49.208  1.00  0.00     0.005 C 
HETATM   18  C15 UNL     1      21.555   2.760  50.807  1.00  0.00    -0.006 C 
HETATM   19  C12 UNL     1      22.846   2.689  49.036  1.00  0.00    -0.014 C 
HETATM   20  C11 UNL     1      23.086   2.914  50.587  1.00  0.00     0.054 C 
HETATM   21  C10 UNL     1      23.772   1.668  50.952  1.00  0.00    -0.003 C 
ENDBRANCH   1   7
TORSDOF 1
ENDMDL
MODEL 6
REMARK VINA RESULT:      -7.1      1.902      4.680
REMARK  1 active torsions:
REMARK  status: ('A' for Active; 'I' for Inactive)
REMARK    1  A    between atoms: C5_5  and  C6_6 
ROOT
HETATM    1  C6  UNL     1      23.355   3.619  51.791  1.00  0.00     0.044 C 
HETATM    2  C7  UNL     1      23.453   4.820  51.244  1.00  0.00     0.125 C 
HETATM    3  C8  UNL     1      24.619   5.340  50.553  1.00  0.00     0.110 C 
HETATM    4  N1  UNL     1      25.554   5.778  49.984  1.00  0.00    -0.191 NA
HETATM    5  C9  UNL     1      22.440   5.872  51.224  1.00  0.00     0.110 C 
HETATM    6  N2  UNL     1      21.632   6.689  51.220  1.00  0.00    -0.191 NA
ENDROOT
BRANCH   1   7
HETATM    7  C5  UNL     1      24.015   2.342  52.065  1.00  0.00    -0.040 C 
HETATM    8  C4  UNL     1      23.564   1.581  51.009  1.00  0.00    -0.002 C 
HETATM    9  C3  UNL     1      22.446   1.278  50.480  1.00  0.00     0.021 C 
HETATM   10  C2  UNL     1      21.673   2.036  51.509  1.00  0.00     0.066 C 
HETATM   11  C18 UNL     1      21.023   1.022  50.017  1.00  0.00     0.037 C 
HETATM   12  C1  UNL     1      20.995   2.475  52.605  1.00  0.00     0.037 C 
HETATM   13  N3  UNL     1      21.953   0.691  52.137  1.00  0.00    -0.396 N 
HETATM   14  C16 UNL     1      22.848  -0.151  52.982  1.00  0.00     0.156 C 
HETATM   15  C17 UNL     1      20.678   0.346  51.400  1.00  0.00     0.119 C 
HETATM   16  C14 UNL     1      24.217   0.411  53.155  1.00  0.00    -0.044 C 
HETATM   17  C13 UNL     1      25.002   0.988  54.299  1.00  0.00     0.005 C 
HETATM   18  C15 UNL     1      25.195   0.620  52.203  1.00  0.00    -0.006 C 
HETATM   19  C12 UNL     1      26.239   1.457  53.941  1.00  0.00    -0.014 C 
HETATM   20  C11 UNL     1      25.746   2.033  52.549  1.00  0.00     0.054 C 
HETATM   21  C10 UNL     1      24.647   2.907  52.976  1.00  0.00    -0.003 C 
ENDBRANCH   1   7
TORSDOF 1
ENDMDL
MODEL 7
REMARK VINA RESULT:      -6.9      3.315      6.250
REMARK  1 active torsions:
REMARK  status: ('A' for Active; 'I' for Inactive)
REMARK    1  A    between atoms: C5_5  and  C6_6 
ROOT
HETATM    1  C6  UNL     1      24.423   4.830  49.435  1.00  0.00     0.044 C 
HETATM    2  C7  UNL     1      25.444   5.482  48.904  1.00  0.00     0.125 C 
HETATM    3  C8  UNL     1      26.812   4.999  48.840  1.00  0.00     0.110 C 
HETATM    4  N1  UNL     1      27.927   4.622  48.773  1.00  0.00    -0.191 NA
HETATM    5  C9  UNL     1      25.430   6.807  48.288  1.00  0.00     0.110 C 
HETATM    6  N2  UNL     1      25.398   7.851  47.810  1.00  0.00    -0.191 NA
ENDROOT
BRANCH   1   7
HETATM    7  C5  UNL     1      23.966   3.617  50.116  1.00  0.00    -0.040 C 
HETATM    8  C4  UNL     1      23.518   2.872  49.048  1.00  0.00    -0.002 C 
HETATM    9  C3  UNL     1      22.728   3.024  48.061  1.00  0.00     0.021 C 
HETATM   10  C2  UNL     1      22.339   4.400  48.493  1.00  0.00     0.066 C 
HETATM   11  C18 UNL     1      21.737   3.399  46.974  1.00  0.00     0.037 C 
HETATM   12  C1  UNL     1      21.789   5.508  49.060  1.00  0.00     0.037 C 
HETATM   13  N3  UNL     1      21.459   3.470  49.295  1.00  0.00    -0.396 N 
HETATM   14  C16 UNL     1      21.253   2.684  50.545  1.00  0.00     0.156 C 
HETATM   15  C17 UNL     1      20.603   3.594  48.053  1.00  0.00     0.119 C 
HETATM   16  C14 UNL     1      22.500   2.460  51.328  1.00  0.00    -0.044 C 
HETATM   17  C13 UNL     1      23.031   2.926  52.654  1.00  0.00     0.005 C 
HETATM   18  C15 UNL     1      23.626   1.742  50.977  1.00  0.00    -0.006 C 
HETATM   19  C12 UNL     1      24.305   2.497  52.922  1.00  0.00    -0.014 C 
HETATM   20  C11 UNL     1      24.799   2.661  51.425  1.00  0.00     0.054 C 
HETATM   21  C10 UNL     1      24.461   4.065  51.166  1.00  0.00    -0.003 C 
ENDBRANCH   1   7
TORSDOF 1
ENDMDL
MODEL 8
REMARK VINA RESULT:      -6.8      7.802     10.181
REMARK  1 active torsions:
REMARK  status: ('A' for Active; 'I' for Inactive)
REMARK    1  A    between atoms: C5_5  and  C6_6 
ROOT
HETATM    1  C6  UNL     1      29.335   7.220  47.994  1.00  0.00     0.044 C 
HETATM    2  C7  UNL     1      28.116   6.710  48.062  1.00  0.00     0.125 C 
HETATM    3  C8  UNL     1      27.782   5.386  48.553  1.00  0.00     0.110 C 
HETATM    4  N1  UNL     1      27.489   4.316  48.954  1.00  0.00    -0.191 NA
HETATM    5  C9  UNL     1      26.864   7.344  47.655  1.00  0.00     0.110 C 
HETATM    6  N2  UNL     1      25.890   7.858  47.328  1.00  0.00    -0.191 NA
ENDROOT
BRANCH   1   7
HETATM    7  C5  UNL     1      30.764   7.012  48.235  1.00  0.00    -0.040 C 
HETATM    8  C4  UNL     1      31.020   8.001  49.159  1.00  0.00    -0.002 C 
HETATM    9  C3  UNL     1      30.839   9.257  49.266  1.00  0.00     0.021 C 
HETATM   10  C2  UNL     1      30.247   9.359  47.898  1.00  0.00     0.066 C 
HETATM   11  C18 UNL     1      30.551  10.745  49.187  1.00  0.00     0.037 C 
HETATM   12  C1  UNL     1      29.993   9.471  46.566  1.00  0.00     0.037 C 
HETATM   13  N3  UNL     1      31.742   9.404  47.686  1.00  0.00    -0.396 N 
HETATM   14  C16 UNL     1      33.006   8.661  47.420  1.00  0.00     0.156 C 
HETATM   15  C17 UNL     1      31.492  10.877  47.929  1.00  0.00     0.119 C 
HETATM   16  C14 UNL     1      32.913   7.198  47.683  1.00  0.00    -0.044 C 
HETATM   17  C13 UNL     1      32.940   5.954  46.842  1.00  0.00     0.005 C 
HETATM   18  C15 UNL     1      32.697   6.545  48.881  1.00  0.00    -0.006 C 
HETATM   19  C12 UNL     1      32.736   4.800  47.552  1.00  0.00    -0.014 C 
HETATM   20  C11 UNL     1      31.657   5.448  48.517  1.00  0.00     0.054 C 
HETATM   21  C10 UNL     1      30.690   5.977  47.547  1.00  0.00    -0.003 C 
ENDBRANCH   1   7
TORSDOF 1
ENDMDL
MODEL 9
REMARK VINA RESULT:      -6.7     10.568     12.732
REMARK  1 active torsions:
REMARK  status: ('A' for Active; 'I' for Inactive)
REMARK    1  A    between atoms: C5_5  and  C6_6 
ROOT
HETATM    1  C6  UNL     1      32.497   6.548  46.612  1.00  0.00     0.044 C 
HETATM    2  C7  UNL     1      31.543   7.243  47.208  1.00  0.00     0.125 C 
HETATM    3  C8  UNL     1      30.257   7.581  46.626  1.00  0.00     0.110 C 
HETATM    4  N1  UNL     1      29.205   7.861  46.173  1.00  0.00    -0.191 NA
HETATM    5  C9  UNL     1      31.572   7.825  48.548  1.00  0.00     0.110 C 
HETATM    6  N2  UNL     1      31.615   8.277  49.603  1.00  0.00    -0.191 NA
ENDROOT
BRANCH   1   7
HETATM    7  C5  UNL     1      32.920   5.833  45.406  1.00  0.00    -0.040 C 
HETATM    8  C4  UNL     1      32.577   4.540  45.734  1.00  0.00    -0.002 C 
HETATM    9  C3  UNL     1      32.778   3.730  46.695  1.00  0.00     0.021 C 
HETATM   10  C2  UNL     1      33.654   4.697  47.421  1.00  0.00     0.066 C 
HETATM   11  C18 UNL     1      33.151   2.916  47.921  1.00  0.00     0.037 C 
HETATM   12  C1  UNL     1      34.666   5.468  47.907  1.00  0.00     0.037 C 
HETATM   13  N3  UNL     1      34.558   4.023  46.417  1.00  0.00    -0.396 N 
HETATM   14  C16 UNL     1      35.161   4.025  45.053  1.00  0.00     0.156 C 
HETATM   15  C17 UNL     1      34.680   3.028  47.550  1.00  0.00     0.119 C 
HETATM   16  C14 UNL     1      34.461   4.916  44.085  1.00  0.00    -0.044 C 
HETATM   17  C13 UNL     1      34.795   6.193  43.369  1.00  0.00     0.005 C 
HETATM   18  C15 UNL     1      33.174   4.820  43.595  1.00  0.00    -0.006 C 
HETATM   19  C12 UNL     1      33.766   6.690  42.614  1.00  0.00    -0.014 C 
HETATM   20  C11 UNL     1      32.647   6.282  43.660  1.00  0.00     0.054 C 
HETATM   21  C10 UNL     1      33.143   6.937  44.876  1.00  0.00    -0.003 C 
ENDBRANCH   1   7
TORSDOF 1
ENDMDL
