MODEL 1
REMARK VINA RESULT:      -5.4      0.000      0.000
REMARK  8 active torsions:
REMARK  status: ('A' for Active; 'I' for Inactive)
REMARK    1  A    between atoms: C3_3  and  C4_4 
REMARK    2  A    between atoms: C4_4  and  N1_5 
REMARK    3  A    between atoms: N1_5  and  C5_6 
REMARK    4  A    between atoms: C5_6  and  N2_7 
REMARK       I    between atoms: N2_7  and  C6_8 
REMARK    5  A    between atoms: C6_8  and  C7_10 
REMARK    6  A    between atoms: C8_11  and  C9_12 
REMARK    7  A    between atoms: C9_12  and  C10_13 
REMARK    8  A    between atoms: C10_13  and  N3_14 
ROOT
HETATM    1  C1  UNL     1      23.088   2.870  52.369  1.00  0.00     0.012 C 
HETATM    2  C2  UNL     1      23.112   1.682  52.634  1.00  0.00    -0.112 C 
HETATM    3  C3  UNL     1      23.145   0.239  52.931  1.00  0.00     0.139 C 
ENDROOT
BRANCH   3   4
HETATM    4  C4  UNL     1      24.511  -0.126  53.423  1.00  0.00     0.097 C 
BRANCH   4   5
HETATM    5  N1  UNL     1      25.757  -0.303  53.620  1.00  0.00    -0.285 NA
BRANCH   5   6
HETATM    6  C5  UNL     1      26.644  -0.164  52.521  1.00  0.00     0.273 C 
BRANCH   6   7
HETATM    7  N2  UNL     1      26.264   0.911  51.638  1.00  0.00    -0.332 N 
HETATM    8  C6  UNL     1      26.903   2.158  51.574  1.00  0.00     0.297 C 
HETATM    9  O1  UNL     1      27.895   2.411  52.330  1.00  0.00    -0.258 OA
HETATM   10  H7  UNL     1      25.453   0.827  50.958  1.00  0.00     0.165 HD
BRANCH   8  11
HETATM   11  C7  UNL     1      26.492   3.219  50.670  1.00  0.00    -0.006 C 
HETATM   12  C8  UNL     1      26.169   4.092  49.911  1.00  0.00    -0.095 C 
BRANCH  12  13
HETATM   13  C9  UNL     1      25.752   5.144  48.990  1.00  0.00     0.124 C 
BRANCH  13  14
HETATM   14  C10 UNL     1      25.625   6.463  49.702  1.00  0.00     0.284 C 
BRANCH  14  15
HETATM   15  N3  UNL     1      26.754   7.295  49.308  1.00  0.00     0.092 N 
HETATM   16  C11 UNL     1      26.782   8.499  50.086  1.00  0.00     0.302 C 
HETATM   17  C12 UNL     1      27.596   9.601  49.508  1.00  0.00     0.302 C 
HETATM   18  N4  UNL     1      28.373   9.207  48.334  1.00  0.00     0.087 N 
HETATM   19  C13 UNL     1      29.331   8.179  48.629  1.00  0.00     0.310 C 
HETATM   20  C14 UNL     1      27.403   8.703  47.391  1.00  0.00     0.302 C 
HETATM   21  C15 UNL     1      26.675   7.489  47.896  1.00  0.00     0.302 C 
ENDBRANCH  14  15
ENDBRANCH  13  14
ENDBRANCH  12  13
ENDBRANCH   8  11
ENDBRANCH   6   7
ENDBRANCH   5   6
ENDBRANCH   4   5
ENDBRANCH   3   4
TORSDOF 8
ENDMDL
MODEL 2
REMARK VINA RESULT:      -5.3      3.878      5.411
REMARK  8 active torsions:
REMARK  status: ('A' for Active; 'I' for Inactive)
REMARK    1  A    between atoms: C3_3  and  C4_4 
REMARK    2  A    between atoms: C4_4  and  N1_5 
REMARK    3  A    between atoms: N1_5  and  C5_6 
REMARK    4  A    between atoms: C5_6  and  N2_7 
REMARK       I    between atoms: N2_7  and  C6_8 
REMARK    5  A    between atoms: C6_8  and  C7_10 
REMARK    6  A    between atoms: C8_11  and  C9_12 
REMARK    7  A    between atoms: C9_12  and  C10_13 
REMARK    8  A    between atoms: C10_13  and  N3_14 
ROOT
HETATM    1  C1  UNL     1      28.782  -2.731  53.043  1.00  0.00     0.012 C 
HETATM    2  C2  UNL     1      29.336  -1.681  53.311  1.00  0.00    -0.112 C 
HETATM    3  C3  UNL     1      30.004  -0.402  53.612  1.00  0.00     0.139 C 
ENDROOT
BRANCH   3   4
HETATM    4  C4  UNL     1      28.998   0.551  54.181  1.00  0.00     0.097 C 
BRANCH   4   5
HETATM    5  N1  UNL     1      28.029   1.136  54.767  1.00  0.00    -0.285 NA
BRANCH   5   6
HETATM    6  C5  UNL     1      26.780   0.468  54.843  1.00  0.00     0.273 C 
BRANCH   6   7
HETATM    7  N2  UNL     1      25.784   1.061  53.984  1.00  0.00    -0.332 N 
HETATM    8  C6  UNL     1      25.589   0.726  52.636  1.00  0.00     0.297 C 
HETATM    9  O1  UNL     1      26.316  -0.158  52.082  1.00  0.00    -0.258 OA
HETATM   10  H7  UNL     1      25.114   1.811  54.325  1.00  0.00     0.165 HD
BRANCH   8  11
HETATM   11  C7  UNL     1      24.574   1.345  51.800  1.00  0.00    -0.006 C 
HETATM   12  C8  UNL     1      23.737   1.874  51.120  1.00  0.00    -0.095 C 
BRANCH  12  13
HETATM   13  C9  UNL     1      22.731   2.507  50.273  1.00  0.00     0.124 C 
BRANCH  13  14
HETATM   14  C10 UNL     1      23.339   3.610  49.450  1.00  0.00     0.284 C 
BRANCH  14  15
HETATM   15  N3  UNL     1      22.574   4.825  49.697  1.00  0.00     0.092 N 
HETATM   16  C11 UNL     1      21.169   4.539  49.701  1.00  0.00     0.302 C 
HETATM   17  C12 UNL     1      20.287   5.720  49.511  1.00  0.00     0.302 C 
HETATM   18  N4  UNL     1      20.999   6.997  49.531  1.00  0.00     0.087 N 
HETATM   19  C13 UNL     1      21.651   7.244  50.787  1.00  0.00     0.310 C 
HETATM   20  C14 UNL     1      21.990   6.893  48.487  1.00  0.00     0.302 C 
HETATM   21  C15 UNL     1      22.990   5.800  48.740  1.00  0.00     0.302 C 
ENDBRANCH  14  15
ENDBRANCH  13  14
ENDBRANCH  12  13
ENDBRANCH   8  11
ENDBRANCH   6   7
ENDBRANCH   5   6
ENDBRANCH   4   5
ENDBRANCH   3   4
TORSDOF 8
ENDMDL
MODEL 3
REMARK VINA RESULT:      -5.3      2.622      4.104
REMARK  8 active torsions:
REMARK  status: ('A' for Active; 'I' for Inactive)
REMARK    1  A    between atoms: C3_3  and  C4_4 
REMARK    2  A    between atoms: C4_4  and  N1_5 
REMARK    3  A    between atoms: N1_5  and  C5_6 
REMARK    4  A    between atoms: C5_6  and  N2_7 
REMARK       I    between atoms: N2_7  and  C6_8 
REMARK    5  A    between atoms: C6_8  and  C7_10 
REMARK    6  A    between atoms: C8_11  and  C9_12 
REMARK    7  A    between atoms: C9_12  and  C10_13 
REMARK    8  A    between atoms: C10_13  and  N3_14 
ROOT
HETATM    1  C1  UNL     1      26.791  -1.865  52.359  1.00  0.00     0.012 C 
HETATM    2  C2  UNL     1      26.233  -0.879  52.803  1.00  0.00    -0.112 C 
HETATM    3  C3  UNL     1      25.579   0.329  53.337  1.00  0.00     0.139 C 
ENDROOT
BRANCH   3   4
HETATM    4  C4  UNL     1      24.783   0.975  52.245  1.00  0.00     0.097 C 
BRANCH   4   5
HETATM    5  N1  UNL     1      24.282   1.731  51.350  1.00  0.00    -0.285 NA
BRANCH   5   6
HETATM    6  C5  UNL     1      24.421   3.136  51.492  1.00  0.00     0.273 C 
BRANCH   6   7
HETATM    7  N2  UNL     1      25.632   3.634  50.886  1.00  0.00    -0.332 N 
HETATM    8  C6  UNL     1      25.688   4.347  49.680  1.00  0.00     0.297 C 
HETATM    9  O1  UNL     1      24.622   4.600  49.033  1.00  0.00    -0.258 OA
HETATM   10  H7  UNL     1      26.587   3.489  51.326  1.00  0.00     0.165 HD
BRANCH   8  11
HETATM   11  C7  UNL     1      26.928   4.835  49.099  1.00  0.00    -0.006 C 
HETATM   12  C8  UNL     1      27.956   5.219  48.610  1.00  0.00    -0.095 C 
BRANCH  12  13
HETATM   13  C9  UNL     1      29.193   5.707  48.010  1.00  0.00     0.124 C 
BRANCH  13  14
HETATM   14  C10 UNL     1      29.015   7.100  47.470  1.00  0.00     0.284 C 
BRANCH  14  15
HETATM   15  N3  UNL     1      30.300   7.781  47.557  1.00  0.00     0.092 N 
HETATM   16  C11 UNL     1      31.280   7.100  46.762  1.00  0.00     0.302 C 
HETATM   17  C12 UNL     1      32.692   7.421  47.097  1.00  0.00     0.302 C 
HETATM   18  N4  UNL     1      32.838   8.511  48.060  1.00  0.00     0.087 N 
HETATM   19  C13 UNL     1      32.302   9.750  47.572  1.00  0.00     0.310 C 
HETATM   20  C14 UNL     1      32.092   8.089  49.222  1.00  0.00     0.302 C 
HETATM   21  C15 UNL     1      30.628   7.909  48.941  1.00  0.00     0.302 C 
ENDBRANCH  14  15
ENDBRANCH  13  14
ENDBRANCH  12  13
ENDBRANCH   8  11
ENDBRANCH   6   7
ENDBRANCH   5   6
ENDBRANCH   4   5
ENDBRANCH   3   4
TORSDOF 8
ENDMDL
MODEL 4
REMARK VINA RESULT:      -5.3      1.592      2.323
REMARK  8 active torsions:
REMARK  status: ('A' for Active; 'I' for Inactive)
REMARK    1  A    between atoms: C3_3  and  C4_4 
REMARK    2  A    between atoms: C4_4  and  N1_5 
REMARK    3  A    between atoms: N1_5  and  C5_6 
REMARK    4  A    between atoms: C5_6  and  N2_7 
REMARK       I    between atoms: N2_7  and  C6_8 
REMARK    5  A    between atoms: C6_8  and  C7_10 
REMARK    6  A    between atoms: C8_11  and  C9_12 
REMARK    7  A    between atoms: C9_12  and  C10_13 
REMARK    8  A    between atoms: C10_13  and  N3_14 
ROOT
HETATM    1  C1  UNL     1      22.443   1.427  52.888  1.00  0.00     0.012 C 
HETATM    2  C2  UNL     1      22.921   0.384  53.295  1.00  0.00    -0.112 C 
HETATM    3  C3  UNL     1      23.512  -0.881  53.765  1.00  0.00     0.139 C 
ENDROOT
BRANCH   3   4
HETATM    4  C4  UNL     1      24.764  -0.579  54.531  1.00  0.00     0.097 C 
BRANCH   4   5
HETATM    5  N1  UNL     1      25.946  -0.483  54.996  1.00  0.00    -0.285 NA
BRANCH   5   6
HETATM    6  C5  UNL     1      26.984  -0.061  54.126  1.00  0.00     0.273 C 
BRANCH   6   7
HETATM    7  N2  UNL     1      26.499   0.765  53.048  1.00  0.00    -0.332 N 
HETATM    8  C6  UNL     1      27.244   1.767  52.409  1.00  0.00     0.297 C 
HETATM    9  O1  UNL     1      28.440   2.005  52.769  1.00  0.00    -0.258 OA
HETATM   10  H7  UNL     1      25.517   0.666  52.655  1.00  0.00     0.165 HD
BRANCH   8  11
HETATM   11  C7  UNL     1      26.721   2.581  51.324  1.00  0.00    -0.006 C 
HETATM   12  C8  UNL     1      26.283   3.235  50.417  1.00  0.00    -0.095 C 
BRANCH  12  13
HETATM   13  C9  UNL     1      25.740   4.047  49.332  1.00  0.00     0.124 C 
BRANCH  13  14
HETATM   14  C10 UNL     1      26.643   5.212  49.029  1.00  0.00     0.284 C 
BRANCH  14  15
HETATM   15  N3  UNL     1      25.851   6.430  49.139  1.00  0.00     0.092 N 
HETATM   16  C11 UNL     1      26.706   7.564  49.339  1.00  0.00     0.302 C 
HETATM   17  C12 UNL     1      26.030   8.769  49.888  1.00  0.00     0.302 C 
HETATM   18  N4  UNL     1      24.576   8.648  49.963  1.00  0.00     0.087 N 
HETATM   19  C13 UNL     1      23.972   8.465  48.672  1.00  0.00     0.310 C 
HETATM   20  C14 UNL     1      24.335   7.480  50.776  1.00  0.00     0.302 C 
HETATM   21  C15 UNL     1      24.876   6.221  50.161  1.00  0.00     0.302 C 
ENDBRANCH  14  15
ENDBRANCH  13  14
ENDBRANCH  12  13
ENDBRANCH   8  11
ENDBRANCH   6   7
ENDBRANCH   5   6
ENDBRANCH   4   5
ENDBRANCH   3   4
TORSDOF 8
ENDMDL
MODEL 5
REMARK VINA RESULT:      -5.3      2.885      7.995
REMARK  8 active torsions:
REMARK  status: ('A' for Active; 'I' for Inactive)
REMARK    1  A    between atoms: C3_3  and  C4_4 
REMARK    2  A    between atoms: C4_4  and  N1_5 
REMARK    3  A    between atoms: N1_5  and  C5_6 
REMARK    4  A    between atoms: C5_6  and  N2_7 
REMARK       I    between atoms: N2_7  and  C6_8 
REMARK    5  A    between atoms: C6_8  and  C7_10 
REMARK    6  A    between atoms: C8_11  and  C9_12 
REMARK    7  A    between atoms: C9_12  and  C10_13 
REMARK    8  A    between atoms: C10_13  and  N3_14 
ROOT
HETATM    1  C1  UNL     1      26.764   4.736  48.936  1.00  0.00     0.012 C 
HETATM    2  C2  UNL     1      27.680   5.419  48.519  1.00  0.00    -0.112 C 
HETATM    3  C3  UNL     1      28.777   6.252  47.994  1.00  0.00     0.139 C 
ENDROOT
BRANCH   3   4
HETATM    4  C4  UNL     1      28.661   7.630  48.570  1.00  0.00     0.097 C 
BRANCH   4   5
HETATM    5  N1  UNL     1      28.508   8.873  48.802  1.00  0.00    -0.285 NA
BRANCH   5   6
HETATM    6  C5  UNL     1      27.852   9.264  49.998  1.00  0.00     0.273 C 
BRANCH   6   7
HETATM    7  N2  UNL     1      26.894   8.284  50.446  1.00  0.00    -0.332 N 
HETATM    8  C6  UNL     1      25.525   8.304  50.140  1.00  0.00     0.297 C 
HETATM    9  O1  UNL     1      25.043   9.233  49.418  1.00  0.00    -0.258 OA
HETATM   10  H7  UNL     1      27.169   7.458  51.055  1.00  0.00     0.165 HD
BRANCH   8  11
HETATM   11  C7  UNL     1      24.588   7.297  50.609  1.00  0.00    -0.006 C 
HETATM   12  C8  UNL     1      23.799   6.480  51.000  1.00  0.00    -0.095 C 
BRANCH  12  13
HETATM   13  C9  UNL     1      22.848   5.471  51.455  1.00  0.00     0.124 C 
BRANCH  13  14
HETATM   14  C10 UNL     1      22.196   4.781  50.287  1.00  0.00     0.284 C 
BRANCH  14  15
HETATM   15  N3  UNL     1      22.030   3.376  50.635  1.00  0.00     0.092 N 
HETATM   16  C11 UNL     1      21.389   3.250  51.912  1.00  0.00     0.302 C 
HETATM   17  C12 UNL     1      21.550   1.925  52.566  1.00  0.00     0.302 C 
HETATM   18  N4  UNL     1      22.182   0.919  51.714  1.00  0.00     0.087 N 
HETATM   19  C13 UNL     1      21.416   0.638  50.533  1.00  0.00     0.310 C 
HETATM   20  C14 UNL     1      23.454   1.490  51.338  1.00  0.00     0.302 C 
HETATM   21  C15 UNL     1      23.312   2.753  50.537  1.00  0.00     0.302 C 
ENDBRANCH  14  15
ENDBRANCH  13  14
ENDBRANCH  12  13
ENDBRANCH   8  11
ENDBRANCH   6   7
ENDBRANCH   5   6
ENDBRANCH   4   5
ENDBRANCH   3   4
TORSDOF 8
ENDMDL
MODEL 6
REMARK VINA RESULT:      -5.1      2.224      3.602
REMARK  8 active torsions:
REMARK  status: ('A' for Active; 'I' for Inactive)
REMARK    1  A    between atoms: C3_3  and  C4_4 
REMARK    2  A    between atoms: C4_4  and  N1_5 
REMARK    3  A    between atoms: N1_5  and  C5_6 
REMARK    4  A    between atoms: C5_6  and  N2_7 
REMARK       I    between atoms: N2_7  and  C6_8 
REMARK    5  A    between atoms: C6_8  and  C7_10 
REMARK    6  A    between atoms: C8_11  and  C9_12 
REMARK    7  A    between atoms: C9_12  and  C10_13 
REMARK    8  A    between atoms: C10_13  and  N3_14 
ROOT
HETATM    1  C1  UNL     1      30.111  -0.777  53.614  1.00  0.00     0.012 C 
HETATM    2  C2  UNL     1      29.275   0.011  54.015  1.00  0.00    -0.112 C 
HETATM    3  C3  UNL     1      28.252   0.966  54.476  1.00  0.00     0.139 C 
ENDROOT
BRANCH   3   4
HETATM    4  C4  UNL     1      27.095   0.204  55.046  1.00  0.00     0.097 C 
BRANCH   4   5
HETATM    5  N1  UNL     1      26.069  -0.517  55.272  1.00  0.00    -0.285 NA
BRANCH   5   6
HETATM    6  C5  UNL     1      25.243  -0.883  54.178  1.00  0.00     0.273 C 
BRANCH   6   7
HETATM    7  N2  UNL     1      24.728   0.263  53.469  1.00  0.00    -0.332 N 
HETATM    8  C6  UNL     1      25.246   0.758  52.263  1.00  0.00     0.297 C 
HETATM    9  O1  UNL     1      26.244   0.192  51.713  1.00  0.00    -0.258 OA
HETATM   10  H7  UNL     1      23.898   0.823  53.823  1.00  0.00     0.165 HD
BRANCH   8  11
HETATM   11  C7  UNL     1      24.700   1.917  51.576  1.00  0.00    -0.006 C 
HETATM   12  C8  UNL     1      24.237   2.861  50.996  1.00  0.00    -0.095 C 
BRANCH  12  13
HETATM   13  C9  UNL     1      23.672   4.021  50.315  1.00  0.00     0.124 C 
BRANCH  13  14
HETATM   14  C10 UNL     1      23.792   5.256  51.165  1.00  0.00     0.284 C 
BRANCH  14  15
HETATM   15  N3  UNL     1      24.601   6.223  50.436  1.00  0.00     0.092 N 
HETATM   16  C11 UNL     1      24.176   7.559  50.740  1.00  0.00     0.302 C 
HETATM   17  C12 UNL     1      24.609   8.593  49.763  1.00  0.00     0.302 C 
HETATM   18  N4  UNL     1      25.545   8.097  48.756  1.00  0.00     0.087 N 
HETATM   19  C13 UNL     1      26.772   7.622  49.331  1.00  0.00     0.310 C 
HETATM   20  C14 UNL     1      24.860   7.002  48.111  1.00  0.00     0.302 C 
HETATM   21  C15 UNL     1      24.550   5.873  49.052  1.00  0.00     0.302 C 
ENDBRANCH  14  15
ENDBRANCH  13  14
ENDBRANCH  12  13
ENDBRANCH   8  11
ENDBRANCH   6   7
ENDBRANCH   5   6
ENDBRANCH   4   5
ENDBRANCH   3   4
TORSDOF 8
ENDMDL
MODEL 7
REMARK VINA RESULT:      -5.0      3.808      8.383
REMARK  8 active torsions:
REMARK  status: ('A' for Active; 'I' for Inactive)
REMARK    1  A    between atoms: C3_3  and  C4_4 
REMARK    2  A    between atoms: C4_4  and  N1_5 
REMARK    3  A    between atoms: N1_5  and  C5_6 
REMARK    4  A    between atoms: C5_6  and  N2_7 
REMARK       I    between atoms: N2_7  and  C6_8 
REMARK    5  A    between atoms: C6_8  and  C7_10 
REMARK    6  A    between atoms: C8_11  and  C9_12 
REMARK    7  A    between atoms: C9_12  and  C10_13 
REMARK    8  A    between atoms: C10_13  and  N3_14 
ROOT
HETATM    1  C1  UNL     1      32.934   5.202  44.582  1.00  0.00     0.012 C 
HETATM    2  C2  UNL     1      33.010   4.624  45.650  1.00  0.00    -0.112 C 
HETATM    3  C3  UNL     1      33.126   3.928  46.944  1.00  0.00     0.139 C 
ENDROOT
BRANCH   3   4
HETATM    4  C4  UNL     1      32.823   4.896  48.047  1.00  0.00     0.097 C 
BRANCH   4   5
HETATM    5  N1  UNL     1      32.829   5.785  48.959  1.00  0.00    -0.285 NA
BRANCH   5   6
HETATM    6  C5  UNL     1      31.756   6.712  49.010  1.00  0.00     0.273 C 
BRANCH   6   7
HETATM    7  N2  UNL     1      30.487   6.072  49.262  1.00  0.00    -0.332 N 
HETATM    8  C6  UNL     1      29.441   5.978  48.332  1.00  0.00     0.297 C 
HETATM    9  O1  UNL     1      29.568   6.477  47.169  1.00  0.00    -0.258 OA
HETATM   10  H7  UNL     1      30.256   5.617  50.193  1.00  0.00     0.165 HD
BRANCH   8  11
HETATM   11  C7  UNL     1      28.175   5.324  48.621  1.00  0.00    -0.006 C 
HETATM   12  C8  UNL     1      27.139   4.769  48.869  1.00  0.00    -0.095 C 
BRANCH  12  13
HETATM   13  C9  UNL     1      25.871   4.117  49.178  1.00  0.00     0.124 C 
BRANCH  13  14
HETATM   14  C10 UNL     1      26.017   3.184  50.349  1.00  0.00     0.284 C 
BRANCH  14  15
HETATM   15  N3  UNL     1      24.689   2.943  50.896  1.00  0.00     0.092 N 
HETATM   16  C11 UNL     1      24.685   1.747  51.689  1.00  0.00     0.302 C 
HETATM   17  C12 UNL     1      23.340   1.164  51.937  1.00  0.00     0.302 C 
HETATM   18  N4  UNL     1      22.237   2.007  51.481  1.00  0.00     0.087 N 
HETATM   19  C13 UNL     1      22.200   3.275  52.155  1.00  0.00     0.310 C 
HETATM   20  C14 UNL     1      22.480   2.218  50.074  1.00  0.00     0.302 C 
HETATM   21  C15 UNL     1      23.765   2.949  49.807  1.00  0.00     0.302 C 
ENDBRANCH  14  15
ENDBRANCH  13  14
ENDBRANCH  12  13
ENDBRANCH   8  11
ENDBRANCH   6   7
ENDBRANCH   5   6
ENDBRANCH   4   5
ENDBRANCH   3   4
TORSDOF 8
ENDMDL
MODEL 8
REMARK VINA RESULT:      -4.9      3.135      4.316
REMARK  8 active torsions:
REMARK  status: ('A' for Active; 'I' for Inactive)
REMARK    1  A    between atoms: C3_3  and  C4_4 
REMARK    2  A    between atoms: C4_4  and  N1_5 
REMARK    3  A    between atoms: N1_5  and  C5_6 
REMARK    4  A    between atoms: C5_6  and  N2_7 
REMARK       I    between atoms: N2_7  and  C6_8 
REMARK    5  A    between atoms: C6_8  and  C7_10 
REMARK    6  A    between atoms: C8_11  and  C9_12 
REMARK    7  A    between atoms: C9_12  and  C10_13 
REMARK    8  A    between atoms: C10_13  and  N3_14 
ROOT
HETATM    1  C1  UNL     1      22.165  -0.426  54.093  1.00  0.00     0.012 C 
HETATM    2  C2  UNL     1      23.366  -0.308  53.934  1.00  0.00    -0.112 C 
HETATM    3  C3  UNL     1      24.819  -0.181  53.723  1.00  0.00     0.139 C 
ENDROOT
BRANCH   3   4
HETATM    4  C4  UNL     1      25.083   1.011  52.855  1.00  0.00     0.097 C 
BRANCH   4   5
HETATM    5  N1  UNL     1      25.416   2.129  52.343  1.00  0.00    -0.285 NA
BRANCH   5   6
HETATM    6  C5  UNL     1      24.907   2.468  51.063  1.00  0.00     0.273 C 
BRANCH   6   7
HETATM    7  N2  UNL     1      25.873   3.173  50.255  1.00  0.00    -0.332 N 
HETATM    8  C6  UNL     1      25.833   4.547  49.978  1.00  0.00     0.297 C 
HETATM    9  O1  UNL     1      24.898   5.270  50.448  1.00  0.00    -0.258 OA
HETATM   10  H7  UNL     1      26.701   2.684  49.806  1.00  0.00     0.165 HD
BRANCH   8  11
HETATM   11  C7  UNL     1      26.825   5.224  49.160  1.00  0.00    -0.006 C 
HETATM   12  C8  UNL     1      27.637   5.802  48.490  1.00  0.00    -0.095 C 
BRANCH  12  13
HETATM   13  C9  UNL     1      28.642   6.489  47.684  1.00  0.00     0.124 C 
BRANCH  13  14
HETATM   14  C10 UNL     1      29.746   7.031  48.550  1.00  0.00     0.284 C 
BRANCH  14  15
HETATM   15  N3  UNL     1      31.010   6.528  48.029  1.00  0.00     0.092 N 
HETATM   16  C11 UNL     1      30.884   5.147  47.662  1.00  0.00     0.302 C 
HETATM   17  C12 UNL     1      32.170   4.412  47.532  1.00  0.00     0.302 C 
HETATM   18  N4  UNL     1      33.351   5.269  47.627  1.00  0.00     0.087 N 
HETATM   19  C13 UNL     1      33.401   6.253  46.582  1.00  0.00     0.310 C 
HETATM   20  C14 UNL     1      33.236   5.929  48.905  1.00  0.00     0.302 C 
HETATM   21  C15 UNL     1      32.019   6.804  49.002  1.00  0.00     0.302 C 
ENDBRANCH  14  15
ENDBRANCH  13  14
ENDBRANCH  12  13
ENDBRANCH   8  11
ENDBRANCH   6   7
ENDBRANCH   5   6
ENDBRANCH   4   5
ENDBRANCH   3   4
TORSDOF 8
ENDMDL
MODEL 9
REMARK VINA RESULT:      -4.9      6.124      8.712
REMARK  8 active torsions:
REMARK  status: ('A' for Active; 'I' for Inactive)
REMARK    1  A    between atoms: C3_3  and  C4_4 
REMARK    2  A    between atoms: C4_4  and  N1_5 
REMARK    3  A    between atoms: N1_5  and  C5_6 
REMARK    4  A    between atoms: C5_6  and  N2_7 
REMARK       I    between atoms: N2_7  and  C6_8 
REMARK    5  A    between atoms: C6_8  and  C7_10 
REMARK    6  A    between atoms: C8_11  and  C9_12 
REMARK    7  A    between atoms: C9_12  and  C10_13 
REMARK    8  A    between atoms: C10_13  and  N3_14 
ROOT
HETATM    1  C1  UNL     1      28.738   8.320  45.781  1.00  0.00     0.012 C 
HETATM    2  C2  UNL     1      27.646   8.242  46.312  1.00  0.00    -0.112 C 
HETATM    3  C3  UNL     1      26.325   8.122  46.954  1.00  0.00     0.139 C 
ENDROOT
BRANCH   3   4
HETATM    4  C4  UNL     1      26.501   8.150  48.441  1.00  0.00     0.097 C 
BRANCH   4   5
HETATM    5  N1  UNL     1      26.712   8.436  49.665  1.00  0.00    -0.285 NA
BRANCH   5   6
HETATM    6  C5  UNL     1      27.746   9.355  49.978  1.00  0.00     0.273 C 
BRANCH   6   7
HETATM    7  N2  UNL     1      29.061   8.799  49.767  1.00  0.00    -0.332 N 
HETATM    8  C6  UNL     1      30.093   9.433  49.061  1.00  0.00     0.297 C 
HETATM    9  O1  UNL     1      29.909  10.582  48.548  1.00  0.00    -0.258 OA
HETATM   10  H7  UNL     1      29.341   7.847  50.145  1.00  0.00     0.165 HD
BRANCH   8  11
HETATM   11  C7  UNL     1      31.408   8.842  48.870  1.00  0.00    -0.006 C 
HETATM   12  C8  UNL     1      32.485   8.341  48.697  1.00  0.00    -0.095 C 
BRANCH  12  13
HETATM   13  C9  UNL     1      33.805   7.755  48.488  1.00  0.00     0.124 C 
BRANCH  13  14
HETATM   14  C10 UNL     1      34.005   7.384  47.043  1.00  0.00     0.284 C 
BRANCH  14  15
HETATM   15  N3  UNL     1      33.530   6.019  46.863  1.00  0.00     0.092 N 
HETATM   16  C11 UNL     1      34.546   5.082  47.246  1.00  0.00     0.302 C 
HETATM   17  C12 UNL     1      34.362   3.705  46.716  1.00  0.00     0.302 C 
HETATM   18  N4  UNL     1      33.081   3.499  46.043  1.00  0.00     0.087 N 
HETATM   19  C13 UNL     1      31.961   3.691  46.920  1.00  0.00     0.310 C 
HETATM   20  C14 UNL     1      33.043   4.488  44.992  1.00  0.00     0.302 C 
HETATM   21  C15 UNL     1      33.071   5.896  45.516  1.00  0.00     0.302 C 
ENDBRANCH  14  15
ENDBRANCH  13  14
ENDBRANCH  12  13
ENDBRANCH   8  11
ENDBRANCH   6   7
ENDBRANCH   5   6
ENDBRANCH   4   5
ENDBRANCH   3   4
TORSDOF 8
ENDMDL
