MODEL 1
REMARK VINA RESULT:      -7.2      0.000      0.000
REMARK  8 active torsions:
REMARK  status: ('A' for Active; 'I' for Inactive)
REMARK    1  A    between atoms: C2_2  and  C3_4 
REMARK    2  A    between atoms: C3_4  and  C4_6 
REMARK    3  A    between atoms: C5_7  and  N1_8 
REMARK    4  A    between atoms: N1_8  and  C6_9 
REMARK    5  A    between atoms: C10_15  and  O1_16 
REMARK    6  A    between atoms: O1_16  and  C11_17 
REMARK    7  A    between atoms: C11_17  and  C12_18 
REMARK    8  A    between atoms: C12_18  and  O2_19 
ROOT
HETATM    1  C6  UNL     1      22.191   0.978  53.031  1.00  0.00     0.144 A 
HETATM    2  N2  UNL     1      21.257   0.439  53.834  1.00  0.00    -0.223 NA
HETATM    3  C7  UNL     1      21.608  -0.553  54.706  1.00  0.00     0.236 A 
HETATM    4  N3  UNL     1      22.895  -0.937  54.707  1.00  0.00    -0.241 NA
HETATM    5  C8  UNL     1      23.835  -0.408  53.912  1.00  0.00     0.077 A 
HETATM    6  C9  UNL     1      25.142  -0.816  53.929  1.00  0.00     0.072 A 
HETATM    7  C10 UNL     1      26.151  -0.315  53.140  1.00  0.00     0.107 A 
HETATM    8  C14 UNL     1      25.754   0.704  52.256  1.00  0.00     0.136 A 
HETATM    9  C15 UNL     1      24.435   1.170  52.184  1.00  0.00     0.121 A 
HETATM   10  C16 UNL     1      23.512   0.590  53.025  1.00  0.00     0.075 A 
HETATM   11  O3  UNL     1      24.022   2.168  51.324  1.00  0.00    -0.345 OA
HETATM   12  C17 UNL     1      24.933   2.966  50.576  1.00  0.00     0.202 C 
HETATM   13  C18 UNL     1      26.337   2.752  51.074  1.00  0.00     0.202 C 
HETATM   14  O4  UNL     1      26.597   1.369  51.355  1.00  0.00    -0.344 OA
ENDROOT
BRANCH   1  15
HETATM   15  N1  UNL     1      21.704   1.992  52.175  1.00  0.00    -0.350 N 
HETATM   16  H6  UNL     1      21.821   2.799  51.539  1.00  0.00     0.166 HD
BRANCH  15  17
HETATM   17  C5  UNL     1      20.288   2.107  51.960  1.00  0.00     0.089 C 
HETATM   18  C4  UNL     1      19.698   1.797  50.796  1.00  0.00     0.032 C 
BRANCH  18  19
HETATM   19  C3  UNL     1      18.238   1.905  50.545  1.00  0.00     0.238 C 
HETATM   20  F1  UNL     1      17.685   2.587  51.612  1.00  0.00    -0.239 F 
BRANCH  19  21
HETATM   21  C2  UNL     1      17.587   0.583  50.461  1.00  0.00     0.040 C 
HETATM   22  C1  UNL     1      16.771  -0.306  49.904  1.00  0.00     0.035 C 
HETATM   23 CL1  UNL     1      17.982  -0.612  51.682  1.00  0.00    -0.086 Cl
ENDBRANCH  19  21
ENDBRANCH  18  19
ENDBRANCH  15  17
ENDBRANCH   1  15
BRANCH   7  24
HETATM   24  O1  UNL     1      27.431  -0.586  53.025  1.00  0.00    -0.346 OA
BRANCH  24  25
HETATM   25  C11 UNL     1      28.630  -0.505  53.629  1.00  0.00     0.201 C 
BRANCH  25  26
HETATM   26  C12 UNL     1      28.622   0.430  54.810  1.00  0.00     0.193 C 
BRANCH  26  27
HETATM   27  O2  UNL     1      29.412   1.545  54.684  1.00  0.00    -0.394 OA
HETATM   28  C13 UNL     1      28.792   2.443  53.817  1.00  0.00     0.201 C 
ENDBRANCH  26  27
ENDBRANCH  25  26
ENDBRANCH  24  25
ENDBRANCH   7  24
TORSDOF 8
ENDMDL
MODEL 2
REMARK VINA RESULT:      -7.2      4.063      8.196
REMARK  8 active torsions:
REMARK  status: ('A' for Active; 'I' for Inactive)
REMARK    1  A    between atoms: C2_2  and  C3_4 
REMARK    2  A    between atoms: C3_4  and  C4_6 
REMARK    3  A    between atoms: C5_7  and  N1_8 
REMARK    4  A    between atoms: N1_8  and  C6_9 
REMARK    5  A    between atoms: C10_15  and  O1_16 
REMARK    6  A    between atoms: O1_16  and  C11_17 
REMARK    7  A    between atoms: C11_17  and  C12_18 
REMARK    8  A    between atoms: C12_18  and  O2_19 
ROOT
HETATM    1  C6  UNL     1      23.242  -0.221  53.410  1.00  0.00     0.144 A 
HETATM    2  N2  UNL     1      23.654  -0.859  54.520  1.00  0.00    -0.223 NA
HETATM    3  C7  UNL     1      22.737  -1.474  55.324  1.00  0.00     0.236 A 
HETATM    4  N3  UNL     1      21.450  -1.403  54.948  1.00  0.00    -0.241 NA
HETATM    5  C8  UNL     1      21.026  -0.772  53.844  1.00  0.00     0.077 A 
HETATM    6  C9  UNL     1      19.708  -0.712  53.479  1.00  0.00     0.072 A 
HETATM    7  C10 UNL     1      19.210  -0.081  52.363  1.00  0.00     0.107 A 
HETATM    8  C14 UNL     1      20.182   0.540  51.558  1.00  0.00     0.136 A 
HETATM    9  C15 UNL     1      21.548   0.520  51.870  1.00  0.00     0.121 A 
HETATM   10  C16 UNL     1      21.925  -0.144  53.016  1.00  0.00     0.075 A 
HETATM   11  O3  UNL     1      22.518   1.123  51.096  1.00  0.00    -0.345 OA
HETATM   12  C17 UNL     1      22.255   1.646  49.799  1.00  0.00     0.202 C 
HETATM   13  C18 UNL     1      20.902   1.191  49.324  1.00  0.00     0.202 C 
HETATM   14  O4  UNL     1      19.923   1.244  50.374  1.00  0.00    -0.344 OA
ENDROOT
BRANCH   1  15
HETATM   15  N1  UNL     1      24.283   0.375  52.663  1.00  0.00    -0.350 N 
HETATM   16  H6  UNL     1      24.697   0.755  51.795  1.00  0.00     0.166 HD
BRANCH  15  17
HETATM   17  C5  UNL     1      25.520   0.695  53.320  1.00  0.00     0.089 C 
HETATM   18  C4  UNL     1      26.712   0.252  52.892  1.00  0.00     0.032 C 
BRANCH  18  19
HETATM   19  C3  UNL     1      28.006   0.567  53.550  1.00  0.00     0.238 C 
HETATM   20  F1  UNL     1      28.589   1.600  52.843  1.00  0.00    -0.239 F 
BRANCH  19  21
HETATM   21  C2  UNL     1      28.934  -0.581  53.532  1.00  0.00     0.040 C 
HETATM   22  C1  UNL     1      30.117  -1.155  53.725  1.00  0.00     0.035 C 
HETATM   23 CL1  UNL     1      28.323  -2.130  52.982  1.00  0.00    -0.086 Cl
ENDBRANCH  19  21
ENDBRANCH  18  19
ENDBRANCH  15  17
ENDBRANCH   1  15
BRANCH   7  24
HETATM   24  O1  UNL     1      18.002   0.075  51.872  1.00  0.00    -0.346 OA
BRANCH  24  25
HETATM   25  C11 UNL     1      17.027  -0.501  51.146  1.00  0.00     0.201 C 
BRANCH  25  26
HETATM   26  C12 UNL     1      15.779  -0.756  51.951  1.00  0.00     0.193 C 
BRANCH  26  27
HETATM   27  O2  UNL     1      15.663  -0.021  53.105  1.00  0.00    -0.394 OA
HETATM   28  C13 UNL     1      14.537   0.794  53.012  1.00  0.00     0.201 C 
ENDBRANCH  26  27
ENDBRANCH  25  26
ENDBRANCH  24  25
ENDBRANCH   7  24
TORSDOF 8
ENDMDL
MODEL 3
REMARK VINA RESULT:      -7.1      3.911      8.030
REMARK  8 active torsions:
REMARK  status: ('A' for Active; 'I' for Inactive)
REMARK    1  A    between atoms: C2_2  and  C3_4 
REMARK    2  A    between atoms: C3_4  and  C4_6 
REMARK    3  A    between atoms: C5_7  and  N1_8 
REMARK    4  A    between atoms: N1_8  and  C6_9 
REMARK    5  A    between atoms: C10_15  and  O1_16 
REMARK    6  A    between atoms: O1_16  and  C11_17 
REMARK    7  A    between atoms: C11_17  and  C12_18 
REMARK    8  A    between atoms: C12_18  and  O2_19 
ROOT
HETATM    1  C6  UNL     1      22.901   0.377  53.224  1.00  0.00     0.144 A 
HETATM    2  N2  UNL     1      22.710  -0.861  53.713  1.00  0.00    -0.223 NA
HETATM    3  C7  UNL     1      21.438  -1.334  53.872  1.00  0.00     0.236 A 
HETATM    4  N3  UNL     1      20.433  -0.515  53.522  1.00  0.00    -0.241 NA
HETATM    5  C8  UNL     1      20.610   0.720  53.033  1.00  0.00     0.077 A 
HETATM    6  C9  UNL     1      19.570   1.539  52.682  1.00  0.00     0.072 A 
HETATM    7  C10 UNL     1      19.685   2.813  52.178  1.00  0.00     0.107 A 
HETATM    8  C14 UNL     1      21.007   3.268  52.027  1.00  0.00     0.136 A 
HETATM    9  C15 UNL     1      22.119   2.484  52.365  1.00  0.00     0.121 A 
HETATM   10  C16 UNL     1      21.877   1.223  52.862  1.00  0.00     0.075 A 
HETATM   11  O3  UNL     1      23.425   2.910  52.226  1.00  0.00    -0.345 OA
HETATM   12  C17 UNL     1      23.778   4.101  51.532  1.00  0.00     0.202 C 
HETATM   13  C18 UNL     1      22.591   4.625  50.769  1.00  0.00     0.202 C 
HETATM   14  O4  UNL     1      21.381   4.526  51.535  1.00  0.00    -0.344 OA
ENDROOT
BRANCH   1  15
HETATM   15  N1  UNL     1      24.258   0.751  53.107  1.00  0.00    -0.350 N 
HETATM   16  H6  UNL     1      25.020   1.441  52.991  1.00  0.00     0.166 HD
BRANCH  15  17
HETATM   17  C5  UNL     1      25.271  -0.268  53.154  1.00  0.00     0.089 C 
HETATM   18  C4  UNL     1      26.448  -0.158  52.519  1.00  0.00     0.032 C 
BRANCH  18  19
HETATM   19  C3  UNL     1      27.512  -1.194  52.550  1.00  0.00     0.238 C 
HETATM   20  F1  UNL     1      26.966  -2.332  53.111  1.00  0.00    -0.239 F 
BRANCH  19  21
HETATM   21  C2  UNL     1      28.665  -0.784  53.377  1.00  0.00     0.040 C 
HETATM   22  C1  UNL     1      29.964  -0.659  53.626  1.00  0.00     0.035 C 
HETATM   23 CL1  UNL     1      28.342  -0.021  54.922  1.00  0.00    -0.086 Cl
ENDBRANCH  19  21
ENDBRANCH  18  19
ENDBRANCH  15  17
ENDBRANCH   1  15
BRANCH   7  24
HETATM   24  O1  UNL     1      18.814   3.722  51.801  1.00  0.00    -0.346 OA
BRANCH  24  25
HETATM   25  C11 UNL     1      17.956   4.085  50.831  1.00  0.00     0.201 C 
BRANCH  25  26
HETATM   26  C12 UNL     1      16.550   4.270  51.342  1.00  0.00     0.193 C 
BRANCH  26  27
HETATM   27  O2  UNL     1      16.426   4.355  52.706  1.00  0.00    -0.394 OA
HETATM   28  C13 UNL     1      15.127   4.003  53.065  1.00  0.00     0.201 C 
ENDBRANCH  26  27
ENDBRANCH  25  26
ENDBRANCH  24  25
ENDBRANCH   7  24
TORSDOF 8
ENDMDL
MODEL 4
REMARK VINA RESULT:      -7.0      4.571      7.127
REMARK  8 active torsions:
REMARK  status: ('A' for Active; 'I' for Inactive)
REMARK    1  A    between atoms: C2_2  and  C3_4 
REMARK    2  A    between atoms: C3_4  and  C4_6 
REMARK    3  A    between atoms: C5_7  and  N1_8 
REMARK    4  A    between atoms: N1_8  and  C6_9 
REMARK    5  A    between atoms: C10_15  and  O1_16 
REMARK    6  A    between atoms: O1_16  and  C11_17 
REMARK    7  A    between atoms: C11_17  and  C12_18 
REMARK    8  A    between atoms: C12_18  and  O2_19 
ROOT
HETATM    1  C6  UNL     1      26.187   2.634  50.873  1.00  0.00     0.144 A 
HETATM    2  N2  UNL     1      27.373   2.622  51.507  1.00  0.00    -0.223 NA
HETATM    3  C7  UNL     1      27.439   2.200  52.805  1.00  0.00     0.236 A 
HETATM    4  N3  UNL     1      26.289   1.814  53.381  1.00  0.00    -0.241 NA
HETATM    5  C8  UNL     1      25.101   1.821  52.761  1.00  0.00     0.077 A 
HETATM    6  C9  UNL     1      23.940   1.424  53.368  1.00  0.00     0.072 A 
HETATM    7  C10 UNL     1      22.694   1.409  52.788  1.00  0.00     0.107 A 
HETATM    8  C14 UNL     1      22.663   1.848  51.452  1.00  0.00     0.136 A 
HETATM    9  C15 UNL     1      23.811   2.269  50.768  1.00  0.00     0.121 A 
HETATM   10  C16 UNL     1      25.004   2.240  51.455  1.00  0.00     0.075 A 
HETATM   11  O3  UNL     1      23.804   2.705  49.458  1.00  0.00    -0.345 OA
HETATM   12  C17 UNL     1      22.671   2.573  48.607  1.00  0.00     0.202 C 
HETATM   13  C18 UNL     1      21.651   1.667  49.244  1.00  0.00     0.202 C 
HETATM   14  O4  UNL     1      21.515   1.923  50.650  1.00  0.00    -0.344 OA
ENDROOT
BRANCH   1  15
HETATM   15  N1  UNL     1      26.249   3.090  49.537  1.00  0.00    -0.350 N 
HETATM   16  H6  UNL     1      26.034   3.025  48.527  1.00  0.00     0.166 HD
BRANCH  15  17
HETATM   17  C5  UNL     1      26.967   4.300  49.243  1.00  0.00     0.089 C 
HETATM   18  C4  UNL     1      26.367   5.424  48.824  1.00  0.00     0.032 C 
BRANCH  18  19
HETATM   19  C3  UNL     1      27.083   6.687  48.513  1.00  0.00     0.238 C 
HETATM   20  F1  UNL     1      28.437   6.418  48.566  1.00  0.00    -0.239 F 
BRANCH  19  21
HETATM   21  C2  UNL     1      26.790   7.751  49.494  1.00  0.00     0.040 C 
HETATM   22  C1  UNL     1      27.013   8.924  50.077  1.00  0.00     0.035 C 
HETATM   23 CL1  UNL     1      25.430   7.522  50.578  1.00  0.00    -0.086 Cl
ENDBRANCH  19  21
ENDBRANCH  18  19
ENDBRANCH  15  17
ENDBRANCH   1  15
BRANCH   7  24
HETATM   24  O1  UNL     1      21.499   1.070  53.214  1.00  0.00    -0.346 OA
BRANCH  24  25
HETATM   25  C11 UNL     1      20.746   0.061  53.689  1.00  0.00     0.201 C 
BRANCH  25  26
HETATM   26  C12 UNL     1      21.527  -1.218  53.847  1.00  0.00     0.193 C 
BRANCH  26  27
HETATM   27  O2  UNL     1      21.728  -1.629  55.141  1.00  0.00    -0.394 OA
HETATM   28  C13 UNL     1      23.068  -1.442  55.472  1.00  0.00     0.201 C 
ENDBRANCH  26  27
ENDBRANCH  25  26
ENDBRANCH  24  25
ENDBRANCH   7  24
TORSDOF 8
ENDMDL
MODEL 5
REMARK VINA RESULT:      -6.8      3.943      7.851
REMARK  8 active torsions:
REMARK  status: ('A' for Active; 'I' for Inactive)
REMARK    1  A    between atoms: C2_2  and  C3_4 
REMARK    2  A    between atoms: C3_4  and  C4_6 
REMARK    3  A    between atoms: C5_7  and  N1_8 
REMARK    4  A    between atoms: N1_8  and  C6_9 
REMARK    5  A    between atoms: C10_15  and  O1_16 
REMARK    6  A    between atoms: O1_16  and  C11_17 
REMARK    7  A    between atoms: C11_17  and  C12_18 
REMARK    8  A    between atoms: C12_18  and  O2_19 
ROOT
HETATM    1  C6  UNL     1      23.650   1.087  52.927  1.00  0.00     0.144 A 
HETATM    2  N2  UNL     1      23.754  -0.195  53.319  1.00  0.00    -0.223 NA
HETATM    3  C7  UNL     1      22.621  -0.935  53.511  1.00  0.00     0.236 A 
HETATM    4  N3  UNL     1      21.446  -0.322  53.291  1.00  0.00    -0.241 NA
HETATM    5  C8  UNL     1      21.329   0.955  52.900  1.00  0.00     0.077 A 
HETATM    6  C9  UNL     1      20.121   1.560  52.682  1.00  0.00     0.072 A 
HETATM    7  C10 UNL     1      19.935   2.862  52.283  1.00  0.00     0.107 A 
HETATM    8  C14 UNL     1      21.121   3.594  52.094  1.00  0.00     0.136 A 
HETATM    9  C15 UNL     1      22.391   3.039  52.299  1.00  0.00     0.121 A 
HETATM   10  C16 UNL     1      22.451   1.723  52.699  1.00  0.00     0.075 A 
HETATM   11  O3  UNL     1      23.569   3.738  52.120  1.00  0.00    -0.345 OA
HETATM   12  C17 UNL     1      23.618   5.023  51.511  1.00  0.00     0.202 C 
HETATM   13  C18 UNL     1      22.295   5.340  50.867  1.00  0.00     0.202 C 
HETATM   14  O4  UNL     1      21.191   4.935  51.690  1.00  0.00    -0.344 OA
ENDROOT
BRANCH   1  15
HETATM   15  N1  UNL     1      24.890   1.745  52.764  1.00  0.00    -0.350 N 
HETATM   16  H6  UNL     1      25.524   2.420  52.304  1.00  0.00     0.166 HD
BRANCH  15  17
HETATM   17  C5  UNL     1      25.980   1.411  53.638  1.00  0.00     0.089 C 
HETATM   18  C4  UNL     1      27.265   1.626  53.319  1.00  0.00     0.032 C 
BRANCH  18  19
HETATM   19  C3  UNL     1      28.412   1.291  54.201  1.00  0.00     0.238 C 
HETATM   20  F1  UNL     1      29.336   2.311  54.084  1.00  0.00    -0.239 F 
BRANCH  19  21
HETATM   21  C2  UNL     1      29.070   0.030  53.805  1.00  0.00     0.040 C 
HETATM   22  C1  UNL     1      30.122  -0.773  53.681  1.00  0.00     0.035 C 
HETATM   23 CL1  UNL     1      28.083  -1.225  53.080  1.00  0.00    -0.086 Cl
ENDBRANCH  19  21
ENDBRANCH  18  19
ENDBRANCH  15  17
ENDBRANCH   1  15
BRANCH   7  24
HETATM   24  O1  UNL     1      18.871   3.592  52.036  1.00  0.00    -0.346 OA
BRANCH  24  25
HETATM   25  C11 UNL     1      17.830   3.770  51.203  1.00  0.00     0.201 C 
BRANCH  25  26
HETATM   26  C12 UNL     1      18.097   3.236  49.820  1.00  0.00     0.193 C 
BRANCH  26  27
HETATM   27  O2  UNL     1      19.028   3.932  49.090  1.00  0.00    -0.394 OA
HETATM   28  C13 UNL     1      19.783   3.030  48.343  1.00  0.00     0.201 C 
ENDBRANCH  26  27
ENDBRANCH  25  26
ENDBRANCH  24  25
ENDBRANCH   7  24
TORSDOF 8
ENDMDL
MODEL 6
REMARK VINA RESULT:      -6.6      4.044      8.224
REMARK  8 active torsions:
REMARK  status: ('A' for Active; 'I' for Inactive)
REMARK    1  A    between atoms: C2_2  and  C3_4 
REMARK    2  A    between atoms: C3_4  and  C4_6 
REMARK    3  A    between atoms: C5_7  and  N1_8 
REMARK    4  A    between atoms: N1_8  and  C6_9 
REMARK    5  A    between atoms: C10_15  and  O1_16 
REMARK    6  A    between atoms: O1_16  and  C11_17 
REMARK    7  A    between atoms: C11_17  and  C12_18 
REMARK    8  A    between atoms: C12_18  and  O2_19 
ROOT
HETATM    1  C6  UNL     1      24.096   1.873  51.436  1.00  0.00     0.144 A 
HETATM    2  N2  UNL     1      24.676   2.682  50.532  1.00  0.00    -0.223 NA
HETATM    3  C7  UNL     1      23.944   3.148  49.476  1.00  0.00     0.236 A 
HETATM    4  N3  UNL     1      22.660   2.762  49.405  1.00  0.00    -0.241 NA
HETATM    5  C8  UNL     1      22.069   1.958  50.300  1.00  0.00     0.077 A 
HETATM    6  C9  UNL     1      20.758   1.576  50.208  1.00  0.00     0.072 A 
HETATM    7  C10 UNL     1      20.096   0.754  51.089  1.00  0.00     0.107 A 
HETATM    8  C14 UNL     1      20.878   0.293  52.163  1.00  0.00     0.136 A 
HETATM    9  C15 UNL     1      22.226   0.643  52.320  1.00  0.00     0.121 A 
HETATM   10  C16 UNL     1      22.780   1.473  51.371  1.00  0.00     0.075 A 
HETATM   11  O3  UNL     1      23.014   0.202  53.365  1.00  0.00    -0.345 OA
HETATM   12  C17 UNL     1      22.483  -0.478  54.497  1.00  0.00     0.202 C 
HETATM   13  C18 UNL     1      20.982  -0.378  54.502  1.00  0.00     0.202 C 
HETATM   14  O4  UNL     1      20.431  -0.552  53.188  1.00  0.00    -0.344 OA
ENDROOT
BRANCH   1  15
HETATM   15  N1  UNL     1      24.954   1.458  52.478  1.00  0.00    -0.350 N 
HETATM   16  H6  UNL     1      25.246   1.403  53.469  1.00  0.00     0.166 HD
BRANCH  15  17
HETATM   17  C5  UNL     1      26.109   0.664  52.159  1.00  0.00     0.089 C 
HETATM   18  C4  UNL     1      26.449  -0.440  52.840  1.00  0.00     0.032 C 
BRANCH  18  19
HETATM   19  C3  UNL     1      27.635  -1.279  52.533  1.00  0.00     0.238 C 
HETATM   20  F1  UNL     1      27.273  -2.597  52.732  1.00  0.00    -0.239 F 
BRANCH  19  21
HETATM   21  C2  UNL     1      28.775  -0.979  53.422  1.00  0.00     0.040 C 
HETATM   22  C1  UNL     1      30.055  -1.041  53.776  1.00  0.00     0.035 C 
HETATM   23 CL1  UNL     1      28.471  -0.021  54.859  1.00  0.00    -0.086 Cl
ENDBRANCH  19  21
ENDBRANCH  18  19
ENDBRANCH  15  17
ENDBRANCH   1  15
BRANCH   7  24
HETATM   24  O1  UNL     1      18.868   0.291  51.151  1.00  0.00    -0.346 OA
BRANCH  24  25
HETATM   25  C11 UNL     1      17.602   0.579  51.502  1.00  0.00     0.201 C 
BRANCH  25  26
HETATM   26  C12 UNL     1      16.902  -0.586  52.153  1.00  0.00     0.193 C 
BRANCH  26  27
HETATM   27  O2  UNL     1      17.657  -1.724  52.290  1.00  0.00    -0.394 OA
HETATM   28  C13 UNL     1      17.407  -2.286  53.540  1.00  0.00     0.201 C 
ENDBRANCH  26  27
ENDBRANCH  25  26
ENDBRANCH  24  25
ENDBRANCH   7  24
TORSDOF 8
ENDMDL
MODEL 7
REMARK VINA RESULT:      -6.6      3.922      7.945
REMARK  8 active torsions:
REMARK  status: ('A' for Active; 'I' for Inactive)
REMARK    1  A    between atoms: C2_2  and  C3_4 
REMARK    2  A    between atoms: C3_4  and  C4_6 
REMARK    3  A    between atoms: C5_7  and  N1_8 
REMARK    4  A    between atoms: N1_8  and  C6_9 
REMARK    5  A    between atoms: C10_15  and  O1_16 
REMARK    6  A    between atoms: O1_16  and  C11_17 
REMARK    7  A    between atoms: C11_17  and  C12_18 
REMARK    8  A    between atoms: C12_18  and  O2_19 
ROOT
HETATM    1  C6  UNL     1      22.712   0.110  53.318  1.00  0.00     0.144 A 
HETATM    2  N2  UNL     1      22.626  -0.687  54.397  1.00  0.00    -0.223 NA
HETATM    3  C7  UNL     1      21.436  -1.288  54.698  1.00  0.00     0.236 A 
HETATM    4  N3  UNL     1      20.402  -1.040  53.877  1.00  0.00    -0.241 NA
HETATM    5  C8  UNL     1      20.475  -0.248  52.798  1.00  0.00     0.077 A 
HETATM    6  C9  UNL     1      19.408  -0.009  51.975  1.00  0.00     0.072 A 
HETATM    7  C10 UNL     1      19.418   0.792  50.857  1.00  0.00     0.107 A 
HETATM    8  C14 UNL     1      20.658   1.394  50.578  1.00  0.00     0.136 A 
HETATM    9  C15 UNL     1      21.792   1.194  51.376  1.00  0.00     0.121 A 
HETATM   10  C16 UNL     1      21.658   0.370  52.471  1.00  0.00     0.075 A 
HETATM   11  O3  UNL     1      23.019   1.774  51.122  1.00  0.00    -0.345 OA
HETATM   12  C17 UNL     1      23.310   2.463  49.911  1.00  0.00     0.202 C 
HETATM   13  C18 UNL     1      22.224   2.210  48.900  1.00  0.00     0.202 C 
HETATM   14  O4  UNL     1      20.920   2.249  49.498  1.00  0.00    -0.344 OA
ENDROOT
BRANCH   1  15
HETATM   15  N1  UNL     1      23.993   0.672  53.114  1.00  0.00    -0.350 N 
HETATM   16  H6  UNL     1      24.635   1.450  52.888  1.00  0.00     0.166 HD
BRANCH  15  17
HETATM   17  C5  UNL     1      25.154  -0.160  53.265  1.00  0.00     0.089 C 
HETATM   18  C4  UNL     1      26.227  -0.071  52.464  1.00  0.00     0.032 C 
BRANCH  18  19
HETATM   19  C3  UNL     1      27.441  -0.917  52.596  1.00  0.00     0.238 C 
HETATM   20  F1  UNL     1      27.019  -2.208  52.847  1.00  0.00    -0.239 F 
BRANCH  19  21
HETATM   21  C2  UNL     1      28.298  -0.490  53.720  1.00  0.00     0.040 C 
HETATM   22  C1  UNL     1      28.532   0.155  54.858  1.00  0.00     0.035 C 
HETATM   23 CL1  UNL     1      29.965  -1.036  53.740  1.00  0.00    -0.086 Cl
ENDBRANCH  19  21
ENDBRANCH  18  19
ENDBRANCH  15  17
ENDBRANCH   1  15
BRANCH   7  24
HETATM   24  O1  UNL     1      18.506   1.130  49.975  1.00  0.00    -0.346 OA
BRANCH  24  25
HETATM   25  C11 UNL     1      17.193   1.348  49.780  1.00  0.00     0.201 C 
BRANCH  25  26
HETATM   26  C12 UNL     1      16.908   2.726  49.242  1.00  0.00     0.193 C 
BRANCH  26  27
HETATM   27  O2  UNL     1      17.943   3.318  48.562  1.00  0.00    -0.394 OA
HETATM   28  C13 UNL     1      17.717   3.190  47.194  1.00  0.00     0.201 C 
ENDBRANCH  26  27
ENDBRANCH  25  26
ENDBRANCH  24  25
ENDBRANCH   7  24
TORSDOF 8
ENDMDL
MODEL 8
REMARK VINA RESULT:      -6.6      4.342      8.670
REMARK  8 active torsions:
REMARK  status: ('A' for Active; 'I' for Inactive)
REMARK    1  A    between atoms: C2_2  and  C3_4 
REMARK    2  A    between atoms: C3_4  and  C4_6 
REMARK    3  A    between atoms: C5_7  and  N1_8 
REMARK    4  A    between atoms: N1_8  and  C6_9 
REMARK    5  A    between atoms: C10_15  and  O1_16 
REMARK    6  A    between atoms: O1_16  and  C11_17 
REMARK    7  A    between atoms: C11_17  and  C12_18 
REMARK    8  A    between atoms: C12_18  and  O2_19 
ROOT
HETATM    1  C6  UNL     1      23.216   2.479  52.702  1.00  0.00     0.144 A 
HETATM    2  N2  UNL     1      24.066   3.515  52.602  1.00  0.00    -0.223 NA
HETATM    3  C7  UNL     1      23.608   4.723  52.156  1.00  0.00     0.236 A 
HETATM    4  N3  UNL     1      22.306   4.802  51.837  1.00  0.00    -0.241 NA
HETATM    5  C8  UNL     1      21.448   3.777  51.932  1.00  0.00     0.077 A 
HETATM    6  C9  UNL     1      20.123   3.880  51.601  1.00  0.00     0.072 A 
HETATM    7  C10 UNL     1      19.195   2.869  51.674  1.00  0.00     0.107 A 
HETATM    8  C14 UNL     1      19.700   1.641  52.138  1.00  0.00     0.136 A 
HETATM    9  C15 UNL     1      21.044   1.463  52.494  1.00  0.00     0.121 A 
HETATM   10  C16 UNL     1      21.880   2.551  52.377  1.00  0.00     0.075 A 
HETATM   11  O3  UNL     1      21.562   0.267  52.950  1.00  0.00    -0.345 OA
HETATM   12  C17 UNL     1      20.745  -0.843  53.303  1.00  0.00     0.202 C 
HETATM   13  C18 UNL     1      19.302  -0.420  53.374  1.00  0.00     0.202 C 
HETATM   14  O4  UNL     1      18.953   0.466  52.299  1.00  0.00    -0.344 OA
ENDROOT
BRANCH   1  15
HETATM   15  N1  UNL     1      23.808   1.286  53.173  1.00  0.00    -0.350 N 
HETATM   16  H6  UNL     1      23.841   0.446  53.776  1.00  0.00     0.166 HD
BRANCH  15  17
HETATM   17  C5  UNL     1      25.058   0.855  52.611  1.00  0.00     0.089 C 
HETATM   18  C4  UNL     1      25.674  -0.279  52.979  1.00  0.00     0.032 C 
BRANCH  18  19
HETATM   19  C3  UNL     1      26.966  -0.748  52.416  1.00  0.00     0.238 C 
HETATM   20  F1  UNL     1      26.821  -2.087  52.108  1.00  0.00    -0.239 F 
BRANCH  19  21
HETATM   21  C2  UNL     1      28.075  -0.618  53.381  1.00  0.00     0.040 C 
HETATM   22  C1  UNL     1      28.709  -0.030  54.390  1.00  0.00     0.035 C 
HETATM   23 CL1  UNL     1      29.365  -1.804  53.321  1.00  0.00    -0.086 Cl
ENDBRANCH  19  21
ENDBRANCH  18  19
ENDBRANCH  15  17
ENDBRANCH   1  15
BRANCH   7  24
HETATM   24  O1  UNL     1      17.913   2.792  51.399  1.00  0.00    -0.346 OA
BRANCH  24  25
HETATM   25  C11 UNL     1      16.720   3.395  51.546  1.00  0.00     0.201 C 
BRANCH  25  26
HETATM   26  C12 UNL     1      15.635   2.438  51.967  1.00  0.00     0.193 C 
BRANCH  26  27
HETATM   27  O2  UNL     1      14.535   3.014  52.550  1.00  0.00    -0.394 OA
HETATM   28  C13 UNL     1      14.942   4.127  53.283  1.00  0.00     0.201 C 
ENDBRANCH  26  27
ENDBRANCH  25  26
ENDBRANCH  24  25
ENDBRANCH   7  24
TORSDOF 8
ENDMDL
MODEL 9
REMARK VINA RESULT:      -6.5      1.831      3.279
REMARK  8 active torsions:
REMARK  status: ('A' for Active; 'I' for Inactive)
REMARK    1  A    between atoms: C2_2  and  C3_4 
REMARK    2  A    between atoms: C3_4  and  C4_6 
REMARK    3  A    between atoms: C5_7  and  N1_8 
REMARK    4  A    between atoms: N1_8  and  C6_9 
REMARK    5  A    between atoms: C10_15  and  O1_16 
REMARK    6  A    between atoms: O1_16  and  C11_17 
REMARK    7  A    between atoms: C11_17  and  C12_18 
REMARK    8  A    between atoms: C12_18  and  O2_19 
ROOT
HETATM    1  C6  UNL     1      22.231   2.954  51.891  1.00  0.00     0.144 A 
HETATM    2  N2  UNL     1      22.431   3.959  51.021  1.00  0.00    -0.223 NA
HETATM    3  C7  UNL     1      23.649   4.098  50.418  1.00  0.00     0.236 A 
HETATM    4  N3  UNL     1      24.595   3.200  50.739  1.00  0.00    -0.241 NA
HETATM    5  C8  UNL     1      24.409   2.193  51.603  1.00  0.00     0.077 A 
HETATM    6  C9  UNL     1      25.388   1.288  51.916  1.00  0.00     0.072 A 
HETATM    7  C10 UNL     1      25.261   0.237  52.793  1.00  0.00     0.107 A 
HETATM    8  C14 UNL     1      23.994   0.124  53.394  1.00  0.00     0.136 A 
HETATM    9  C15 UNL     1      22.946   1.013  53.122  1.00  0.00     0.121 A 
HETATM   10  C16 UNL     1      23.194   2.028  52.225  1.00  0.00     0.075 A 
HETATM   11  O3  UNL     1      21.696   0.923  53.700  1.00  0.00    -0.345 OA
HETATM   12  C17 UNL     1      21.282  -0.201  54.468  1.00  0.00     0.202 C 
HETATM   13  C18 UNL     1      22.264  -1.330  54.303  1.00  0.00     0.202 C 
HETATM   14  O4  UNL     1      23.621  -0.862  54.319  1.00  0.00    -0.344 OA
ENDROOT
BRANCH   1  15
HETATM   15  N1  UNL     1      20.933   2.917  52.447  1.00  0.00    -0.350 N 
HETATM   16  H6  UNL     1      20.259   3.005  53.226  1.00  0.00     0.166 HD
BRANCH  15  17
HETATM   17  C5  UNL     1      19.817   2.597  51.599  1.00  0.00     0.089 C 
HETATM   18  C4  UNL     1      19.790   1.517  50.804  1.00  0.00     0.032 C 
BRANCH  18  19
HETATM   19  C3  UNL     1      18.652   1.161  49.918  1.00  0.00     0.238 C 
HETATM   20  F1  UNL     1      17.930   2.317  49.688  1.00  0.00    -0.239 F 
BRANCH  19  21
HETATM   21  C2  UNL     1      17.747   0.175  50.541  1.00  0.00     0.040 C 
HETATM   22  C1  UNL     1      17.307  -0.556  51.560  1.00  0.00     0.035 C 
HETATM   23 CL1  UNL     1      16.493  -0.540  49.545  1.00  0.00    -0.086 Cl
ENDBRANCH  19  21
ENDBRANCH  18  19
ENDBRANCH  15  17
ENDBRANCH   1  15
BRANCH   7  24
HETATM   24  O1  UNL     1      26.078  -0.705  53.205  1.00  0.00    -0.346 OA
BRANCH  24  25
HETATM   25  C11 UNL     1      27.136  -1.466  52.870  1.00  0.00     0.201 C 
BRANCH  25  26
HETATM   26  C12 UNL     1      28.432  -0.932  53.423  1.00  0.00     0.193 C 
BRANCH  26  27
HETATM   27  O2  UNL     1      28.671   0.398  53.182  1.00  0.00    -0.394 OA
HETATM   28  C13 UNL     1      29.034   1.016  54.376  1.00  0.00     0.201 C 
ENDBRANCH  26  27
ENDBRANCH  25  26
ENDBRANCH  24  25
ENDBRANCH   7  24
TORSDOF 8
ENDMDL
