MODEL 1
REMARK VINA RESULT:      -7.5      0.000      0.000
REMARK  4 active torsions:
REMARK  status: ('A' for Active; 'I' for Inactive)
REMARK    1  A    between atoms: O1_2  and  C2_3 
REMARK    2  A    between atoms: C12_15  and  N3_16 
REMARK    3  A    between atoms: C15_20  and  C16_21 
REMARK    4  A    between atoms: C16_21  and  O2_22 
ROOT
HETATM    1  C2  UNL     1      26.844   0.259  52.945  1.00  0.00     0.068 A 
HETATM    2  C3  UNL     1      25.690  -0.322  53.418  1.00  0.00     0.037 A 
HETATM    3  C4  UNL     1      24.496   0.181  52.948  1.00  0.00     0.011 A 
HETATM    4  C5  UNL     1      24.388   1.217  52.046  1.00  0.00    -0.039 A 
HETATM    5  C6  UNL     1      25.580   1.788  51.583  1.00  0.00    -0.020 A 
HETATM    6  C7  UNL     1      26.810   1.306  52.035  1.00  0.00     0.046 A 
HETATM    7  C8  UNL     1      25.651   2.927  50.595  1.00  0.00     0.317 C 
HETATM    8  N1  UNL     1      24.315   3.385  50.418  1.00  0.00     0.148 N 
HETATM    9  C9  UNL     1      23.336   2.367  50.231  1.00  0.00     0.292 C 
HETATM   10  C10 UNL     1      23.047   1.706  51.584  1.00  0.00     0.088 C 
HETATM   11  C11 UNL     1      22.508   2.793  52.443  1.00  0.00     0.099 C 
HETATM   12  N2  UNL     1      23.470   3.603  52.638  1.00  0.00    -0.243 NA
HETATM   13  C12 UNL     1      24.040   4.288  51.542  1.00  0.00     0.569 C 
ENDROOT
BRANCH  13  14
HETATM   14  N3  UNL     1      23.327   5.371  50.997  1.00  0.00     0.083 N 
HETATM   15  C13 UNL     1      23.814   6.046  50.851  1.00  0.00     0.094 A 
HETATM   16  P1  UNL     1      24.354   6.831  50.675  1.00  0.00     0.128 P 
HETATM   17  C14 UNL     1      25.567   8.706  50.237  1.00  0.00     0.064 A 
HETATM   18  H14 UNL     1      24.613   7.190  50.596  1.00  0.00     0.115 HD
HETATM   19  C15 UNL     1      23.853   8.066  50.109  1.00  0.00     0.095 A 
HETATM   20  C16 UNL     1      23.002   6.749  50.419  1.00  0.00     0.350 A 
BRANCH  20  21
HETATM   21  O2  UNL     1      22.044   7.322  51.292  1.00  0.00    -0.367 OA
HETATM   22  H18 UNL     1      22.566   7.946  51.864  1.00  0.00     0.212 HD
ENDBRANCH  20  21
ENDBRANCH  13  14
BRANCH   1  23
HETATM   23  O1  UNL     1      28.101  -0.160  53.342  1.00  0.00    -0.356 OA
HETATM   24  C1  UNL     1      28.613   0.025  54.630  1.00  0.00     0.210 C 
ENDBRANCH   1  23
TORSDOF 4
ENDMDL
MODEL 2
REMARK VINA RESULT:      -7.2      2.545      3.087
REMARK  4 active torsions:
REMARK  status: ('A' for Active; 'I' for Inactive)
REMARK    1  A    between atoms: O1_2  and  C2_3 
REMARK    2  A    between atoms: C12_15  and  N3_16 
REMARK    3  A    between atoms: C15_20  and  C16_21 
REMARK    4  A    between atoms: C16_21  and  O2_22 
ROOT
HETATM    1  C2  UNL     1      24.527  -0.501  54.451  1.00  0.00     0.068 A 
HETATM    2  C3  UNL     1      23.392  -1.156  54.869  1.00  0.00     0.037 A 
HETATM    3  C4  UNL     1      22.249  -0.969  54.122  1.00  0.00     0.011 A 
HETATM    4  C5  UNL     1      22.173  -0.176  52.999  1.00  0.00    -0.039 A 
HETATM    5  C6  UNL     1      23.345   0.479  52.598  1.00  0.00    -0.020 A 
HETATM    6  C7  UNL     1      24.523   0.314  53.328  1.00  0.00     0.046 A 
HETATM    7  C8  UNL     1      23.446   1.384  51.395  1.00  0.00     0.317 C 
HETATM    8  N1  UNL     1      22.117   1.565  50.918  1.00  0.00     0.148 N 
HETATM    9  C9  UNL     1      21.330   0.380  50.830  1.00  0.00     0.292 C 
HETATM   10  C10 UNL     1      20.887  -0.025  52.241  1.00  0.00     0.088 C 
HETATM   11  C11 UNL     1      20.063   1.109  52.733  1.00  0.00     0.099 C 
HETATM   12  N2  UNL     1      20.859   2.092  52.876  1.00  0.00    -0.243 NA
HETATM   13  C12 UNL     1      21.526   2.621  51.748  1.00  0.00     0.569 C 
ENDROOT
BRANCH  13  14
HETATM   14  N3  UNL     1      20.789   3.433  50.867  1.00  0.00     0.083 N 
HETATM   15  C13 UNL     1      21.046   4.238  50.867  1.00  0.00     0.094 A 
HETATM   16  P1  UNL     1      21.324   5.166  50.853  1.00  0.00     0.128 P 
HETATM   17  C14 UNL     1      21.930   7.358  50.772  1.00  0.00     0.064 A 
HETATM   18  H14 UNL     1      21.460   5.594  50.853  1.00  0.00     0.115 HD
HETATM   19  C15 UNL     1      20.727   6.193  50.024  1.00  0.00     0.095 A 
HETATM   20  C16 UNL     1      20.301   4.653  50.084  1.00  0.00     0.350 A 
BRANCH  20  21
HETATM   21  O2  UNL     1      18.942   4.827  50.441  1.00  0.00    -0.367 OA
HETATM   22  H18 UNL     1      18.435   4.295  49.772  1.00  0.00     0.212 HD
ENDBRANCH  20  21
ENDBRANCH  13  14
BRANCH   1  23
HETATM   23  O1  UNL     1      25.734  -0.612  55.118  1.00  0.00    -0.356 OA
HETATM   24  C1  UNL     1      26.844   0.199  54.861  1.00  0.00     0.210 C 
ENDBRANCH   1  23
TORSDOF 4
ENDMDL
MODEL 3
REMARK VINA RESULT:      -7.1      3.774      5.551
REMARK  4 active torsions:
REMARK  status: ('A' for Active; 'I' for Inactive)
REMARK    1  A    between atoms: O1_2  and  C2_3 
REMARK    2  A    between atoms: C12_15  and  N3_16 
REMARK    3  A    between atoms: C15_20  and  C16_21 
REMARK    4  A    between atoms: C16_21  and  O2_22 
ROOT
HETATM    1  C2  UNL     1      26.083  -0.100  53.022  1.00  0.00     0.068 A 
HETATM    2  C3  UNL     1      26.530   0.794  52.077  1.00  0.00     0.037 A 
HETATM    3  C4  UNL     1      25.602   1.664  51.547  1.00  0.00     0.011 A 
HETATM    4  C5  UNL     1      24.271   1.694  51.901  1.00  0.00    -0.039 A 
HETATM    5  C6  UNL     1      23.845   0.772  52.865  1.00  0.00    -0.020 A 
HETATM    6  C7  UNL     1      24.756  -0.126  53.425  1.00  0.00     0.046 A 
HETATM    7  C8  UNL     1      22.427   0.662  53.370  1.00  0.00     0.317 C 
HETATM    8  N1  UNL     1      21.642   1.517  52.546  1.00  0.00     0.148 N 
HETATM    9  C9  UNL     1      22.193   2.808  52.301  1.00  0.00     0.292 C 
HETATM   10  C10 UNL     1      23.324   2.676  51.275  1.00  0.00     0.088 C 
HETATM   11  C11 UNL     1      22.679   2.145  50.046  1.00  0.00     0.099 C 
HETATM   12  N2  UNL     1      22.307   0.960  50.324  1.00  0.00    -0.243 NA
HETATM   13  C12 UNL     1      21.340   0.749  51.333  1.00  0.00     0.569 C 
ENDROOT
BRANCH  13  14
HETATM   14  N3  UNL     1      19.996   1.029  51.028  1.00  0.00     0.083 N 
HETATM   15  C13 UNL     1      19.455   0.503  51.410  1.00  0.00     0.094 A 
HETATM   16  P1  UNL     1      18.818  -0.088  51.838  1.00  0.00     0.128 P 
HETATM   17  C14 UNL     1      17.271  -1.442  52.813  1.00  0.00     0.064 A 
HETATM   18  H14 UNL     1      18.530  -0.367  52.040  1.00  0.00     0.115 HD
HETATM   19  C15 UNL     1      17.381   0.002  51.688  1.00  0.00     0.095 A 
HETATM   20  C16 UNL     1      18.469   0.951  51.001  1.00  0.00     0.350 A 
BRANCH  20  21
HETATM   21  O2  UNL     1      18.114   0.729  49.648  1.00  0.00    -0.367 OA
HETATM   22  H18 UNL     1      18.149  -0.259  49.537  1.00  0.00     0.212 HD
ENDBRANCH  20  21
ENDBRANCH  13  14
BRANCH   1  23
HETATM   23  O1  UNL     1      26.919  -1.021  53.625  1.00  0.00    -0.356 OA
HETATM   24  C1  UNL     1      28.304  -1.059  53.434  1.00  0.00     0.210 C 
ENDBRANCH   1  23
TORSDOF 4
ENDMDL
MODEL 4
REMARK VINA RESULT:      -7.0      4.455      7.368
REMARK  4 active torsions:
REMARK  status: ('A' for Active; 'I' for Inactive)
REMARK    1  A    between atoms: O1_2  and  C2_3 
REMARK    2  A    between atoms: C12_15  and  N3_16 
REMARK    3  A    between atoms: C15_20  and  C16_21 
REMARK    4  A    between atoms: C16_21  and  O2_22 
ROOT
HETATM    1  C2  UNL     1      17.968   0.003  51.090  1.00  0.00     0.068 A 
HETATM    2  C3  UNL     1      17.599  -1.001  51.955  1.00  0.00     0.037 A 
HETATM    3  C4  UNL     1      18.419  -1.230  53.039  1.00  0.00     0.011 A 
HETATM    4  C5  UNL     1      19.572  -0.525  53.306  1.00  0.00    -0.039 A 
HETATM    5  C6  UNL     1      19.923   0.491  52.408  1.00  0.00    -0.020 A 
HETATM    6  C7  UNL     1      19.117   0.753  51.298  1.00  0.00     0.046 A 
HETATM    7  C8  UNL     1      21.148   1.361  52.543  1.00  0.00     0.317 C 
HETATM    8  N1  UNL     1      21.914   0.810  53.609  1.00  0.00     0.148 N 
HETATM    9  C9  UNL     1      21.178   0.462  54.778  1.00  0.00     0.292 C 
HETATM   10  C10 UNL     1      20.410  -0.838  54.511  1.00  0.00     0.088 C 
HETATM   11  C11 UNL     1      21.454  -1.859  54.231  1.00  0.00     0.099 C 
HETATM   12  N2  UNL     1      21.991  -1.525  53.127  1.00  0.00    -0.243 NA
HETATM   13  C12 UNL     1      22.683  -0.298  53.027  1.00  0.00     0.569 C 
ENDROOT
BRANCH  13  14
HETATM   14  N3  UNL     1      23.965  -0.214  53.599  1.00  0.00     0.083 N 
HETATM   15  C13 UNL     1      24.512   0.218  53.121  1.00  0.00     0.094 A 
HETATM   16  P1  UNL     1      25.155   0.708  52.587  1.00  0.00     0.128 P 
HETATM   17  C14 UNL     1      26.712   1.851  51.384  1.00  0.00     0.064 A 
HETATM   18  H14 UNL     1      25.446   0.938  52.334  1.00  0.00     0.115 HD
HETATM   19  C15 UNL     1      26.534   0.938  52.964  1.00  0.00     0.095 A 
HETATM   20  C16 UNL     1      25.439   0.133  53.808  1.00  0.00     0.350 A 
BRANCH  20  21
HETATM   21  O2  UNL     1      26.121  -1.104  53.906  1.00  0.00    -0.367 OA
HETATM   22  H18 UNL     1      26.513  -1.104  54.820  1.00  0.00     0.212 HD
ENDBRANCH  20  21
ENDBRANCH  13  14
BRANCH   1  23
HETATM   23  O1  UNL     1      17.226   0.326  49.969  1.00  0.00    -0.356 OA
HETATM   24  C1  UNL     1      16.137  -0.423  49.513  1.00  0.00     0.210 C 
ENDBRANCH   1  23
TORSDOF 4
ENDMDL
MODEL 5
REMARK VINA RESULT:      -6.9      6.559      9.789
REMARK  4 active torsions:
REMARK  status: ('A' for Active; 'I' for Inactive)
REMARK    1  A    between atoms: O1_2  and  C2_3 
REMARK    2  A    between atoms: C12_15  and  N3_16 
REMARK    3  A    between atoms: C15_20  and  C16_21 
REMARK    4  A    between atoms: C16_21  and  O2_22 
ROOT
HETATM    1  C2  UNL     1      26.986   8.150  49.355  1.00  0.00     0.068 A 
HETATM    2  C3  UNL     1      27.613   9.232  49.931  1.00  0.00     0.037 A 
HETATM    3  C4  UNL     1      28.948   9.411  49.641  1.00  0.00     0.011 A 
HETATM    4  C5  UNL     1      29.685   8.584  48.822  1.00  0.00    -0.039 A 
HETATM    5  C6  UNL     1      29.020   7.491  48.251  1.00  0.00    -0.020 A 
HETATM    6  C7  UNL     1      27.667   7.276  48.521  1.00  0.00     0.046 A 
HETATM    7  C8  UNL     1      29.669   6.485  47.332  1.00  0.00     0.317 C 
HETATM    8  N1  UNL     1      31.063   6.772  47.346  1.00  0.00     0.148 N 
HETATM    9  C9  UNL     1      31.407   8.149  47.220  1.00  0.00     0.292 C 
HETATM   10  C10 UNL     1      31.138   8.850  48.557  1.00  0.00     0.088 C 
HETATM   11  C11 UNL     1      32.030   8.179  49.538  1.00  0.00     0.099 C 
HETATM   12  N2  UNL     1      31.593   6.990  49.662  1.00  0.00    -0.243 NA
HETATM   13  C12 UNL     1      31.601   6.122  48.547  1.00  0.00     0.569 C 
ENDROOT
BRANCH  13  14
HETATM   14  N3  UNL     1      32.830   5.558  48.159  1.00  0.00     0.083 N 
HETATM   15  C13 UNL     1      32.762   4.749  47.925  1.00  0.00     0.094 A 
HETATM   16  P1  UNL     1      32.706   3.820  47.654  1.00  0.00     0.128 P 
HETATM   17  C14 UNL     1      32.643   1.641  47.002  1.00  0.00     0.064 A 
HETATM   18  H14 UNL     1      32.670   3.391  47.529  1.00  0.00     0.115 HD
HETATM   19  C15 UNL     1      33.829   3.024  47.205  1.00  0.00     0.095 A 
HETATM   20  C16 UNL     1      33.873   4.555  47.665  1.00  0.00     0.350 A 
BRANCH  20  21
HETATM   21  O2  UNL     1      34.820   4.431  48.711  1.00  0.00    -0.367 OA
HETATM   22  H18 UNL     1      35.461   3.742  48.390  1.00  0.00     0.212 HD
ENDBRANCH  20  21
ENDBRANCH  13  14
BRANCH   1  23
HETATM   23  O1  UNL     1      25.650   7.867  49.571  1.00  0.00    -0.356 OA
HETATM   24  C1  UNL     1      25.193   6.884  50.454  1.00  0.00     0.210 C 
ENDBRANCH   1  23
TORSDOF 4
ENDMDL
MODEL 6
REMARK VINA RESULT:      -6.8      2.824      4.319
REMARK  4 active torsions:
REMARK  status: ('A' for Active; 'I' for Inactive)
REMARK    1  A    between atoms: O1_2  and  C2_3 
REMARK    2  A    between atoms: C12_15  and  N3_16 
REMARK    3  A    between atoms: C15_20  and  C16_21 
REMARK    4  A    between atoms: C16_21  and  O2_22 
ROOT
HETATM    1  C2  UNL     1      20.708   0.240  52.450  1.00  0.00     0.068 A 
HETATM    2  C3  UNL     1      21.773  -0.564  52.788  1.00  0.00     0.037 A 
HETATM    3  C4  UNL     1      22.995   0.050  52.953  1.00  0.00     0.011 A 
HETATM    4  C5  UNL     1      23.215   1.401  52.802  1.00  0.00    -0.039 A 
HETATM    5  C6  UNL     1      22.113   2.194  52.457  1.00  0.00    -0.020 A 
HETATM    6  C7  UNL     1      20.858   1.608  52.281  1.00  0.00     0.046 A 
HETATM    7  C8  UNL     1      22.169   3.688  52.251  1.00  0.00     0.317 C 
HETATM    8  N1  UNL     1      23.547   4.044  52.287  1.00  0.00     0.148 N 
HETATM    9  C9  UNL     1      24.305   3.461  53.343  1.00  0.00     0.292 C 
HETATM   10  C10 UNL     1      24.580   1.992  53.001  1.00  0.00     0.088 C 
HETATM   11  C11 UNL     1      25.377   2.025  51.747  1.00  0.00     0.099 C 
HETATM   12  N2  UNL     1      24.598   2.464  50.842  1.00  0.00    -0.243 NA
HETATM   13  C12 UNL     1      24.073   3.772  50.944  1.00  0.00     0.569 C 
ENDROOT
BRANCH  13  14
HETATM   14  N3  UNL     1      24.924   4.850  50.641  1.00  0.00     0.083 N 
HETATM   15  C13 UNL     1      24.679   5.281  49.956  1.00  0.00     0.094 A 
HETATM   16  P1  UNL     1      24.416   5.788  49.174  1.00  0.00     0.128 P 
HETATM   17  C14 UNL     1      23.852   7.023  47.348  1.00  0.00     0.064 A 
HETATM   18  H14 UNL     1      24.286   6.018  48.811  1.00  0.00     0.115 HD
HETATM   19  C15 UNL     1      25.124   6.945  48.666  1.00  0.00     0.095 A 
HETATM   20  C16 UNL     1      25.521   6.075  49.948  1.00  0.00     0.350 A 
BRANCH  20  21
HETATM   21  O2  UNL     1      26.827   5.700  49.548  1.00  0.00    -0.367 OA
HETATM   22  H18 UNL     1      26.834   4.708  49.612  1.00  0.00     0.212 HD
ENDBRANCH  20  21
ENDBRANCH  13  14
BRANCH   1  23
HETATM   23  O1  UNL     1      19.434  -0.261  52.257  1.00  0.00    -0.356 OA
HETATM   24  C1  UNL     1      18.542   0.225  51.297  1.00  0.00     0.210 C 
ENDBRANCH   1  23
TORSDOF 4
ENDMDL
MODEL 7
REMARK VINA RESULT:      -6.7      3.007      3.772
REMARK  4 active torsions:
REMARK  status: ('A' for Active; 'I' for Inactive)
REMARK    1  A    between atoms: O1_2  and  C2_3 
REMARK    2  A    between atoms: C12_15  and  N3_16 
REMARK    3  A    between atoms: C15_20  and  C16_21 
REMARK    4  A    between atoms: C16_21  and  O2_22 
ROOT
HETATM    1  C2  UNL     1      21.822  -1.081  54.428  1.00  0.00     0.068 A 
HETATM    2  C3  UNL     1      20.461  -1.267  54.350  1.00  0.00     0.037 A 
HETATM    3  C4  UNL     1      19.793  -0.601  53.346  1.00  0.00     0.011 A 
HETATM    4  C5  UNL     1      20.395   0.230  52.427  1.00  0.00    -0.039 A 
HETATM    5  C6  UNL     1      21.781   0.400  52.531  1.00  0.00    -0.020 A 
HETATM    6  C7  UNL     1      22.494  -0.259  53.535  1.00  0.00     0.046 A 
HETATM    7  C8  UNL     1      22.604   1.270  51.613  1.00  0.00     0.317 C 
HETATM    8  N1  UNL     1      21.676   1.985  50.803  1.00  0.00     0.148 N 
HETATM    9  C9  UNL     1      20.614   1.209  50.256  1.00  0.00     0.292 C 
HETATM   10  C10 UNL     1      19.593   0.919  51.362  1.00  0.00     0.088 C 
HETATM   11  C11 UNL     1      19.094   2.251  51.794  1.00  0.00     0.099 C 
HETATM   12  N2  UNL     1      20.077   2.833  52.356  1.00  0.00    -0.243 NA
HETATM   13  C12 UNL     1      21.235   3.133  51.605  1.00  0.00     0.569 C 
ENDROOT
BRANCH  13  14
HETATM   14  N3  UNL     1      21.184   4.222  50.718  1.00  0.00     0.083 N 
HETATM   15  C13 UNL     1      21.805   4.781  50.845  1.00  0.00     0.094 A 
HETATM   16  P1  UNL     1      22.508   5.435  50.975  1.00  0.00     0.128 P 
HETATM   17  C14 UNL     1      24.136   7.004  51.225  1.00  0.00     0.064 A 
HETATM   18  H14 UNL     1      22.838   5.731  51.041  1.00  0.00     0.115 HD
HETATM   19  C15 UNL     1      22.673   6.636  50.183  1.00  0.00     0.095 A 
HETATM   20  C16 UNL     1      21.529   5.533  50.009  1.00  0.00     0.350 A 
BRANCH  20  21
HETATM   21  O2  UNL     1      20.402   6.375  50.176  1.00  0.00    -0.367 OA
HETATM   22  H18 UNL     1      19.959   6.042  51.001  1.00  0.00     0.212 HD
ENDBRANCH  20  21
ENDBRANCH  13  14
BRANCH   1  23
HETATM   23  O1  UNL     1      22.600  -1.696  55.391  1.00  0.00    -0.356 OA
HETATM   24  C1  UNL     1      23.928  -1.351  55.659  1.00  0.00     0.210 C 
ENDBRANCH   1  23
TORSDOF 4
ENDMDL
MODEL 8
REMARK VINA RESULT:      -6.6      4.769      6.918
REMARK  4 active torsions:
REMARK  status: ('A' for Active; 'I' for Inactive)
REMARK    1  A    between atoms: O1_2  and  C2_3 
REMARK    2  A    between atoms: C12_15  and  N3_16 
REMARK    3  A    between atoms: C15_20  and  C16_21 
REMARK    4  A    between atoms: C16_21  and  O2_22 
ROOT
HETATM    1  C2  UNL     1      24.023   3.450  51.083  1.00  0.00     0.068 A 
HETATM    2  C3  UNL     1      24.544   3.294  52.347  1.00  0.00     0.037 A 
HETATM    3  C4  UNL     1      24.092   2.220  53.083  1.00  0.00     0.011 A 
HETATM    4  C5  UNL     1      23.162   1.306  52.638  1.00  0.00    -0.039 A 
HETATM    5  C6  UNL     1      22.650   1.492  51.347  1.00  0.00    -0.020 A 
HETATM    6  C7  UNL     1      23.084   2.568  50.571  1.00  0.00     0.046 A 
HETATM    7  C8  UNL     1      21.628   0.591  50.699  1.00  0.00     0.317 C 
HETATM    8  N1  UNL     1      21.188  -0.308  51.712  1.00  0.00     0.148 N 
HETATM    9  C9  UNL     1      22.218  -0.888  52.508  1.00  0.00     0.292 C 
HETATM   10  C10 UNL     1      22.723   0.162  53.504  1.00  0.00     0.088 C 
HETATM   11  C11 UNL     1      21.546   0.502  54.346  1.00  0.00     0.099 C 
HETATM   12  N2  UNL     1      20.723   1.100  53.581  1.00  0.00    -0.243 NA
HETATM   13  C12 UNL     1      20.165   0.413  52.480  1.00  0.00     0.569 C 
ENDROOT
BRANCH  13  14
HETATM   14  N3  UNL     1      19.147  -0.523  52.733  1.00  0.00     0.083 N 
HETATM   15  C13 UNL     1      18.422  -0.338  52.339  1.00  0.00     0.094 A 
HETATM   16  P1  UNL     1      17.583  -0.143  51.896  1.00  0.00     0.128 P 
HETATM   17  C14 UNL     1      15.585   0.256  50.882  1.00  0.00     0.064 A 
HETATM   18  H14 UNL     1      17.198  -0.045  51.686  1.00  0.00     0.115 HD
HETATM   19  C15 UNL     1      16.391  -0.960  51.994  1.00  0.00     0.095 A 
HETATM   20  C16 UNL     1      17.795  -1.238  52.707  1.00  0.00     0.350 A 
BRANCH  20  21
HETATM   21  O2  UNL     1      17.343  -1.268  54.049  1.00  0.00    -0.367 OA
HETATM   22  H18 UNL     1      17.576  -0.373  54.413  1.00  0.00     0.212 HD
ENDBRANCH  20  21
ENDBRANCH  13  14
BRANCH   1  23
HETATM   23  O1  UNL     1      24.399   4.488  50.250  1.00  0.00    -0.356 OA
HETATM   24  C1  UNL     1      23.591   5.593  49.966  1.00  0.00     0.210 C 
ENDBRANCH   1  23
TORSDOF 4
ENDMDL
MODEL 9
REMARK VINA RESULT:      -6.6      2.826      4.014
REMARK  4 active torsions:
REMARK  status: ('A' for Active; 'I' for Inactive)
REMARK    1  A    between atoms: O1_2  and  C2_3 
REMARK    2  A    between atoms: C12_15  and  N3_16 
REMARK    3  A    between atoms: C15_20  and  C16_21 
REMARK    4  A    between atoms: C16_21  and  O2_22 
ROOT
HETATM    1  C2  UNL     1      22.740  -0.472  53.500  1.00  0.00     0.068 A 
HETATM    2  C3  UNL     1      24.098  -0.324  53.666  1.00  0.00     0.037 A 
HETATM    3  C4  UNL     1      24.648   0.881  53.287  1.00  0.00     0.011 A 
HETATM    4  C5  UNL     1      23.932   1.932  52.758  1.00  0.00    -0.039 A 
HETATM    5  C6  UNL     1      22.552   1.752  52.600  1.00  0.00    -0.020 A 
HETATM    6  C7  UNL     1      21.958   0.545  52.973  1.00  0.00     0.046 A 
HETATM    7  C8  UNL     1      21.616   2.794  52.039  1.00  0.00     0.317 C 
HETATM    8  N1  UNL     1      22.438   3.849  51.553  1.00  0.00     0.148 N 
HETATM    9  C9  UNL     1      23.489   4.259  52.423  1.00  0.00     0.292 C 
HETATM   10  C10 UNL     1      24.610   3.214  52.370  1.00  0.00     0.088 C 
HETATM   11  C11 UNL     1      25.075   3.210  50.959  1.00  0.00     0.099 C 
HETATM   12  N2  UNL     1      24.115   2.741  50.268  1.00  0.00    -0.243 NA
HETATM   13  C12 UNL     1      22.885   3.435  50.217  1.00  0.00     0.569 C 
ENDROOT
BRANCH  13  14
HETATM   14  N3  UNL     1      22.811   4.587  49.415  1.00  0.00     0.083 N 
HETATM   15  C13 UNL     1      22.580   4.420  48.619  1.00  0.00     0.094 A 
HETATM   16  P1  UNL     1      22.317   4.251  47.702  1.00  0.00     0.128 P 
HETATM   17  C14 UNL     1      21.703   3.921  45.536  1.00  0.00     0.064 A 
HETATM   18  H14 UNL     1      22.194   4.163  47.279  1.00  0.00     0.115 HD
HETATM   19  C15 UNL     1      22.162   5.273  46.687  1.00  0.00     0.095 A 
HETATM   20  C16 UNL     1      22.596   5.503  48.209  1.00  0.00     0.350 A 
BRANCH  20  21
HETATM   21  O2  UNL     1      23.839   6.139  47.976  1.00  0.00    -0.367 OA
HETATM   22  H18 UNL     1      23.601   7.028  47.599  1.00  0.00     0.212 HD
ENDBRANCH  20  21
ENDBRANCH  13  14
BRANCH   1  23
HETATM   23  O1  UNL     1      22.074  -1.635  53.844  1.00  0.00    -0.356 OA
HETATM   24  C1  UNL     1      20.745  -1.674  54.275  1.00  0.00     0.210 C 
ENDBRANCH   1  23
TORSDOF 4
ENDMDL
