MODEL 1
REMARK VINA RESULT:      -8.8      0.000      0.000
REMARK  6 active torsions:
REMARK  status: ('A' for Active; 'I' for Inactive)
REMARK    1  A    between atoms: C5_7  and  C6_8 
REMARK    2  A    between atoms: C6_8  and  C7_9 
REMARK    3  A    between atoms: C8_10  and  C9_11 
REMARK    4  A    between atoms: N2_13  and  C10_14 
REMARK    5  A    between atoms: C16_20  and  C17_21 
REMARK    6  A    between atoms: C21_25  and  O3_26 
ROOT
HETATM    1  C9  UNL     1      22.767   2.309  51.449  1.00  0.00     0.057 C 
HETATM    2  N1  UNL     1      23.576   2.603  50.481  1.00  0.00    -0.176 NA
HETATM    3  N2  UNL     1      24.725   3.238  50.916  1.00  0.00    -0.260 N 
HETATM    4  C16 UNL     1      24.858   2.849  52.318  1.00  0.00     0.149 C 
HETATM    5  C24 UNL     1      23.405   2.764  52.741  1.00  0.00     0.093 C 
ENDROOT
BRANCH   1   6
HETATM    6  C8  UNL     1      21.449   1.648  51.473  1.00  0.00     0.029 C 
HETATM    7  C7  UNL     1      20.901   0.904  50.497  1.00  0.00     0.005 C 
BRANCH   7   8
HETATM    8  C6  UNL     1      19.614   0.452  50.929  1.00  0.00     0.039 C 
BRANCH   8   9
HETATM    9  C5  UNL     1      18.442  -0.032  51.220  1.00  0.00     0.098 C 
HETATM   10  C2  UNL     1      18.406  -0.660  52.537  1.00  0.00     0.080 C 
HETATM   11  C1  UNL     1      19.297  -0.857  53.526  1.00  0.00     0.074 C 
HETATM   12  O1  UNL     1      17.217  -1.221  52.968  1.00  0.00    -0.350 OA
HETATM   13  C3  UNL     1      15.934  -0.831  52.538  1.00  0.00     0.202 C 
HETATM   14  C4  UNL     1      16.022   0.095  51.355  1.00  0.00     0.202 C 
HETATM   15  O2  UNL     1      17.225  -0.115  50.619  1.00  0.00    -0.347 OA
ENDBRANCH   8   9
ENDBRANCH   7   8
ENDBRANCH   1   6
BRANCH   3  16
HETATM   16  C10 UNL     1      25.570   4.076  50.141  1.00  0.00     0.053 A 
HETATM   17  C11 UNL     1      26.724   3.621  49.487  1.00  0.00     0.031 A 
HETATM   18  C12 UNL     1      27.462   4.528  48.760  1.00  0.00     0.002 A 
HETATM   19  C13 UNL     1      27.153   5.848  48.626  1.00  0.00     0.000 A 
HETATM   20  C14 UNL     1      26.013   6.304  49.272  1.00  0.00     0.002 A 
HETATM   21  C15 UNL     1      25.260   5.412  50.005  1.00  0.00     0.031 A 
ENDBRANCH   3  16
BRANCH   4  22
HETATM   22  C17 UNL     1      25.487   1.530  52.463  1.00  0.00    -0.030 A 
HETATM   23  C18 UNL     1      26.354   0.822  51.665  1.00  0.00     0.009 A 
HETATM   24  C19 UNL     1      26.849  -0.421  51.973  1.00  0.00     0.003 A 
HETATM   25  C20 UNL     1      26.481  -1.050  53.153  1.00  0.00     0.037 A 
HETATM   26  C21 UNL     1      25.602  -0.384  54.009  1.00  0.00     0.068 A 
HETATM   27  C23 UNL     1      25.141   0.869  53.640  1.00  0.00     0.046 A 
BRANCH  26  28
HETATM   28  O3  UNL     1      25.249  -1.032  55.180  1.00  0.00    -0.356 OA
HETATM   29  C22 UNL     1      23.895  -1.305  55.425  1.00  0.00     0.210 C 
ENDBRANCH  26  28
ENDBRANCH   4  22
TORSDOF 6
ENDMDL
MODEL 2
REMARK VINA RESULT:      -8.6      3.200      8.601
REMARK  6 active torsions:
REMARK  status: ('A' for Active; 'I' for Inactive)
REMARK    1  A    between atoms: C5_7  and  C6_8 
REMARK    2  A    between atoms: C6_8  and  C7_9 
REMARK    3  A    between atoms: C8_10  and  C9_11 
REMARK    4  A    between atoms: N2_13  and  C10_14 
REMARK    5  A    between atoms: C16_20  and  C17_21 
REMARK    6  A    between atoms: C21_25  and  O3_26 
ROOT
HETATM    1  C9  UNL     1      22.782   0.549  52.753  1.00  0.00     0.057 C 
HETATM    2  N1  UNL     1      21.814  -0.243  52.414  1.00  0.00    -0.176 NA
HETATM    3  N2  UNL     1      20.639   0.432  52.141  1.00  0.00    -0.260 N 
HETATM    4  C16 UNL     1      21.059   1.789  51.797  1.00  0.00     0.149 C 
HETATM    5  C24 UNL     1      22.261   1.966  52.705  1.00  0.00     0.093 C 
ENDROOT
BRANCH   1   6
HETATM    6  C8  UNL     1      24.185   0.295  53.129  1.00  0.00     0.029 C 
HETATM    7  C7  UNL     1      25.159   1.210  53.281  1.00  0.00     0.005 C 
BRANCH   7   8
HETATM    8  C6  UNL     1      26.367   0.540  53.651  1.00  0.00     0.039 C 
BRANCH   8   9
HETATM    9  C5  UNL     1      27.501  -0.062  53.867  1.00  0.00     0.098 C 
HETATM   10  C2  UNL     1      27.611  -1.325  53.145  1.00  0.00     0.080 C 
HETATM   11  C1  UNL     1      26.821  -2.017  52.305  1.00  0.00     0.074 C 
HETATM   12  O1  UNL     1      28.769  -2.070  53.292  1.00  0.00    -0.350 OA
HETATM   13  C3  UNL     1      30.031  -1.548  53.631  1.00  0.00     0.202 C 
HETATM   14  C4  UNL     1      29.919  -0.112  54.072  1.00  0.00     0.202 C 
HETATM   15  O2  UNL     1      28.624   0.170  54.597  1.00  0.00    -0.347 OA
ENDBRANCH   8   9
ENDBRANCH   7   8
ENDBRANCH   1   6
BRANCH   3  16
HETATM   16  C10 UNL     1      19.326  -0.106  52.191  1.00  0.00     0.053 A 
HETATM   17  C11 UNL     1      18.341   0.166  51.231  1.00  0.00     0.031 A 
HETATM   18  C12 UNL     1      17.103  -0.419  51.383  1.00  0.00     0.002 A 
HETATM   19  C13 UNL     1      16.760  -1.251  52.406  1.00  0.00     0.000 A 
HETATM   20  C14 UNL     1      17.731  -1.522  53.359  1.00  0.00     0.002 A 
HETATM   21  C15 UNL     1      18.976  -0.947  53.225  1.00  0.00     0.031 A 
ENDBRANCH   3  16
BRANCH   4  22
HETATM   22  C17 UNL     1      21.487   1.891  50.396  1.00  0.00    -0.030 A 
HETATM   23  C18 UNL     1      21.258   1.100  49.295  1.00  0.00     0.009 A 
HETATM   24  C19 UNL     1      21.746   1.362  48.039  1.00  0.00     0.003 A 
HETATM   25  C20 UNL     1      22.530   2.484  47.811  1.00  0.00     0.037 A 
HETATM   26  C21 UNL     1      22.800   3.330  48.888  1.00  0.00     0.068 A 
HETATM   27  C23 UNL     1      22.276   3.009  50.129  1.00  0.00     0.046 A 
BRANCH  26  28
HETATM   28  O3  UNL     1      23.584   4.442  48.635  1.00  0.00    -0.356 OA
HETATM   29  C22 UNL     1      23.676   5.445  49.612  1.00  0.00     0.210 C 
ENDBRANCH  26  28
ENDBRANCH   4  22
TORSDOF 6
ENDMDL
MODEL 3
REMARK VINA RESULT:      -8.4      3.516      7.487
REMARK  6 active torsions:
REMARK  status: ('A' for Active; 'I' for Inactive)
REMARK    1  A    between atoms: C5_7  and  C6_8 
REMARK    2  A    between atoms: C6_8  and  C7_9 
REMARK    3  A    between atoms: C8_10  and  C9_11 
REMARK    4  A    between atoms: N2_13  and  C10_14 
REMARK    5  A    between atoms: C16_20  and  C17_21 
REMARK    6  A    between atoms: C21_25  and  O3_26 
ROOT
HETATM    1  C9  UNL     1      25.667   2.503  51.620  1.00  0.00     0.057 C 
HETATM    2  N1  UNL     1      26.223   1.348  51.430  1.00  0.00    -0.176 NA
HETATM    3  N2  UNL     1      26.359   0.620  52.597  1.00  0.00    -0.260 N 
HETATM    4  C16 UNL     1      25.347   1.166  53.499  1.00  0.00     0.149 C 
HETATM    5  C24 UNL     1      25.344   2.626  53.091  1.00  0.00     0.093 C 
ENDROOT
BRANCH   1   6
HETATM    6  C8  UNL     1      25.324   3.603  50.699  1.00  0.00     0.029 C 
HETATM    7  C7  UNL     1      24.431   3.566  49.694  1.00  0.00     0.005 C 
BRANCH   7   8
HETATM    8  C6  UNL     1      24.408   4.844  49.052  1.00  0.00     0.039 C 
BRANCH   8   9
HETATM    9  C5  UNL     1      24.468   6.044  48.554  1.00  0.00     0.098 C 
HETATM   10  C2  UNL     1      25.840   6.500  48.355  1.00  0.00     0.080 C 
HETATM   11  C1  UNL     1      27.060   5.974  48.562  1.00  0.00     0.074 C 
HETATM   12  O1  UNL     1      26.045   7.767  47.836  1.00  0.00    -0.350 OA
HETATM   13  C3  UNL     1      25.137   8.464  47.016  1.00  0.00     0.202 C 
HETATM   14  C4  UNL     1      23.800   7.773  46.986  1.00  0.00     0.202 C 
HETATM   15  O2  UNL     1      23.586   7.004  48.168  1.00  0.00    -0.347 OA
ENDBRANCH   8   9
ENDBRANCH   7   8
ENDBRANCH   1   6
BRANCH   3  16
HETATM   16  C10 UNL     1      27.290  -0.426  52.835  1.00  0.00     0.053 A 
HETATM   17  C11 UNL     1      27.022  -1.776  52.570  1.00  0.00     0.031 A 
HETATM   18  C12 UNL     1      28.006  -2.702  52.836  1.00  0.00     0.002 A 
HETATM   19  C13 UNL     1      29.235  -2.401  53.343  1.00  0.00     0.000 A 
HETATM   20  C14 UNL     1      29.505  -1.066  53.607  1.00  0.00     0.002 A 
HETATM   21  C15 UNL     1      28.533  -0.124  53.348  1.00  0.00     0.031 A 
ENDBRANCH   3  16
BRANCH   4  22
HETATM   22  C17 UNL     1      24.021   0.586  53.248  1.00  0.00    -0.030 A 
HETATM   23  C18 UNL     1      23.537  -0.697  53.339  1.00  0.00     0.009 A 
HETATM   24  C19 UNL     1      22.241  -1.057  53.063  1.00  0.00     0.003 A 
HETATM   25  C20 UNL     1      21.319  -0.102  52.661  1.00  0.00     0.037 A 
HETATM   26  C21 UNL     1      21.747   1.222  52.548  1.00  0.00     0.068 A 
HETATM   27  C23 UNL     1      23.068   1.517  52.843  1.00  0.00     0.046 A 
BRANCH  26  28
HETATM   28  O3  UNL     1      20.809   2.156  52.144  1.00  0.00    -0.356 OA
HETATM   29  C22 UNL     1      21.110   3.521  52.271  1.00  0.00     0.210 C 
ENDBRANCH  26  28
ENDBRANCH   4  22
TORSDOF 6
ENDMDL
MODEL 4
REMARK VINA RESULT:      -8.4      3.945      9.445
REMARK  6 active torsions:
REMARK  status: ('A' for Active; 'I' for Inactive)
REMARK    1  A    between atoms: C5_7  and  C6_8 
REMARK    2  A    between atoms: C6_8  and  C7_9 
REMARK    3  A    between atoms: C8_10  and  C9_11 
REMARK    4  A    between atoms: N2_13  and  C10_14 
REMARK    5  A    between atoms: C16_20  and  C17_21 
REMARK    6  A    between atoms: C21_25  and  O3_26 
ROOT
HETATM    1  C9  UNL     1      25.432   3.028  50.969  1.00  0.00     0.057 C 
HETATM    2  N1  UNL     1      25.281   1.827  51.429  1.00  0.00    -0.176 NA
HETATM    3  N2  UNL     1      24.109   1.670  52.146  1.00  0.00    -0.260 N 
HETATM    4  C16 UNL     1      23.229   2.729  51.658  1.00  0.00     0.149 C 
HETATM    5  C24 UNL     1      24.225   3.838  51.380  1.00  0.00     0.093 C 
ENDROOT
BRANCH   1   6
HETATM    6  C8  UNL     1      26.499   3.656  50.168  1.00  0.00     0.029 C 
HETATM    7  C7  UNL     1      26.353   4.618  49.240  1.00  0.00     0.005 C 
BRANCH   7   8
HETATM    8  C6  UNL     1      27.640   4.941  48.705  1.00  0.00     0.039 C 
BRANCH   8   9
HETATM    9  C5  UNL     1      28.767   5.351  48.201  1.00  0.00     0.098 C 
HETATM   10  C2  UNL     1      28.679   6.702  47.655  1.00  0.00     0.080 C 
HETATM   11  C1  UNL     1      27.710   7.628  47.551  1.00  0.00     0.074 C 
HETATM   12  O1  UNL     1      29.810   7.257  47.081  1.00  0.00    -0.350 OA
HETATM   13  C3  UNL     1      31.136   6.905  47.399  1.00  0.00     0.202 C 
HETATM   14  C4  UNL     1      31.174   5.665  48.252  1.00  0.00     0.202 C 
HETATM   15  O2  UNL     1      30.022   4.852  48.038  1.00  0.00    -0.347 OA
ENDBRANCH   8   9
ENDBRANCH   7   8
ENDBRANCH   1   6
BRANCH   3  16
HETATM   16  C10 UNL     1      23.850   0.683  53.135  1.00  0.00     0.053 A 
HETATM   17  C11 UNL     1      22.559   0.285  53.510  1.00  0.00     0.031 A 
HETATM   18  C12 UNL     1      22.433  -0.687  54.478  1.00  0.00     0.002 A 
HETATM   19  C13 UNL     1      23.478  -1.298  55.104  1.00  0.00     0.000 A 
HETATM   20  C14 UNL     1      24.757  -0.906  54.735  1.00  0.00     0.002 A 
HETATM   21  C15 UNL     1      24.906   0.065  53.770  1.00  0.00     0.031 A 
ENDBRANCH   3  16
BRANCH   4  22
HETATM   22  C17 UNL     1      22.558   2.351  50.408  1.00  0.00    -0.030 A 
HETATM   23  C18 UNL     1      21.932   1.195  50.004  1.00  0.00     0.009 A 
HETATM   24  C19 UNL     1      21.346   1.022  48.774  1.00  0.00     0.003 A 
HETATM   25  C20 UNL     1      21.361   2.048  47.840  1.00  0.00     0.037 A 
HETATM   26  C21 UNL     1      21.981   3.249  48.188  1.00  0.00     0.068 A 
HETATM   27  C23 UNL     1      22.552   3.358  49.446  1.00  0.00     0.046 A 
BRANCH  26  28
HETATM   28  O3  UNL     1      21.984   4.256  47.240  1.00  0.00    -0.356 OA
HETATM   29  C22 UNL     1      21.905   3.913  45.882  1.00  0.00     0.210 C 
ENDBRANCH  26  28
ENDBRANCH   4  22
TORSDOF 6
ENDMDL
MODEL 5
REMARK VINA RESULT:      -8.3      3.639      7.871
REMARK  6 active torsions:
REMARK  status: ('A' for Active; 'I' for Inactive)
REMARK    1  A    between atoms: C5_7  and  C6_8 
REMARK    2  A    between atoms: C6_8  and  C7_9 
REMARK    3  A    between atoms: C8_10  and  C9_11 
REMARK    4  A    between atoms: N2_13  and  C10_14 
REMARK    5  A    between atoms: C16_20  and  C17_21 
REMARK    6  A    between atoms: C21_25  and  O3_26 
ROOT
HETATM    1  C9  UNL     1      26.074   2.803  51.316  1.00  0.00     0.057 C 
HETATM    2  N1  UNL     1      26.548   1.608  51.152  1.00  0.00    -0.176 NA
HETATM    3  N2  UNL     1      26.425   0.822  52.283  1.00  0.00    -0.260 N 
HETATM    4  C16 UNL     1      25.331   1.426  53.040  1.00  0.00     0.149 C 
HETATM    5  C24 UNL     1      25.526   2.896  52.721  1.00  0.00     0.093 C 
ENDROOT
BRANCH   1   6
HETATM    6  C8  UNL     1      25.988   3.968  50.416  1.00  0.00     0.029 C 
HETATM    7  C7  UNL     1      24.954   4.303  49.625  1.00  0.00     0.005 C 
BRANCH   7   8
HETATM    8  C6  UNL     1      25.283   5.502  48.919  1.00  0.00     0.039 C 
BRANCH   8   9
HETATM    9  C5  UNL     1      25.657   6.622  48.373  1.00  0.00     0.098 C 
HETATM   10  C2  UNL     1      27.096   6.680  48.140  1.00  0.00     0.080 C 
HETATM   11  C1  UNL     1      28.132   5.849  48.353  1.00  0.00     0.074 C 
HETATM   12  O1  UNL     1      27.626   7.824  47.568  1.00  0.00    -0.350 OA
HETATM   13  C3  UNL     1      26.924   8.713  46.732  1.00  0.00     0.202 C 
HETATM   14  C4  UNL     1      25.449   8.412  46.745  1.00  0.00     0.202 C 
HETATM   15  O2  UNL     1      25.060   7.772  47.959  1.00  0.00    -0.347 OA
ENDBRANCH   8   9
ENDBRANCH   7   8
ENDBRANCH   1   6
BRANCH   3  16
HETATM   16  C10 UNL     1      27.207  -0.319  52.606  1.00  0.00     0.053 A 
HETATM   17  C11 UNL     1      26.786  -1.636  52.374  1.00  0.00     0.031 A 
HETATM   18  C12 UNL     1      27.634  -2.663  52.725  1.00  0.00     0.002 A 
HETATM   19  C13 UNL     1      28.864  -2.494  53.286  1.00  0.00     0.000 A 
HETATM   20  C14 UNL     1      29.285  -1.192  53.518  1.00  0.00     0.002 A 
HETATM   21  C15 UNL     1      28.451  -0.150  53.175  1.00  0.00     0.031 A 
ENDBRANCH   3  16
BRANCH   4  22
HETATM   22  C17 UNL     1      24.018   0.990  52.548  1.00  0.00    -0.030 A 
HETATM   23  C18 UNL     1      23.248   1.387  51.481  1.00  0.00     0.009 A 
HETATM   24  C19 UNL     1      22.023   0.851  51.169  1.00  0.00     0.003 A 
HETATM   25  C20 UNL     1      21.480  -0.159  51.949  1.00  0.00     0.037 A 
HETATM   26  C21 UNL     1      22.213  -0.609  53.049  1.00  0.00     0.068 A 
HETATM   27  C23 UNL     1      23.442  -0.026  53.308  1.00  0.00     0.046 A 
BRANCH  26  28
HETATM   28  O3  UNL     1      21.650  -1.616  53.813  1.00  0.00    -0.356 OA
HETATM   29  C22 UNL     1      22.183  -1.886  55.082  1.00  0.00     0.210 C 
ENDBRANCH  26  28
ENDBRANCH   4  22
TORSDOF 6
ENDMDL
MODEL 6
REMARK VINA RESULT:      -8.2      4.035      8.525
REMARK  6 active torsions:
REMARK  status: ('A' for Active; 'I' for Inactive)
REMARK    1  A    between atoms: C5_7  and  C6_8 
REMARK    2  A    between atoms: C6_8  and  C7_9 
REMARK    3  A    between atoms: C8_10  and  C9_11 
REMARK    4  A    between atoms: N2_13  and  C10_14 
REMARK    5  A    between atoms: C16_20  and  C17_21 
REMARK    6  A    between atoms: C21_25  and  O3_26 
ROOT
HETATM    1  C9  UNL     1      25.616   3.137  50.656  1.00  0.00     0.057 C 
HETATM    2  N1  UNL     1      24.818   2.953  51.660  1.00  0.00    -0.176 NA
HETATM    3  N2  UNL     1      24.717   1.625  52.029  1.00  0.00    -0.260 N 
HETATM    4  C16 UNL     1      25.943   1.005  51.531  1.00  0.00     0.149 C 
HETATM    5  C24 UNL     1      26.177   1.792  50.257  1.00  0.00     0.093 C 
ENDROOT
BRANCH   1   6
HETATM    6  C8  UNL     1      26.028   4.351  49.926  1.00  0.00     0.029 C 
HETATM    7  C7  UNL     1      27.064   4.470  49.078  1.00  0.00     0.005 C 
BRANCH   7   8
HETATM    8  C6  UNL     1      27.108   5.815  48.590  1.00  0.00     0.039 C 
BRANCH   8   9
HETATM    9  C5  UNL     1      27.187   6.990  48.038  1.00  0.00     0.098 C 
HETATM   10  C2  UNL     1      28.538   7.306  47.586  1.00  0.00     0.080 C 
HETATM   11  C1  UNL     1      29.723   6.671  47.600  1.00  0.00     0.074 C 
HETATM   12  O1  UNL     1      28.762   8.533  46.984  1.00  0.00    -0.350 OA
HETATM   13  C3  UNL     1      27.790   9.292  46.305  1.00  0.00     0.202 C 
HETATM   14  C4  UNL     1      26.412   8.732  46.536  1.00  0.00     0.202 C 
HETATM   15  O2  UNL     1      26.341   8.019  47.769  1.00  0.00    -0.347 OA
ENDBRANCH   8   9
ENDBRANCH   7   8
ENDBRANCH   1   6
BRANCH   3  16
HETATM   16  C10 UNL     1      23.642   1.025  52.738  1.00  0.00     0.053 A 
HETATM   17  C11 UNL     1      22.334   1.530  52.732  1.00  0.00     0.031 A 
HETATM   18  C12 UNL     1      21.373   0.859  53.454  1.00  0.00     0.002 A 
HETATM   19  C13 UNL     1      21.599  -0.271  54.183  1.00  0.00     0.000 A 
HETATM   20  C14 UNL     1      22.892  -0.773  54.193  1.00  0.00     0.002 A 
HETATM   21  C15 UNL     1      23.869  -0.116  53.476  1.00  0.00     0.031 A 
ENDBRANCH   3  16
BRANCH   4  22
HETATM   22  C17 UNL     1      27.072   1.212  52.447  1.00  0.00    -0.030 A 
HETATM   23  C18 UNL     1      27.675   2.347  52.936  1.00  0.00     0.009 A 
HETATM   24  C19 UNL     1      28.738   2.345  53.804  1.00  0.00     0.003 A 
HETATM   25  C20 UNL     1      29.279   1.147  54.248  1.00  0.00     0.037 A 
HETATM   26  C21 UNL     1      28.713  -0.043  53.789  1.00  0.00     0.068 A 
HETATM   27  C23 UNL     1      27.641   0.029  52.915  1.00  0.00     0.046 A 
BRANCH  26  28
HETATM   28  O3  UNL     1      29.270  -1.224  54.245  1.00  0.00    -0.356 OA
HETATM   29  C22 UNL     1      29.409  -2.299  53.355  1.00  0.00     0.210 C 
ENDBRANCH  26  28
ENDBRANCH   4  22
TORSDOF 6
ENDMDL
MODEL 7
REMARK VINA RESULT:      -8.1      4.506     10.125
REMARK  6 active torsions:
REMARK  status: ('A' for Active; 'I' for Inactive)
REMARK    1  A    between atoms: C5_7  and  C6_8 
REMARK    2  A    between atoms: C6_8  and  C7_9 
REMARK    3  A    between atoms: C8_10  and  C9_11 
REMARK    4  A    between atoms: N2_13  and  C10_14 
REMARK    5  A    between atoms: C16_20  and  C17_21 
REMARK    6  A    between atoms: C21_25  and  O3_26 
ROOT
HETATM    1  C9  UNL     1      25.864   3.805  49.992  1.00  0.00     0.057 C 
HETATM    2  N1  UNL     1      25.488   2.596  50.266  1.00  0.00    -0.176 NA
HETATM    3  N2  UNL     1      24.226   2.542  50.830  1.00  0.00    -0.260 N 
HETATM    4  C16 UNL     1      23.573   3.778  50.402  1.00  0.00     0.149 C 
HETATM    5  C24 UNL     1      24.744   4.741  50.383  1.00  0.00     0.093 C 
ENDROOT
BRANCH   1   6
HETATM    6  C8  UNL     1      27.101   4.348  49.399  1.00  0.00     0.029 C 
HETATM    7  C7  UNL     1      27.215   5.448  48.635  1.00  0.00     0.005 C 
BRANCH   7   8
HETATM    8  C6  UNL     1      28.589   5.616  48.272  1.00  0.00     0.039 C 
BRANCH   8   9
HETATM    9  C5  UNL     1      29.865   5.687  48.031  1.00  0.00     0.098 C 
HETATM   10  C2  UNL     1      30.217   6.834  47.200  1.00  0.00     0.080 C 
HETATM   11  C1  UNL     1      29.535   7.841  46.625  1.00  0.00     0.074 C 
HETATM   12  O1  UNL     1      31.546   7.023  46.864  1.00  0.00    -0.350 OA
HETATM   13  C3  UNL     1      32.645   6.562  47.614  1.00  0.00     0.202 C 
HETATM   14  C4  UNL     1      32.200   5.611  48.692  1.00  0.00     0.202 C 
HETATM   15  O2  UNL     1      30.976   4.967  48.344  1.00  0.00    -0.347 OA
ENDBRANCH   8   9
ENDBRANCH   7   8
ENDBRANCH   1   6
BRANCH   3  16
HETATM   16  C10 UNL     1      23.709   1.498  51.641  1.00  0.00     0.053 A 
HETATM   17  C11 UNL     1      22.381   1.052  51.576  1.00  0.00     0.031 A 
HETATM   18  C12 UNL     1      21.995   0.027  52.410  1.00  0.00     0.002 A 
HETATM   19  C13 UNL     1      22.815  -0.595  53.304  1.00  0.00     0.000 A 
HETATM   20  C14 UNL     1      24.130  -0.157  53.372  1.00  0.00     0.002 A 
HETATM   21  C15 UNL     1      24.536   0.869  52.546  1.00  0.00     0.031 A 
ENDBRANCH   3  16
BRANCH   4  22
HETATM   22  C17 UNL     1      23.014   3.661  49.049  1.00  0.00    -0.030 A 
HETATM   23  C18 UNL     1      22.640   2.578  48.289  1.00  0.00     0.009 A 
HETATM   24  C19 UNL     1      22.123   2.665  47.020  1.00  0.00     0.003 A 
HETATM   25  C20 UNL     1      21.948   3.902  46.418  1.00  0.00     0.037 A 
HETATM   26  C21 UNL     1      22.308   5.043  47.136  1.00  0.00     0.068 A 
HETATM   27  C23 UNL     1      22.823   4.886  48.412  1.00  0.00     0.046 A 
BRANCH  26  28
HETATM   28  O3  UNL     1      22.126   6.265  46.513  1.00  0.00    -0.356 OA
HETATM   29  C22 UNL     1      23.182   7.188  46.503  1.00  0.00     0.210 C 
ENDBRANCH  26  28
ENDBRANCH   4  22
TORSDOF 6
ENDMDL
MODEL 8
REMARK VINA RESULT:      -8.1      3.533      6.689
REMARK  6 active torsions:
REMARK  status: ('A' for Active; 'I' for Inactive)
REMARK    1  A    between atoms: C5_7  and  C6_8 
REMARK    2  A    between atoms: C6_8  and  C7_9 
REMARK    3  A    between atoms: C8_10  and  C9_11 
REMARK    4  A    between atoms: N2_13  and  C10_14 
REMARK    5  A    between atoms: C16_20  and  C17_21 
REMARK    6  A    between atoms: C21_25  and  O3_26 
ROOT
HETATM    1  C9  UNL     1      24.914   2.833  51.157  1.00  0.00     0.057 C 
HETATM    2  N1  UNL     1      25.757   1.850  51.182  1.00  0.00    -0.176 NA
HETATM    3  N2  UNL     1      26.072   1.445  52.466  1.00  0.00    -0.260 N 
HETATM    4  C16 UNL     1      24.945   1.887  53.284  1.00  0.00     0.149 C 
HETATM    5  C24 UNL     1      24.559   3.176  52.585  1.00  0.00     0.093 C 
ENDROOT
BRANCH   1   6
HETATM    6  C8  UNL     1      24.301   3.586  50.047  1.00  0.00     0.029 C 
HETATM    7  C7  UNL     1      23.301   3.174  49.248  1.00  0.00     0.005 C 
BRANCH   7   8
HETATM    8  C6  UNL     1      23.010   4.209  48.304  1.00  0.00     0.039 C 
BRANCH   8   9
HETATM    9  C5  UNL     1      22.692   5.213  47.540  1.00  0.00     0.098 C 
HETATM   10  C2  UNL     1      23.601   6.345  47.695  1.00  0.00     0.080 C 
HETATM   11  C1  UNL     1      24.692   6.598  48.439  1.00  0.00     0.074 C 
HETATM   12  O1  UNL     1      23.371   7.483  46.941  1.00  0.00    -0.350 OA
HETATM   13  C3  UNL     1      22.701   7.514  45.703  1.00  0.00     0.202 C 
HETATM   14  C4  UNL     1      22.032   6.195  45.420  1.00  0.00     0.202 C 
HETATM   15  O2  UNL     1      21.726   5.498  46.626  1.00  0.00    -0.347 OA
ENDBRANCH   8   9
ENDBRANCH   7   8
ENDBRANCH   1   6
BRANCH   3  16
HETATM   16  C10 UNL     1      27.245   0.752  52.868  1.00  0.00     0.053 A 
HETATM   17  C11 UNL     1      28.372   1.387  53.408  1.00  0.00     0.031 A 
HETATM   18  C12 UNL     1      29.450   0.608  53.767  1.00  0.00     0.002 A 
HETATM   19  C13 UNL     1      29.504  -0.748  53.636  1.00  0.00     0.000 A 
HETATM   20  C14 UNL     1      28.391  -1.380  53.101  1.00  0.00     0.002 A 
HETATM   21  C15 UNL     1      27.302  -0.619  52.735  1.00  0.00     0.031 A 
ENDBRANCH   3  16
BRANCH   4  22
HETATM   22  C17 UNL     1      23.822   0.943  53.222  1.00  0.00    -0.030 A 
HETATM   23  C18 UNL     1      23.749  -0.424  53.351  1.00  0.00     0.009 A 
HETATM   24  C19 UNL     1      22.586  -1.149  53.266  1.00  0.00     0.003 A 
HETATM   25  C20 UNL     1      21.377  -0.510  53.034  1.00  0.00     0.037 A 
HETATM   26  C21 UNL     1      21.381   0.879  52.894  1.00  0.00     0.068 A 
HETATM   27  C23 UNL     1      22.589   1.550  52.992  1.00  0.00     0.046 A 
BRANCH  26  28
HETATM   28  O3  UNL     1      20.163   1.493  52.663  1.00  0.00    -0.356 OA
HETATM   29  C22 UNL     1      20.140   2.857  52.334  1.00  0.00     0.210 C 
ENDBRANCH  26  28
ENDBRANCH   4  22
TORSDOF 6
ENDMDL
MODEL 9
REMARK VINA RESULT:      -7.9      4.785     10.101
REMARK  6 active torsions:
REMARK  status: ('A' for Active; 'I' for Inactive)
REMARK    1  A    between atoms: C5_7  and  C6_8 
REMARK    2  A    between atoms: C6_8  and  C7_9 
REMARK    3  A    between atoms: C8_10  and  C9_11 
REMARK    4  A    between atoms: N2_13  and  C10_14 
REMARK    5  A    between atoms: C16_20  and  C17_21 
REMARK    6  A    between atoms: C21_25  and  O3_26 
ROOT
HETATM    1  C9  UNL     1      26.365   4.425  49.581  1.00  0.00     0.057 C 
HETATM    2  N1  UNL     1      26.368   3.165  49.886  1.00  0.00    -0.176 NA
HETATM    3  N2  UNL     1      25.310   2.808  50.702  1.00  0.00    -0.260 N 
HETATM    4  C16 UNL     1      24.295   3.832  50.466  1.00  0.00     0.149 C 
HETATM    5  C24 UNL     1      25.157   5.057  50.234  1.00  0.00     0.093 C 
ENDROOT
BRANCH   1   6
HETATM    6  C8  UNL     1      27.271   5.248  48.760  1.00  0.00     0.029 C 
HETATM    7  C7  UNL     1      27.126   6.550  48.455  1.00  0.00     0.005 C 
BRANCH   7   8
HETATM    8  C6  UNL     1      28.228   6.957  47.638  1.00  0.00     0.039 C 
BRANCH   8   9
HETATM    9  C5  UNL     1      29.255   7.413  46.983  1.00  0.00     0.098 C 
HETATM   10  C2  UNL     1      30.470   6.647  47.241  1.00  0.00     0.080 C 
HETATM   11  C1  UNL     1      30.783   5.577  47.993  1.00  0.00     0.074 C 
HETATM   12  O1  UNL     1      31.640   7.032  46.609  1.00  0.00    -0.350 OA
HETATM   13  C3  UNL     1      31.709   7.731  45.388  1.00  0.00     0.202 C 
HETATM   14  C4  UNL     1      30.352   8.239  44.981  1.00  0.00     0.202 C 
HETATM   15  O2  UNL     1      29.507   8.428  46.114  1.00  0.00    -0.347 OA
ENDBRANCH   8   9
ENDBRANCH   7   8
ENDBRANCH   1   6
BRANCH   3  16
HETATM   16  C10 UNL     1      25.255   1.683  51.567  1.00  0.00     0.053 A 
HETATM   17  C11 UNL     1      26.347   0.838  51.809  1.00  0.00     0.031 A 
HETATM   18  C12 UNL     1      26.175  -0.220  52.673  1.00  0.00     0.002 A 
HETATM   19  C13 UNL     1      25.010  -0.511  53.319  1.00  0.00     0.000 A 
HETATM   20  C14 UNL     1      23.926   0.322  53.082  1.00  0.00     0.002 A 
HETATM   21  C15 UNL     1      24.078   1.386  52.220  1.00  0.00     0.031 A 
ENDBRANCH   3  16
BRANCH   4  22
HETATM   22  C17 UNL     1      23.506   3.554  49.259  1.00  0.00    -0.030 A 
HETATM   23  C18 UNL     1      23.020   2.388  48.716  1.00  0.00     0.009 A 
HETATM   24  C19 UNL     1      22.285   2.321  47.559  1.00  0.00     0.003 A 
HETATM   25  C20 UNL     1      21.986   3.476  46.850  1.00  0.00     0.037 A 
HETATM   26  C21 UNL     1      22.450   4.694  47.348  1.00  0.00     0.068 A 
HETATM   27  C23 UNL     1      23.186   4.692  48.522  1.00  0.00     0.046 A 
BRANCH  26  28
HETATM   28  O3  UNL     1      22.140   5.832  46.624  1.00  0.00    -0.356 OA
HETATM   29  C22 UNL     1      22.079   5.751  45.224  1.00  0.00     0.210 C 
ENDBRANCH  26  28
ENDBRANCH   4  22
TORSDOF 6
ENDMDL
