MODEL 1
REMARK VINA RESULT:      -8.1      0.000      0.000
REMARK  8 active torsions:
REMARK  status: ('A' for Active; 'I' for Inactive)
REMARK    1  A    between atoms: C2_2  and  C3_3 
REMARK    2  A    between atoms: C3_3  and  O1_4 
REMARK    3  A    between atoms: O1_4  and  C4_5 
REMARK    4  A    between atoms: C7_9  and  N2_10 
REMARK    5  A    between atoms: C8_11  and  N3_12 
REMARK    6  A    between atoms: N3_12  and  C9_13 
REMARK    7  A    between atoms: C20_28  and  C21_29 
REMARK    8  A    between atoms: C21_29  and  N5_30 
ROOT
HETATM    1  C4  UNL     1      24.754   1.166  52.881  1.00  0.00     0.179 C 
HETATM    2  C5  UNL     1      25.215   1.981  51.709  1.00  0.00     0.334 C 
HETATM    3  N1  UNL     1      25.137   2.600  50.581  1.00  0.00    -0.414 NA
HETATM    4  C6  UNL     1      26.166   3.297  49.932  1.00  0.00     0.094 C 
HETATM    5  C7  UNL     1      26.542   4.516  49.626  1.00  0.00     0.021 C 
HETATM    6  C8  UNL     1      25.988   5.861  49.844  1.00  0.00     0.058 C 
HETATM    7  C15 UNL     1      24.874   5.474  50.509  1.00  0.00     0.122 C 
HETATM    8  C16 UNL     1      23.807   6.371  51.057  1.00  0.00    -0.001 C 
HETATM    9  C17 UNL     1      22.875   5.643  51.645  1.00  0.00     0.087 C 
HETATM   10  N4  UNL     1      22.611   4.284  51.886  1.00  0.00    -0.334 N 
HETATM   11  C18 UNL     1      22.018   3.014  51.999  1.00  0.00     0.245 C 
HETATM   12  O3  UNL     1      21.020   3.629  51.587  1.00  0.00    -0.268 OA
HETATM   13  C19 UNL     1      22.347   1.675  52.375  1.00  0.00     0.081 C 
HETATM   14  C20 UNL     1      23.294   0.848  52.732  1.00  0.00    -0.016 C 
HETATM   15  H23 UNL     1      23.557   4.105  52.279  1.00  0.00     0.168 HD
ENDROOT
BRANCH   6  16
HETATM   16  N3  UNL     1      26.858   6.899  49.273  1.00  0.00    -0.388 N 
HETATM   17  H13 UNL     1      27.780   6.568  48.942  1.00  0.00     0.159 HD
BRANCH  16  18
HETATM   18  C9  UNL     1      26.452   8.268  49.194  1.00  0.00     0.093 C 
HETATM   19  C10 UNL     1      27.441   9.164  49.106  1.00  0.00    -0.018 C 
HETATM   20  C11 UNL     1      27.178  10.621  49.018  1.00  0.00     0.032 C 
HETATM   21  C14 UNL     1      28.897   8.872  49.080  1.00  0.00     0.208 C 
HETATM   22  C12 UNL     1      28.186  11.439  48.792  1.00  0.00     0.036 C 
HETATM   23 CL1  UNL     1      27.944  13.182  48.675  1.00  0.00    -0.087 Cl
HETATM   24  C13 UNL     1      29.605  10.972  48.618  1.00  0.00     0.219 C 
HETATM   25  O2  UNL     1      29.587   9.655  48.153  1.00  0.00    -0.381 OA
ENDBRANCH  16  18
ENDBRANCH   6  16
BRANCH   5  26
HETATM   26  N2  UNL     1      27.796   4.368  48.908  1.00  0.00    -0.303 NA
HETATM   27  H11 UNL     1      27.951   3.566  48.244  1.00  0.00     0.124 HD
HETATM   28  H12 UNL     1      27.713   3.509  48.321  1.00  0.00     0.124 HD
ENDBRANCH   5  26
BRANCH   1  29
HETATM   29  O1  UNL     1      25.475  -0.012  52.845  1.00  0.00    -0.379 OA
BRANCH  29  30
HETATM   30  C3  UNL     1      26.824   0.116  53.053  1.00  0.00     0.168 C 
BRANCH  30  31
HETATM   31  C2  UNL     1      27.090   0.312  54.556  1.00  0.00     0.022 C 
HETATM   32  C1  UNL     1      28.560   0.133  54.848  1.00  0.00     0.007 C 
ENDBRANCH  30  31
ENDBRANCH  29  30
ENDBRANCH   1  29
BRANCH  14  33
HETATM   33  C21 UNL     1      22.867  -0.515  53.130  1.00  0.00     0.308 C 
BRANCH  33  34
HETATM   34  N5  UNL     1      22.184  -0.537  54.410  1.00  0.00     0.083 N 
HETATM   35  C22 UNL     1      20.958  -1.313  54.270  1.00  0.00     0.309 C 
HETATM   36  C23 UNL     1      23.048  -1.286  55.320  1.00  0.00     0.309 C 
ENDBRANCH  33  34
ENDBRANCH  14  33
TORSDOF 8
ENDMDL
MODEL 2
REMARK VINA RESULT:      -7.8      5.308      9.589
REMARK  8 active torsions:
REMARK  status: ('A' for Active; 'I' for Inactive)
REMARK    1  A    between atoms: C2_2  and  C3_3 
REMARK    2  A    between atoms: C3_3  and  O1_4 
REMARK    3  A    between atoms: O1_4  and  C4_5 
REMARK    4  A    between atoms: C7_9  and  N2_10 
REMARK    5  A    between atoms: C8_11  and  N3_12 
REMARK    6  A    between atoms: N3_12  and  C9_13 
REMARK    7  A    between atoms: C20_28  and  C21_29 
REMARK    8  A    between atoms: C21_29  and  N5_30 
ROOT
HETATM    1  C4  UNL     1      23.773   2.068  52.140  1.00  0.00     0.179 C 
HETATM    2  C5  UNL     1      22.677   1.738  51.170  1.00  0.00     0.334 C 
HETATM    3  N1  UNL     1      21.890   1.000  50.464  1.00  0.00    -0.414 NA
HETATM    4  C6  UNL     1      20.887   1.440  49.588  1.00  0.00     0.094 C 
HETATM    5  C7  UNL     1      19.582   1.495  49.471  1.00  0.00     0.021 C 
HETATM    6  C8  UNL     1      18.444   1.067  50.298  1.00  0.00     0.058 C 
HETATM    7  C15 UNL     1      19.169   0.544  51.316  1.00  0.00     0.122 C 
HETATM    8  C16 UNL     1      18.628  -0.093  52.558  1.00  0.00    -0.001 C 
HETATM    9  C17 UNL     1      19.629  -0.485  53.327  1.00  0.00     0.087 C 
HETATM   10  N4  UNL     1      21.033  -0.475  53.295  1.00  0.00    -0.334 N 
HETATM   11  C18 UNL     1      22.396  -0.814  53.357  1.00  0.00     0.245 C 
HETATM   12  O3  UNL     1      21.934  -1.911  53.712  1.00  0.00    -0.268 OA
HETATM   13  C19 UNL     1      23.685  -0.239  53.129  1.00  0.00     0.081 C 
HETATM   14  C20 UNL     1      24.351   0.800  52.699  1.00  0.00    -0.016 C 
HETATM   15  H23 UNL     1      21.083   0.540  53.069  1.00  0.00     0.168 HD
ENDROOT
BRANCH   6  16
HETATM   16  N3  UNL     1      17.162   1.395  49.659  1.00  0.00    -0.388 N 
HETATM   17  H13 UNL     1      16.847   0.727  48.934  1.00  0.00     0.159 HD
BRANCH  16  18
HETATM   18  C9  UNL     1      16.416   2.562  50.013  1.00  0.00     0.093 C 
HETATM   19  C10 UNL     1      15.456   2.383  50.927  1.00  0.00    -0.018 C 
HETATM   20  C11 UNL     1      14.598   3.498  51.396  1.00  0.00     0.032 C 
HETATM   21  C14 UNL     1      15.101   1.106  51.596  1.00  0.00     0.208 C 
HETATM   22  C12 UNL     1      13.768   3.288  52.397  1.00  0.00     0.036 C 
HETATM   23 CL1  UNL     1      12.720   4.569  53.005  1.00  0.00    -0.087 Cl
HETATM   24  C13 UNL     1      13.638   1.963  53.097  1.00  0.00     0.219 C 
HETATM   25  O2  UNL     1      14.841   1.266  52.959  1.00  0.00    -0.381 OA
ENDBRANCH  16  18
ENDBRANCH   6  16
BRANCH   5  26
HETATM   26  N2  UNL     1      19.334   2.142  48.193  1.00  0.00    -0.303 NA
HETATM   27  H11 UNL     1      19.064   1.582  47.344  1.00  0.00     0.124 HD
HETATM   28  H12 UNL     1      19.088   1.390  47.513  1.00  0.00     0.124 HD
ENDBRANCH   5  26
BRANCH   1  29
HETATM   29  O1  UNL     1      24.750   2.726  51.417  1.00  0.00    -0.379 OA
BRANCH  29  30
HETATM   30  C3  UNL     1      24.332   3.842  50.741  1.00  0.00     0.168 C 
BRANCH  30  31
HETATM   31  C2  UNL     1      25.312   4.137  49.592  1.00  0.00     0.022 C 
HETATM   32  C1  UNL     1      26.471   3.171  49.642  1.00  0.00     0.007 C 
ENDBRANCH  30  31
ENDBRANCH  29  30
ENDBRANCH   1  29
BRANCH  14  33
HETATM   33  C21 UNL     1      25.823   0.764  52.879  1.00  0.00     0.308 C 
BRANCH  33  34
HETATM   34  N5  UNL     1      26.262  -0.368  53.673  1.00  0.00     0.083 N 
HETATM   35  C22 UNL     1      27.255  -1.114  52.910  1.00  0.00     0.309 C 
HETATM   36  C23 UNL     1      26.961   0.192  54.828  1.00  0.00     0.309 C 
ENDBRANCH  33  34
ENDBRANCH  14  33
TORSDOF 8
ENDMDL
MODEL 3
REMARK VINA RESULT:      -7.5      1.810      4.309
REMARK  8 active torsions:
REMARK  status: ('A' for Active; 'I' for Inactive)
REMARK    1  A    between atoms: C2_2  and  C3_3 
REMARK    2  A    between atoms: C3_3  and  O1_4 
REMARK    3  A    between atoms: O1_4  and  C4_5 
REMARK    4  A    between atoms: C7_9  and  N2_10 
REMARK    5  A    between atoms: C8_11  and  N3_12 
REMARK    6  A    between atoms: N3_12  and  C9_13 
REMARK    7  A    between atoms: C20_28  and  C21_29 
REMARK    8  A    between atoms: C21_29  and  N5_30 
ROOT
HETATM    1  C4  UNL     1      21.797   2.771  51.823  1.00  0.00     0.179 C 
HETATM    2  C5  UNL     1      22.639   4.011  51.764  1.00  0.00     0.334 C 
HETATM    3  N1  UNL     1      23.640   4.788  52.004  1.00  0.00    -0.414 NA
HETATM    4  C6  UNL     1      23.822   6.094  51.531  1.00  0.00     0.094 C 
HETATM    5  C7  UNL     1      24.556   6.787  50.692  1.00  0.00     0.021 C 
HETATM    6  C8  UNL     1      25.652   6.471  49.763  1.00  0.00     0.058 C 
HETATM    7  C15 UNL     1      25.714   5.144  50.027  1.00  0.00     0.122 C 
HETATM    8  C16 UNL     1      26.650   4.155  49.404  1.00  0.00    -0.001 C 
HETATM    9  C17 UNL     1      26.421   2.953  49.903  1.00  0.00     0.087 C 
HETATM   10  N4  UNL     1      25.563   2.362  50.846  1.00  0.00    -0.334 N 
HETATM   11  C18 UNL     1      25.015   1.623  51.909  1.00  0.00     0.245 C 
HETATM   12  O3  UNL     1      26.194   1.252  52.037  1.00  0.00    -0.268 OA
HETATM   13  C19 UNL     1      23.763   1.391  52.557  1.00  0.00     0.081 C 
HETATM   14  C20 UNL     1      22.501   1.722  52.635  1.00  0.00    -0.016 C 
HETATM   15  H23 UNL     1      24.709   2.784  50.427  1.00  0.00     0.168 HD
ENDROOT
BRANCH   6  16
HETATM   16  N3  UNL     1      26.112   7.670  49.048  1.00  0.00    -0.388 N 
HETATM   17  H13 UNL     1      25.435   8.067  48.373  1.00  0.00     0.159 HD
BRANCH  16  18
HETATM   18  C9  UNL     1      27.407   8.233  49.269  1.00  0.00     0.093 C 
HETATM   19  C10 UNL     1      27.559   9.507  48.892  1.00  0.00    -0.018 C 
HETATM   20  C11 UNL     1      28.845  10.228  49.056  1.00  0.00     0.032 C 
HETATM   21  C14 UNL     1      26.524  10.376  48.278  1.00  0.00     0.208 C 
HETATM   22  C12 UNL     1      28.890  11.519  48.797  1.00  0.00     0.036 C 
HETATM   23 CL1  UNL     1      30.386  12.438  48.972  1.00  0.00    -0.087 Cl
HETATM   24  C13 UNL     1      27.698  12.311  48.336  1.00  0.00     0.219 C 
HETATM   25  O2  UNL     1      26.538  11.676  48.788  1.00  0.00    -0.381 OA
ENDBRANCH  16  18
ENDBRANCH   6  16
BRANCH   5  26
HETATM   26  N2  UNL     1      24.086   8.157  50.804  1.00  0.00    -0.303 NA
HETATM   27  H11 UNL     1      23.711   8.531  51.713  1.00  0.00     0.124 HD
HETATM   28  H12 UNL     1      23.764   8.291  51.787  1.00  0.00     0.124 HD
ENDBRANCH   5  26
BRANCH   1  29
HETATM   29  O1  UNL     1      20.625   3.124  52.466  1.00  0.00    -0.379 OA
BRANCH  29  30
HETATM   30  C3  UNL     1      19.694   3.760  51.686  1.00  0.00     0.168 C 
BRANCH  30  31
HETATM   31  C2  UNL     1      18.547   2.786  51.369  1.00  0.00     0.022 C 
HETATM   32  C1  UNL     1      17.217   3.448  51.640  1.00  0.00     0.007 C 
ENDBRANCH  30  31
ENDBRANCH  29  30
ENDBRANCH   1  29
BRANCH  14  33
HETATM   33  C21 UNL     1      21.657   0.907  53.543  1.00  0.00     0.308 C 
BRANCH  33  34
HETATM   34  N5  UNL     1      21.249  -0.352  52.948  1.00  0.00     0.083 N 
HETATM   35  C22 UNL     1      21.625  -1.435  53.848  1.00  0.00     0.309 C 
HETATM   36  C23 UNL     1      19.788  -0.330  52.911  1.00  0.00     0.309 C 
ENDBRANCH  33  34
ENDBRANCH  14  33
TORSDOF 8
ENDMDL
MODEL 4
REMARK VINA RESULT:      -7.5      3.670      6.611
REMARK  8 active torsions:
REMARK  status: ('A' for Active; 'I' for Inactive)
REMARK    1  A    between atoms: C2_2  and  C3_3 
REMARK    2  A    between atoms: C3_3  and  O1_4 
REMARK    3  A    between atoms: O1_4  and  C4_5 
REMARK    4  A    between atoms: C7_9  and  N2_10 
REMARK    5  A    between atoms: C8_11  and  N3_12 
REMARK    6  A    between atoms: N3_12  and  C9_13 
REMARK    7  A    between atoms: C20_28  and  C21_29 
REMARK    8  A    between atoms: C21_29  and  N5_30 
ROOT
HETATM    1  C4  UNL     1      18.456  -0.167  51.735  1.00  0.00     0.179 C 
HETATM    2  C5  UNL     1      19.298   1.060  51.921  1.00  0.00     0.334 C 
HETATM    3  N1  UNL     1      20.033   1.922  52.537  1.00  0.00    -0.414 NA
HETATM    4  C6  UNL     1      20.610   3.077  51.992  1.00  0.00     0.094 C 
HETATM    5  C7  UNL     1      21.773   3.575  51.645  1.00  0.00     0.021 C 
HETATM    6  C8  UNL     1      23.163   3.095  51.681  1.00  0.00     0.058 C 
HETATM    7  C15 UNL     1      22.903   1.881  52.222  1.00  0.00     0.122 C 
HETATM    8  C16 UNL     1      23.906   0.817  52.546  1.00  0.00    -0.001 C 
HETATM    9  C17 UNL     1      23.288  -0.232  53.059  1.00  0.00     0.087 C 
HETATM   10  N4  UNL     1      21.976  -0.613  53.386  1.00  0.00    -0.334 N 
HETATM   11  C18 UNL     1      20.819  -1.091  54.026  1.00  0.00     0.245 C 
HETATM   12  O3  UNL     1      21.632  -1.357  54.927  1.00  0.00    -0.268 OA
HETATM   13  C19 UNL     1      19.412  -1.218  53.807  1.00  0.00     0.081 C 
HETATM   14  C20 UNL     1      18.405  -0.943  53.020  1.00  0.00    -0.016 C 
HETATM   15  H23 UNL     1      21.601  -0.354  52.450  1.00  0.00     0.168 HD
ENDROOT
BRANCH   6  16
HETATM   16  N3  UNL     1      24.092   4.100  51.145  1.00  0.00    -0.388 N 
HETATM   17  H13 UNL     1      23.761   5.078  51.198  1.00  0.00     0.159 HD
BRANCH  16  18
HETATM   18  C9  UNL     1      25.356   3.738  50.585  1.00  0.00     0.093 C 
HETATM   19  C10 UNL     1      25.947   4.671  49.832  1.00  0.00    -0.018 C 
HETATM   20  C11 UNL     1      27.261   4.444  49.182  1.00  0.00     0.032 C 
HETATM   21  C14 UNL     1      25.421   6.027  49.531  1.00  0.00     0.208 C 
HETATM   22  C12 UNL     1      27.854   5.450  48.572  1.00  0.00     0.036 C 
HETATM   23 CL1  UNL     1      29.417   5.249  47.779  1.00  0.00    -0.087 Cl
HETATM   24  C13 UNL     1      27.265   6.831  48.494  1.00  0.00     0.219 C 
HETATM   25  O2  UNL     1      26.409   7.013  49.582  1.00  0.00    -0.381 OA
ENDBRANCH  16  18
ENDBRANCH   6  16
BRANCH   5  26
HETATM   26  N2  UNL     1      21.489   4.905  51.131  1.00  0.00    -0.303 NA
HETATM   27  H11 UNL     1      22.260   5.605  50.982  1.00  0.00     0.124 HD
HETATM   28  H12 UNL     1      22.400   5.411  51.073  1.00  0.00     0.124 HD
ENDBRANCH   5  26
BRANCH   1  29
HETATM   29  O1  UNL     1      17.183   0.274  51.428  1.00  0.00    -0.379 OA
BRANCH  29  30
HETATM   30  C3  UNL     1      17.122   1.365  50.600  1.00  0.00     0.168 C 
BRANCH  30  31
HETATM   31  C2  UNL     1      15.719   1.989  50.686  1.00  0.00     0.022 C 
HETATM   32  C1  UNL     1      15.105   1.696  52.034  1.00  0.00     0.007 C 
ENDBRANCH  30  31
ENDBRANCH  29  30
ENDBRANCH   1  29
BRANCH  14  33
HETATM   33  C21 UNL     1      17.100  -1.548  53.379  1.00  0.00     0.308 C 
BRANCH  33  34
HETATM   34  N5  UNL     1      16.852  -2.798  52.685  1.00  0.00     0.083 N 
HETATM   35  C22 UNL     1      17.001  -3.894  53.633  1.00  0.00     0.309 C 
HETATM   36  C23 UNL     1      15.443  -2.774  52.296  1.00  0.00     0.309 C 
ENDBRANCH  33  34
ENDBRANCH  14  33
TORSDOF 8
ENDMDL
MODEL 5
REMARK VINA RESULT:      -7.5      1.802      2.146
REMARK  8 active torsions:
REMARK  status: ('A' for Active; 'I' for Inactive)
REMARK    1  A    between atoms: C2_2  and  C3_3 
REMARK    2  A    between atoms: C3_3  and  O1_4 
REMARK    3  A    between atoms: O1_4  and  C4_5 
REMARK    4  A    between atoms: C7_9  and  N2_10 
REMARK    5  A    between atoms: C8_11  and  N3_12 
REMARK    6  A    between atoms: N3_12  and  C9_13 
REMARK    7  A    between atoms: C20_28  and  C21_29 
REMARK    8  A    between atoms: C21_29  and  N5_30 
ROOT
HETATM    1  C4  UNL     1      23.498   2.758  52.667  1.00  0.00     0.179 C 
HETATM    2  C5  UNL     1      24.298   3.328  51.533  1.00  0.00     0.334 C 
HETATM    3  N1  UNL     1      24.527   3.845  50.375  1.00  0.00    -0.414 NA
HETATM    4  C6  UNL     1      25.774   4.206  49.847  1.00  0.00     0.094 C 
HETATM    5  C7  UNL     1      26.488   5.261  49.535  1.00  0.00     0.021 C 
HETATM    6  C8  UNL     1      26.277   6.716  49.600  1.00  0.00     0.058 C 
HETATM    7  C15 UNL     1      25.026   6.677  50.117  1.00  0.00     0.122 C 
HETATM    8  C16 UNL     1      24.166   7.856  50.457  1.00  0.00    -0.001 C 
HETATM    9  C17 UNL     1      23.011   7.436  50.941  1.00  0.00     0.087 C 
HETATM   10  N4  UNL     1      22.377   6.212  51.211  1.00  0.00    -0.334 N 
HETATM   11  C18 UNL     1      21.466   5.144  51.303  1.00  0.00     0.245 C 
HETATM   12  O3  UNL     1      20.722   5.949  50.719  1.00  0.00    -0.268 OA
HETATM   13  C19 UNL     1      21.389   3.803  51.792  1.00  0.00     0.081 C 
HETATM   14  C20 UNL     1      22.036   2.801  52.324  1.00  0.00    -0.016 C 
HETATM   15  H23 UNL     1      23.187   5.838  51.746  1.00  0.00     0.168 HD
ENDROOT
BRANCH   6  16
HETATM   16  N3  UNL     1      27.451   7.451  49.108  1.00  0.00    -0.388 N 
HETATM   17  H13 UNL     1      28.358   6.970  49.237  1.00  0.00     0.159 HD
BRANCH  16  18
HETATM   18  C9  UNL     1      27.337   8.742  48.506  1.00  0.00     0.093 C 
HETATM   19  C10 UNL     1      28.362   9.575  48.716  1.00  0.00    -0.018 C 
HETATM   20  C11 UNL     1      28.389  10.948  48.157  1.00  0.00     0.032 C 
HETATM   21  C14 UNL     1      29.588   9.285  49.502  1.00  0.00     0.208 C 
HETATM   22  C12 UNL     1      29.486  11.667  48.281  1.00  0.00     0.036 C 
HETATM   23 CL1  UNL     1      29.586  13.307  47.639  1.00  0.00    -0.087 Cl
HETATM   24  C13 UNL     1      30.727  11.167  48.968  1.00  0.00     0.219 C 
HETATM   25  O2  UNL     1      30.747   9.772  48.894  1.00  0.00    -0.381 OA
ENDBRANCH  16  18
ENDBRANCH   6  16
BRANCH   5  26
HETATM   26  N2  UNL     1      27.742   4.743  49.016  1.00  0.00    -0.303 NA
HETATM   27  H11 UNL     1      28.666   5.117  49.353  1.00  0.00     0.124 HD
HETATM   28  H12 UNL     1      28.510   5.264  49.494  1.00  0.00     0.124 HD
ENDBRANCH   5  26
BRANCH   1  29
HETATM   29  O1  UNL     1      23.889   1.439  52.798  1.00  0.00    -0.379 OA
BRANCH  29  30
HETATM   30  C3  UNL     1      25.242   1.228  52.847  1.00  0.00     0.168 C 
BRANCH  30  31
HETATM   31  C2  UNL     1      25.515  -0.273  53.044  1.00  0.00     0.022 C 
HETATM   32  C1  UNL     1      26.759  -0.676  52.289  1.00  0.00     0.007 C 
ENDBRANCH  30  31
ENDBRANCH  29  30
ENDBRANCH   1  29
BRANCH  14  33
HETATM   33  C21 UNL     1      21.225   1.627  52.727  1.00  0.00     0.308 C 
BRANCH  33  34
HETATM   34  N5  UNL     1      20.359   1.153  51.664  1.00  0.00     0.083 N 
HETATM   35  C22 UNL     1      21.154   0.356  50.737  1.00  0.00     0.309 C 
HETATM   36  C23 UNL     1      19.409   0.237  52.291  1.00  0.00     0.309 C 
ENDBRANCH  33  34
ENDBRANCH  14  33
TORSDOF 8
ENDMDL
MODEL 6
REMARK VINA RESULT:      -7.4      4.499      8.830
REMARK  8 active torsions:
REMARK  status: ('A' for Active; 'I' for Inactive)
REMARK    1  A    between atoms: C2_2  and  C3_3 
REMARK    2  A    between atoms: C3_3  and  O1_4 
REMARK    3  A    between atoms: O1_4  and  C4_5 
REMARK    4  A    between atoms: C7_9  and  N2_10 
REMARK    5  A    between atoms: C8_11  and  N3_12 
REMARK    6  A    between atoms: N3_12  and  C9_13 
REMARK    7  A    between atoms: C20_28  and  C21_29 
REMARK    8  A    between atoms: C21_29  and  N5_30 
ROOT
HETATM    1  C4  UNL     1      23.449   5.984  47.839  1.00  0.00     0.179 C 
HETATM    2  C5  UNL     1      23.325   5.440  49.232  1.00  0.00     0.334 C 
HETATM    3  N1  UNL     1      22.742   5.001  50.294  1.00  0.00    -0.414 NA
HETATM    4  C6  UNL     1      23.361   4.577  51.478  1.00  0.00     0.094 C 
HETATM    5  C7  UNL     1      23.608   3.492  52.173  1.00  0.00     0.021 C 
HETATM    6  C8  UNL     1      23.310   2.061  52.009  1.00  0.00     0.058 C 
HETATM    7  C15 UNL     1      22.643   2.166  50.835  1.00  0.00     0.122 C 
HETATM    8  C16 UNL     1      22.033   1.043  50.054  1.00  0.00    -0.001 C 
HETATM    9  C17 UNL     1      21.467   1.521  48.960  1.00  0.00     0.087 C 
HETATM   10  N4  UNL     1      21.276   2.770  48.346  1.00  0.00    -0.334 N 
HETATM   11  C18 UNL     1      20.742   3.901  47.704  1.00  0.00     0.245 C 
HETATM   12  O3  UNL     1      19.707   3.214  47.720  1.00  0.00    -0.268 OA
HETATM   13  C19 UNL     1      21.136   5.200  47.255  1.00  0.00     0.081 C 
HETATM   14  C20 UNL     1      22.087   6.096  47.218  1.00  0.00    -0.016 C 
HETATM   15  H23 UNL     1      22.282   3.027  48.413  1.00  0.00     0.168 HD
ENDROOT
BRANCH   6  16
HETATM   16  N3  UNL     1      23.848   1.269  53.124  1.00  0.00    -0.388 N 
HETATM   17  H13 UNL     1      23.617   1.624  54.068  1.00  0.00     0.159 HD
BRANCH  16  18
HETATM   18  C9  UNL     1      24.642   0.100  52.908  1.00  0.00     0.093 C 
HETATM   19  C10 UNL     1      25.940   0.215  53.205  1.00  0.00    -0.018 C 
HETATM   20  C11 UNL     1      26.891  -0.910  53.034  1.00  0.00     0.032 C 
HETATM   21  C14 UNL     1      26.622   1.425  53.733  1.00  0.00     0.208 C 
HETATM   22  C12 UNL     1      28.125  -0.777  53.476  1.00  0.00     0.036 C 
HETATM   23 CL1  UNL     1      29.306  -2.076  53.305  1.00  0.00    -0.087 Cl
HETATM   24  C13 UNL     1      28.630   0.468  54.151  1.00  0.00     0.219 C 
HETATM   25  O2  UNL     1      27.547   1.129  54.736  1.00  0.00    -0.381 OA
ENDBRANCH  16  18
ENDBRANCH   6  16
BRANCH   5  26
HETATM   26  N2  UNL     1      24.342   3.940  53.345  1.00  0.00    -0.303 NA
HETATM   27  H11 UNL     1      25.222   4.507  53.251  1.00  0.00     0.124 HD
HETATM   28  H12 UNL     1      25.169   4.476  53.002  1.00  0.00     0.124 HD
ENDBRANCH   5  26
BRANCH   1  29
HETATM   29  O1  UNL     1      23.992   7.249  47.960  1.00  0.00    -0.379 OA
BRANCH  29  30
HETATM   30  C3  UNL     1      25.079   7.346  48.789  1.00  0.00     0.168 C 
BRANCH  30  31
HETATM   31  C2  UNL     1      26.363   7.131  47.969  1.00  0.00     0.022 C 
HETATM   32  C1  UNL     1      27.153   5.977  48.540  1.00  0.00     0.007 C 
ENDBRANCH  30  31
ENDBRANCH  29  30
ENDBRANCH   1  29
BRANCH  14  33
HETATM   33  C21 UNL     1      21.831   7.299  46.390  1.00  0.00     0.308 C 
BRANCH  33  34
HETATM   34  N5  UNL     1      20.824   7.074  45.370  1.00  0.00     0.083 N 
HETATM   35  C22 UNL     1      19.883   8.187  45.392  1.00  0.00     0.309 C 
HETATM   36  C23 UNL     1      21.521   7.145  44.087  1.00  0.00     0.309 C 
ENDBRANCH  33  34
ENDBRANCH  14  33
TORSDOF 8
ENDMDL
MODEL 7
REMARK VINA RESULT:      -7.3      2.386      4.511
REMARK  8 active torsions:
REMARK  status: ('A' for Active; 'I' for Inactive)
REMARK    1  A    between atoms: C2_2  and  C3_3 
REMARK    2  A    between atoms: C3_3  and  O1_4 
REMARK    3  A    between atoms: O1_4  and  C4_5 
REMARK    4  A    between atoms: C7_9  and  N2_10 
REMARK    5  A    between atoms: C8_11  and  N3_12 
REMARK    6  A    between atoms: N3_12  and  C9_13 
REMARK    7  A    between atoms: C20_28  and  C21_29 
REMARK    8  A    between atoms: C21_29  and  N5_30 
ROOT
HETATM    1  C4  UNL     1      22.190   2.963  51.642  1.00  0.00     0.179 C 
HETATM    2  C5  UNL     1      22.984   4.234  51.565  1.00  0.00     0.334 C 
HETATM    3  N1  UNL     1      23.967   5.043  51.769  1.00  0.00    -0.414 NA
HETATM    4  C6  UNL     1      24.079   6.363  51.313  1.00  0.00     0.094 C 
HETATM    5  C7  UNL     1      24.744   7.096  50.452  1.00  0.00     0.021 C 
HETATM    6  C8  UNL     1      25.802   6.837  49.464  1.00  0.00     0.058 C 
HETATM    7  C15 UNL     1      25.925   5.509  49.699  1.00  0.00     0.122 C 
HETATM    8  C16 UNL     1      26.863   4.566  49.012  1.00  0.00    -0.001 C 
HETATM    9  C17 UNL     1      26.702   3.348  49.498  1.00  0.00     0.087 C 
HETATM   10  N4  UNL     1      25.915   2.710  50.471  1.00  0.00    -0.334 N 
HETATM   11  C18 UNL     1      25.448   1.933  51.545  1.00  0.00     0.245 C 
HETATM   12  O3  UNL     1      26.644   1.603  51.607  1.00  0.00    -0.268 OA
HETATM   13  C19 UNL     1      24.239   1.644  52.251  1.00  0.00     0.081 C 
HETATM   14  C20 UNL     1      22.972   1.927  52.398  1.00  0.00    -0.016 C 
HETATM   15  H23 UNL     1      25.027   3.107  50.103  1.00  0.00     0.168 HD
ENDROOT
BRANCH   6  16
HETATM   16  N3  UNL     1      26.182   8.065  48.750  1.00  0.00    -0.388 N 
HETATM   17  H13 UNL     1      25.989   8.946  49.256  1.00  0.00     0.159 HD
BRANCH  16  18
HETATM   18  C9  UNL     1      26.765   8.031  47.445  1.00  0.00     0.093 C 
HETATM   19  C10 UNL     1      28.102   8.049  47.405  1.00  0.00    -0.018 C 
HETATM   20  C11 UNL     1      28.852   8.019  46.126  1.00  0.00     0.032 C 
HETATM   21  C14 UNL     1      29.020   8.097  48.572  1.00  0.00     0.208 C 
HETATM   22  C12 UNL     1      30.164   7.896  46.158  1.00  0.00     0.036 C 
HETATM   23 CL1  UNL     1      31.117   7.853  44.675  1.00  0.00    -0.087 Cl
HETATM   24  C13 UNL     1      30.952   7.785  47.434  1.00  0.00     0.219 C 
HETATM   25  O2  UNL     1      30.123   7.253  48.425  1.00  0.00    -0.381 OA
ENDBRANCH  16  18
ENDBRANCH   6  16
BRANCH   5  26
HETATM   26  N2  UNL     1      24.232   8.447  50.614  1.00  0.00    -0.303 NA
HETATM   27  H11 UNL     1      24.401   8.990  51.498  1.00  0.00     0.124 HD
HETATM   28  H12 UNL     1      24.522   8.772  51.561  1.00  0.00     0.124 HD
ENDBRANCH   5  26
BRANCH   1  29
HETATM   29  O1  UNL     1      21.041   3.262  52.349  1.00  0.00    -0.379 OA
BRANCH  29  30
HETATM   30  C3  UNL     1      20.068   3.917  51.640  1.00  0.00     0.168 C 
BRANCH  30  31
HETATM   31  C2  UNL     1      18.787   3.064  51.629  1.00  0.00     0.022 C 
HETATM   32  C1  UNL     1      18.713   2.260  50.353  1.00  0.00     0.007 C 
ENDBRANCH  30  31
ENDBRANCH  29  30
ENDBRANCH   1  29
BRANCH  14  33
HETATM   33  C21 UNL     1      22.204   1.066  53.330  1.00  0.00     0.308 C 
BRANCH  33  34
HETATM   34  N5  UNL     1      21.741  -0.160  52.707  1.00  0.00     0.083 N 
HETATM   35  C22 UNL     1      22.228  -1.291  53.487  1.00  0.00     0.309 C 
HETATM   36  C23 UNL     1      20.285  -0.159  52.841  1.00  0.00     0.309 C 
ENDBRANCH  33  34
ENDBRANCH  14  33
TORSDOF 8
ENDMDL
MODEL 8
REMARK VINA RESULT:      -7.2      2.352      4.278
REMARK  8 active torsions:
REMARK  status: ('A' for Active; 'I' for Inactive)
REMARK    1  A    between atoms: C2_2  and  C3_3 
REMARK    2  A    between atoms: C3_3  and  O1_4 
REMARK    3  A    between atoms: O1_4  and  C4_5 
REMARK    4  A    between atoms: C7_9  and  N2_10 
REMARK    5  A    between atoms: C8_11  and  N3_12 
REMARK    6  A    between atoms: N3_12  and  C9_13 
REMARK    7  A    between atoms: C20_28  and  C21_29 
REMARK    8  A    between atoms: C21_29  and  N5_30 
ROOT
HETATM    1  C4  UNL     1      22.750   1.203  51.649  1.00  0.00     0.179 C 
HETATM    2  C5  UNL     1      22.899   2.693  51.729  1.00  0.00     0.334 C 
HETATM    3  N1  UNL     1      23.421   3.825  52.057  1.00  0.00    -0.414 NA
HETATM    4  C6  UNL     1      22.940   5.100  51.728  1.00  0.00     0.094 C 
HETATM    5  C7  UNL     1      23.218   6.136  50.973  1.00  0.00     0.021 C 
HETATM    6  C8  UNL     1      24.290   6.474  50.023  1.00  0.00     0.058 C 
HETATM    7  C15 UNL     1      24.986   5.318  50.144  1.00  0.00     0.122 C 
HETATM    8  C16 UNL     1      26.250   4.961  49.425  1.00  0.00    -0.001 C 
HETATM    9  C17 UNL     1      26.642   3.753  49.791  1.00  0.00     0.087 C 
HETATM   10  N4  UNL     1      26.211   2.737  50.659  1.00  0.00    -0.334 N 
HETATM   11  C18 UNL     1      26.128   1.726  51.633  1.00  0.00     0.245 C 
HETATM   12  O3  UNL     1      27.346   1.951  51.728  1.00  0.00    -0.268 OA
HETATM   13  C19 UNL     1      25.167   0.863  52.244  1.00  0.00     0.081 C 
HETATM   14  C20 UNL     1      23.904   0.543  52.349  1.00  0.00    -0.016 C 
HETATM   15  H23 UNL     1      25.241   2.738  50.281  1.00  0.00     0.168 HD
ENDROOT
BRANCH   6  16
HETATM   16  N3  UNL     1      24.092   7.810  49.443  1.00  0.00    -0.388 N 
HETATM   17  H13 UNL     1      23.999   8.578  50.130  1.00  0.00     0.159 HD
BRANCH  16  18
HETATM   18  C9  UNL     1      24.024   8.019  48.031  1.00  0.00     0.093 C 
HETATM   19  C10 UNL     1      25.191   8.247  47.420  1.00  0.00    -0.018 C 
HETATM   20  C11 UNL     1      25.283   8.483  45.958  1.00  0.00     0.032 C 
HETATM   21  C14 UNL     1      26.530   8.298  48.063  1.00  0.00     0.208 C 
HETATM   22  C12 UNL     1      26.472   8.560  45.397  1.00  0.00     0.036 C 
HETATM   23 CL1  UNL     1      26.653   8.838  43.665  1.00  0.00    -0.087 Cl
HETATM   24  C13 UNL     1      27.758   8.422  46.165  1.00  0.00     0.219 C 
HETATM   25  O2  UNL     1      27.515   7.657  47.309  1.00  0.00    -0.381 OA
ENDBRANCH  16  18
ENDBRANCH   6  16
BRANCH   5  26
HETATM   26  N2  UNL     1      22.160   7.099  51.228  1.00  0.00    -0.303 NA
HETATM   27  H11 UNL     1      21.781   7.245  52.198  1.00  0.00     0.124 HD
HETATM   28  H12 UNL     1      21.954   7.063  52.250  1.00  0.00     0.124 HD
ENDBRANCH   5  26
BRANCH   1  29
HETATM   29  O1  UNL     1      21.582   0.890  52.318  1.00  0.00    -0.379 OA
BRANCH  29  30
HETATM   30  C3  UNL     1      20.429   1.347  51.735  1.00  0.00     0.168 C 
BRANCH  30  31
HETATM   31  C2  UNL     1      19.391   0.213  51.705  1.00  0.00     0.022 C 
HETATM   32  C1  UNL     1      19.331  -0.469  53.051  1.00  0.00     0.007 C 
ENDBRANCH  30  31
ENDBRANCH  29  30
ENDBRANCH   1  29
BRANCH  14  33
HETATM   33  C21 UNL     1      23.590  -0.660  53.158  1.00  0.00     0.308 C 
BRANCH  33  34
HETATM   34  N5  UNL     1      23.569  -0.387  54.582  1.00  0.00     0.083 N 
HETATM   35  C22 UNL     1      22.434  -1.085  55.173  1.00  0.00     0.309 C 
HETATM   36  C23 UNL     1      24.772  -1.008  55.133  1.00  0.00     0.309 C 
ENDBRANCH  33  34
ENDBRANCH  14  33
TORSDOF 8
ENDMDL
MODEL 9
REMARK VINA RESULT:      -7.0      3.848      6.733
REMARK  8 active torsions:
REMARK  status: ('A' for Active; 'I' for Inactive)
REMARK    1  A    between atoms: C2_2  and  C3_3 
REMARK    2  A    between atoms: C3_3  and  O1_4 
REMARK    3  A    between atoms: O1_4  and  C4_5 
REMARK    4  A    between atoms: C7_9  and  N2_10 
REMARK    5  A    between atoms: C8_11  and  N3_12 
REMARK    6  A    between atoms: N3_12  and  C9_13 
REMARK    7  A    between atoms: C20_28  and  C21_29 
REMARK    8  A    between atoms: C21_29  and  N5_30 
ROOT
HETATM    1  C4  UNL     1      23.868   6.737  48.899  1.00  0.00     0.179 C 
HETATM    2  C5  UNL     1      25.045   7.543  49.363  1.00  0.00     0.334 C 
HETATM    3  N1  UNL     1      26.114   7.821  50.026  1.00  0.00    -0.414 NA
HETATM    4  C6  UNL     1      26.860   9.007  49.960  1.00  0.00     0.094 C 
HETATM    5  C7  UNL     1      28.007   9.472  49.528  1.00  0.00     0.021 C 
HETATM    6  C8  UNL     1      29.172   8.893  48.842  1.00  0.00     0.058 C 
HETATM    7  C15 UNL     1      28.705   7.625  48.766  1.00  0.00     0.122 C 
HETATM    8  C16 UNL     1      29.407   6.451  48.155  1.00  0.00    -0.001 C 
HETATM    9  C17 UNL     1      28.647   5.376  48.261  1.00  0.00     0.087 C 
HETATM   10  N4  UNL     1      27.390   5.036  48.787  1.00  0.00    -0.334 N 
HETATM   11  C18 UNL     1      26.320   4.423  49.461  1.00  0.00     0.245 C 
HETATM   12  O3  UNL     1      27.203   3.605  49.770  1.00  0.00    -0.268 OA
HETATM   13  C19 UNL     1      24.924   4.606  49.708  1.00  0.00     0.081 C 
HETATM   14  C20 UNL     1      23.887   5.389  49.561  1.00  0.00    -0.016 C 
HETATM   15  H23 UNL     1      26.904   5.814  48.296  1.00  0.00     0.168 HD
ENDROOT
BRANCH   6  16
HETATM   16  N3  UNL     1      30.205   9.908  48.588  1.00  0.00    -0.388 N 
HETATM   17  H13 UNL     1      30.427  10.521  49.391  1.00  0.00     0.159 HD
BRANCH  16  18
HETATM   18  C9  UNL     1      30.843  10.037  47.316  1.00  0.00     0.093 C 
HETATM   19  C10 UNL     1      31.976   9.344  47.160  1.00  0.00    -0.018 C 
HETATM   20  C11 UNL     1      32.753   9.376  45.897  1.00  0.00     0.032 C 
HETATM   21  C14 UNL     1      32.620   8.466  48.171  1.00  0.00     0.208 C 
HETATM   22  C12 UNL     1      33.781   8.564  45.759  1.00  0.00     0.036 C 
HETATM   23 CL1  UNL     1      34.747   8.550  44.283  1.00  0.00    -0.087 Cl
HETATM   24  C13 UNL     1      34.218   7.596  46.823  1.00  0.00     0.219 C 
HETATM   25  O2  UNL     1      33.114   7.282  47.620  1.00  0.00    -0.381 OA
ENDBRANCH  16  18
ENDBRANCH   6  16
BRANCH   5  26
HETATM   26  N2  UNL     1      28.008  10.885  49.869  1.00  0.00    -0.303 NA
HETATM   27  H11 UNL     1      27.306  11.546  49.449  1.00  0.00     0.124 HD
HETATM   28  H12 UNL     1      27.232  11.330  49.332  1.00  0.00     0.124 HD
ENDBRANCH   5  26
BRANCH   1  29
HETATM   29  O1  UNL     1      22.739   7.421  49.309  1.00  0.00    -0.379 OA
BRANCH  29  30
HETATM   30  C3  UNL     1      22.733   8.764  49.036  1.00  0.00     0.168 C 
BRANCH  30  31
HETATM   31  C2  UNL     1      21.308   9.313  49.220  1.00  0.00     0.022 C 
HETATM   32  C1  UNL     1      20.401   8.228  49.748  1.00  0.00     0.007 C 
ENDBRANCH  30  31
ENDBRANCH  29  30
ENDBRANCH   1  29
BRANCH  14  33
HETATM   33  C21 UNL     1      22.579   4.845  50.000  1.00  0.00     0.308 C 
BRANCH  33  34
HETATM   34  N5  UNL     1      22.690   3.995  51.170  1.00  0.00     0.083 N 
HETATM   35  C22 UNL     1      22.266   4.755  52.339  1.00  0.00     0.309 C 
HETATM   36  C23 UNL     1      21.710   2.926  50.991  1.00  0.00     0.309 C 
ENDBRANCH  33  34
ENDBRANCH  14  33
TORSDOF 8
ENDMDL
