MODEL 1
REMARK VINA RESULT:      -7.6      0.000      0.000
REMARK  5 active torsions:
REMARK  status: ('A' for Active; 'I' for Inactive)
REMARK    1  A    between atoms: C3_3  and  C4_4 
REMARK    2  A    between atoms: C5_5  and  C6_6 
REMARK    3  A    between atoms: C9_12  and  C10_13 
REMARK    4  A    between atoms: C10_13  and  C11_14 
REMARK    5  A    between atoms: C10_13  and  C13_16 
ROOT
HETATM    1  C6  UNL     1      24.234   2.978  52.895  1.00  0.00     0.145 A 
HETATM    2  N1  UNL     1      24.156   4.363  53.310  1.00  0.00    -0.362 N 
HETATM    3  C7  UNL     1      23.021   4.703  52.490  1.00  0.00     0.136 A 
HETATM    4  N2  UNL     1      22.032   5.411  51.915  1.00  0.00    -0.224 NA
HETATM    5  C8  UNL     1      21.160   4.908  51.021  1.00  0.00     0.235 A 
HETATM    6  N3  UNL     1      21.219   3.603  50.621  1.00  0.00    -0.245 NA
HETATM    7  C9  UNL     1      22.188   2.848  51.163  1.00  0.00     0.057 A 
HETATM    8  C19 UNL     1      23.067   3.386  52.076  1.00  0.00     0.039 A 
HETATM    9  H9  UNL     1      24.574   5.129  53.922  1.00  0.00     0.162 HD
ENDROOT
BRANCH   7  10
HETATM   10  C10 UNL     1      22.179   1.443  50.676  1.00  0.00     0.071 C 
BRANCH  10  11
HETATM   11  C11 UNL     1      21.209   1.232  49.525  1.00  0.00     0.011 C 
HETATM   12  C12 UNL     1      21.908   1.353  48.210  1.00  0.00     0.006 C 
ENDBRANCH  10  11
BRANCH  10  13
HETATM   13  C13 UNL     1      21.791   0.572  51.791  1.00  0.00    -0.048 A 
HETATM   14  C14 UNL     1      22.766  -0.160  52.421  1.00  0.00     0.011 A 
HETATM   15  C15 UNL     1      22.529  -1.022  53.489  1.00  0.00     0.043 A 
HETATM   16  C16 UNL     1      21.245  -1.164  53.961  1.00  0.00     0.116 A 
HETATM   17  F1  UNL     1      20.850  -1.957  54.985  1.00  0.00    -0.206 F 
HETATM   18  C17 UNL     1      20.242  -0.444  53.349  1.00  0.00     0.043 A 
HETATM   19  C18 UNL     1      20.506   0.416  52.277  1.00  0.00     0.011 A 
ENDBRANCH  10  13
ENDBRANCH   7  10
BRANCH   1  20
HETATM   20  C5  UNL     1      25.404   2.541  52.150  1.00  0.00     0.003 C 
HETATM   21  C4  UNL     1      26.303   1.631  52.463  1.00  0.00    -0.002 C 
BRANCH  21  22
HETATM   22  C3  UNL     1      26.272   0.855  53.691  1.00  0.00    -0.005 C 
HETATM   23  C2  UNL     1      26.412  -0.468  53.709  1.00  0.00    -0.031 C 
HETATM   24  C1  UNL     1      26.606  -1.117  52.388  1.00  0.00     0.036 C 
ENDBRANCH  21  22
ENDBRANCH   1  20
TORSDOF 5
ENDMDL
MODEL 2
REMARK VINA RESULT:      -7.4      2.929      5.921
REMARK  5 active torsions:
REMARK  status: ('A' for Active; 'I' for Inactive)
REMARK    1  A    between atoms: C3_3  and  C4_4 
REMARK    2  A    between atoms: C5_5  and  C6_6 
REMARK    3  A    between atoms: C9_12  and  C10_13 
REMARK    4  A    between atoms: C10_13  and  C11_14 
REMARK    5  A    between atoms: C10_13  and  C13_16 
ROOT
HETATM    1  C6  UNL     1      21.184   0.758  52.111  1.00  0.00     0.145 A 
HETATM    2  N1  UNL     1      20.174   0.228  53.003  1.00  0.00    -0.362 N 
HETATM    3  C7  UNL     1      21.095  -0.382  53.929  1.00  0.00     0.136 A 
HETATM    4  N2  UNL     1      21.574  -1.062  54.986  1.00  0.00    -0.224 NA
HETATM    5  C8  UNL     1      22.883  -1.256  55.233  1.00  0.00     0.235 A 
HETATM    6  N3  UNL     1      23.848  -0.760  54.403  1.00  0.00    -0.245 NA
HETATM    7  C9  UNL     1      23.427  -0.072  53.329  1.00  0.00     0.057 A 
HETATM    8  C19 UNL     1      22.082   0.113  53.100  1.00  0.00     0.039 A 
HETATM    9  H9  UNL     1      19.132   0.134  53.204  1.00  0.00     0.162 HD
ENDROOT
BRANCH   7  10
HETATM   10  C10 UNL     1      24.540   0.433  52.482  1.00  0.00     0.071 C 
BRANCH  10  11
HETATM   11  C11 UNL     1      25.900   0.242  53.133  1.00  0.00     0.011 C 
HETATM   12  C12 UNL     1      26.828  -0.493  52.221  1.00  0.00     0.006 C 
ENDBRANCH  10  11
BRANCH  10  13
HETATM   13  C13 UNL     1      24.324   1.865  52.244  1.00  0.00    -0.048 A 
HETATM   14  C14 UNL     1      24.409   2.335  50.957  1.00  0.00     0.011 A 
HETATM   15  C15 UNL     1      24.225   3.668  50.598  1.00  0.00     0.043 A 
HETATM   16  C16 UNL     1      23.939   4.591  51.579  1.00  0.00     0.116 A 
HETATM   17  F1  UNL     1      23.734   5.917  51.396  1.00  0.00    -0.206 F 
HETATM   18  C17 UNL     1      23.848   4.151  52.881  1.00  0.00     0.043 A 
HETATM   19  C18 UNL     1      24.036   2.805  53.215  1.00  0.00     0.011 A 
ENDBRANCH  10  13
ENDBRANCH   7  10
BRANCH   1  20
HETATM   20  C5  UNL     1      21.259   0.233  50.757  1.00  0.00     0.003 C 
HETATM   21  C4  UNL     1      21.151   0.867  49.607  1.00  0.00    -0.002 C 
BRANCH  21  22
HETATM   22  C3  UNL     1      20.923   2.297  49.493  1.00  0.00    -0.005 C 
HETATM   23  C2  UNL     1      21.481   3.040  48.541  1.00  0.00    -0.031 C 
HETATM   24  C1  UNL     1      22.362   2.317  47.589  1.00  0.00     0.036 C 
ENDBRANCH  21  22
ENDBRANCH   1  20
TORSDOF 5
ENDMDL
MODEL 3
REMARK VINA RESULT:      -7.3      7.602      9.291
REMARK  5 active torsions:
REMARK  status: ('A' for Active; 'I' for Inactive)
REMARK    1  A    between atoms: C3_3  and  C4_4 
REMARK    2  A    between atoms: C5_5  and  C6_6 
REMARK    3  A    between atoms: C9_12  and  C10_13 
REMARK    4  A    between atoms: C10_13  and  C11_14 
REMARK    5  A    between atoms: C10_13  and  C13_16 
ROOT
HETATM    1  C6  UNL     1      31.478   5.022  48.441  1.00  0.00     0.145 A 
HETATM    2  N1  UNL     1      32.551   5.503  49.284  1.00  0.00    -0.362 N 
HETATM    3  C7  UNL     1      32.040   6.842  49.430  1.00  0.00     0.136 A 
HETATM    4  N2  UNL     1      31.928   8.129  49.808  1.00  0.00    -0.224 NA
HETATM    5  C8  UNL     1      30.913   8.939  49.454  1.00  0.00     0.235 A 
HETATM    6  N3  UNL     1      29.892   8.498  48.661  1.00  0.00    -0.245 NA
HETATM    7  C9  UNL     1      29.950   7.221  48.252  1.00  0.00     0.057 A 
HETATM    8  C19 UNL     1      31.000   6.413  48.629  1.00  0.00     0.039 A 
HETATM    9  H9  UNL     1      33.466   5.265  49.776  1.00  0.00     0.162 HD
ENDROOT
BRANCH   7  10
HETATM   10  C10 UNL     1      28.801   6.824  47.397  1.00  0.00     0.071 C 
BRANCH  10  11
HETATM   11  C11 UNL     1      28.149   8.013  46.709  1.00  0.00     0.011 C 
HETATM   12  C12 UNL     1      28.723   8.220  45.346  1.00  0.00     0.006 C 
ENDBRANCH  10  11
BRANCH  10  13
HETATM   13  C13 UNL     1      27.804   6.160  48.245  1.00  0.00    -0.048 A 
HETATM   14  C14 UNL     1      26.792   6.916  48.782  1.00  0.00     0.011 A 
HETATM   15  C15 UNL     1      25.786   6.408  49.600  1.00  0.00     0.043 A 
HETATM   16  C16 UNL     1      25.785   5.066  49.902  1.00  0.00     0.116 A 
HETATM   17  F1  UNL     1      24.883   4.419  50.678  1.00  0.00    -0.206 F 
HETATM   18  C17 UNL     1      26.788   4.278  49.378  1.00  0.00     0.043 A 
HETATM   19  C18 UNL     1      27.787   4.814  48.558  1.00  0.00     0.011 A 
ENDBRANCH  10  13
ENDBRANCH   7  10
BRANCH   1  20
HETATM   20  C5  UNL     1      31.787   4.644  47.071  1.00  0.00     0.003 C 
HETATM   21  C4  UNL     1      32.449   3.598  46.620  1.00  0.00    -0.002 C 
BRANCH  21  22
HETATM   22  C3  UNL     1      33.020   2.575  47.479  1.00  0.00    -0.005 C 
HETATM   23  C2  UNL     1      32.657   1.297  47.414  1.00  0.00    -0.031 C 
HETATM   24  C1  UNL     1      31.620   0.969  46.402  1.00  0.00     0.036 C 
ENDBRANCH  21  22
ENDBRANCH   1  20
TORSDOF 5
ENDMDL
MODEL 4
REMARK VINA RESULT:      -7.3      3.037      5.093
REMARK  5 active torsions:
REMARK  status: ('A' for Active; 'I' for Inactive)
REMARK    1  A    between atoms: C3_3  and  C4_4 
REMARK    2  A    between atoms: C5_5  and  C6_6 
REMARK    3  A    between atoms: C9_12  and  C10_13 
REMARK    4  A    between atoms: C10_13  and  C11_14 
REMARK    5  A    between atoms: C10_13  and  C13_16 
ROOT
HETATM    1  C6  UNL     1      23.970   3.337  49.476  1.00  0.00     0.145 A 
HETATM    2  N1  UNL     1      23.223   2.865  48.329  1.00  0.00    -0.362 N 
HETATM    3  C7  UNL     1      22.404   1.929  49.058  1.00  0.00     0.136 A 
HETATM    4  N2  UNL     1      21.481   0.988  49.332  1.00  0.00    -0.224 NA
HETATM    5  C8  UNL     1      21.239   0.500  50.562  1.00  0.00     0.235 A 
HETATM    6  N3  UNL     1      21.934   0.937  51.654  1.00  0.00    -0.245 NA
HETATM    7  C9  UNL     1      22.869   1.876  51.440  1.00  0.00     0.057 A 
HETATM    8  C19 UNL     1      23.097   2.361  50.171  1.00  0.00     0.039 A 
HETATM    9  H9  UNL     1      23.072   2.943  47.277  1.00  0.00     0.162 HD
ENDROOT
BRANCH   7  10
HETATM   10  C10 UNL     1      23.574   2.297  52.680  1.00  0.00     0.071 C 
BRANCH  10  11
HETATM   11  C11 UNL     1      23.869   3.787  52.706  1.00  0.00     0.011 C 
HETATM   12  C12 UNL     1      22.603   4.581  52.718  1.00  0.00     0.006 C 
ENDBRANCH  10  11
BRANCH  10  13
HETATM   13  C13 UNL     1      24.841   1.560  52.761  1.00  0.00    -0.048 A 
HETATM   14  C14 UNL     1      26.010   2.274  52.844  1.00  0.00     0.011 A 
HETATM   15  C15 UNL     1      27.275   1.696  52.927  1.00  0.00     0.043 A 
HETATM   16  C16 UNL     1      27.384   0.325  52.928  1.00  0.00     0.116 A 
HETATM   17  F1  UNL     1      28.533  -0.388  53.002  1.00  0.00    -0.206 F 
HETATM   18  C17 UNL     1      26.228  -0.422  52.846  1.00  0.00     0.043 A 
HETATM   19  C18 UNL     1      24.969   0.184  52.764  1.00  0.00     0.011 A 
ENDBRANCH  10  13
ENDBRANCH   7  10
BRANCH   1  20
HETATM   20  C5  UNL     1      25.397   3.060  49.537  1.00  0.00     0.003 C 
HETATM   21  C4  UNL     1      26.415   3.878  49.370  1.00  0.00    -0.002 C 
BRANCH  21  22
HETATM   22  C3  UNL     1      26.273   5.294  49.077  1.00  0.00    -0.005 C 
HETATM   23  C2  UNL     1      27.263   6.027  48.576  1.00  0.00    -0.031 C 
HETATM   24  C1  UNL     1      28.540   5.310  48.331  1.00  0.00     0.036 C 
ENDBRANCH  21  22
ENDBRANCH   1  20
TORSDOF 5
ENDMDL
MODEL 5
REMARK VINA RESULT:      -7.0      2.403      5.081
REMARK  5 active torsions:
REMARK  status: ('A' for Active; 'I' for Inactive)
REMARK    1  A    between atoms: C3_3  and  C4_4 
REMARK    2  A    between atoms: C5_5  and  C6_6 
REMARK    3  A    between atoms: C9_12  and  C10_13 
REMARK    4  A    between atoms: C10_13  and  C11_14 
REMARK    5  A    between atoms: C10_13  and  C13_16 
ROOT
HETATM    1  C6  UNL     1      21.608   0.632  51.117  1.00  0.00     0.145 A 
HETATM    2  N1  UNL     1      21.272   0.772  49.716  1.00  0.00    -0.362 N 
HETATM    3  C7  UNL     1      22.303   1.730  49.408  1.00  0.00     0.136 A 
HETATM    4  N2  UNL     1      23.080   2.590  48.723  1.00  0.00    -0.224 NA
HETATM    5  C8  UNL     1      24.101   3.282  49.260  1.00  0.00     0.235 A 
HETATM    6  N3  UNL     1      24.432   3.159  50.580  1.00  0.00    -0.245 NA
HETATM    7  C9  UNL     1      23.690   2.314  51.314  1.00  0.00     0.057 A 
HETATM    8  C19 UNL     1      22.651   1.616  50.740  1.00  0.00     0.039 A 
HETATM    9  H9  UNL     1      20.625   0.468  48.925  1.00  0.00     0.162 HD
ENDROOT
BRANCH   7  10
HETATM   10  C10 UNL     1      24.119   2.238  52.735  1.00  0.00     0.071 C 
BRANCH  10  11
HETATM   11  C11 UNL     1      24.379   3.608  53.339  1.00  0.00     0.011 C 
HETATM   12  C12 UNL     1      23.241   4.535  53.066  1.00  0.00     0.006 C 
ENDBRANCH  10  11
BRANCH  10  13
HETATM   13  C13 UNL     1      25.354   1.447  52.802  1.00  0.00    -0.048 A 
HETATM   14  C14 UNL     1      26.469   2.018  53.362  1.00  0.00     0.011 A 
HETATM   15  C15 UNL     1      27.698   1.375  53.486  1.00  0.00     0.043 A 
HETATM   16  C16 UNL     1      27.827   0.085  53.024  1.00  0.00     0.116 A 
HETATM   17  F1  UNL     1      28.947  -0.674  53.069  1.00  0.00    -0.206 F 
HETATM   18  C17 UNL     1      26.726  -0.517  52.455  1.00  0.00     0.043 A 
HETATM   19  C18 UNL     1      25.501   0.151  52.344  1.00  0.00     0.011 A 
ENDBRANCH  10  13
ENDBRANCH   7  10
BRANCH   1  20
HETATM   20  C5  UNL     1      20.647   1.083  52.111  1.00  0.00     0.003 C 
HETATM   21  C4  UNL     1      20.646   0.905  53.415  1.00  0.00    -0.002 C 
BRANCH  21  22
HETATM   22  C3  UNL     1      21.679   0.175  54.130  1.00  0.00    -0.005 C 
HETATM   23  C2  UNL     1      21.543  -1.100  54.485  1.00  0.00    -0.031 C 
HETATM   24  C1  UNL     1      20.260  -1.745  54.106  1.00  0.00     0.036 C 
ENDBRANCH  21  22
ENDBRANCH   1  20
TORSDOF 5
ENDMDL
MODEL 6
REMARK VINA RESULT:      -6.6      2.261      4.434
REMARK  5 active torsions:
REMARK  status: ('A' for Active; 'I' for Inactive)
REMARK    1  A    between atoms: C3_3  and  C4_4 
REMARK    2  A    between atoms: C5_5  and  C6_6 
REMARK    3  A    between atoms: C9_12  and  C10_13 
REMARK    4  A    between atoms: C10_13  and  C11_14 
REMARK    5  A    between atoms: C10_13  and  C13_16 
ROOT
HETATM    1  C6  UNL     1      21.720   5.087  51.168  1.00  0.00     0.145 A 
HETATM    2  N1  UNL     1      21.861   6.502  51.437  1.00  0.00    -0.362 N 
HETATM    3  C7  UNL     1      23.222   6.608  50.977  1.00  0.00     0.136 A 
HETATM    4  N2  UNL     1      24.426   7.125  50.667  1.00  0.00    -0.224 NA
HETATM    5  C8  UNL     1      25.443   6.417  50.143  1.00  0.00     0.235 A 
HETATM    6  N3  UNL     1      25.324   5.082  49.881  1.00  0.00    -0.245 NA
HETATM    7  C9  UNL     1      24.144   4.511  50.171  1.00  0.00     0.057 A 
HETATM    8  C19 UNL     1      23.118   5.258  50.706  1.00  0.00     0.039 A 
HETATM    9  H9  UNL     1      21.391   7.385  51.804  1.00  0.00     0.162 HD
ENDROOT
BRANCH   7  10
HETATM   10  C10 UNL     1      24.100   3.060  49.853  1.00  0.00     0.071 C 
BRANCH  10  11
HETATM   11  C11 UNL     1      22.724   2.606  49.391  1.00  0.00     0.011 C 
HETATM   12  C12 UNL     1      22.661   2.528  47.901  1.00  0.00     0.006 C 
ENDBRANCH  10  11
BRANCH  10  13
HETATM   13  C13 UNL     1      24.466   2.311  51.061  1.00  0.00    -0.048 A 
HETATM   14  C14 UNL     1      23.590   1.370  51.540  1.00  0.00     0.011 A 
HETATM   15  C15 UNL     1      23.819   0.595  52.674  1.00  0.00     0.043 A 
HETATM   16  C16 UNL     1      24.991   0.764  53.374  1.00  0.00     0.116 A 
HETATM   17  F1  UNL     1      25.363   0.094  54.490  1.00  0.00    -0.206 F 
HETATM   18  C17 UNL     1      25.893   1.703  52.919  1.00  0.00     0.043 A 
HETATM   19  C18 UNL     1      25.638   2.468  51.776  1.00  0.00     0.011 A 
ENDBRANCH  10  13
ENDBRANCH   7  10
BRANCH   1  20
HETATM   20  C5  UNL     1      21.534   4.181  52.291  1.00  0.00     0.003 C 
HETATM   21  C4  UNL     1      20.647   3.222  52.455  1.00  0.00    -0.002 C 
BRANCH  21  22
HETATM   22  C3  UNL     1      19.632   2.886  51.471  1.00  0.00    -0.005 C 
HETATM   23  C2  UNL     1      19.332   1.630  51.149  1.00  0.00    -0.031 C 
HETATM   24  C1  UNL     1      20.101   0.578  51.860  1.00  0.00     0.036 C 
ENDBRANCH  21  22
ENDBRANCH   1  20
TORSDOF 5
ENDMDL
MODEL 7
REMARK VINA RESULT:      -6.6      1.384      2.556
REMARK  5 active torsions:
REMARK  status: ('A' for Active; 'I' for Inactive)
REMARK    1  A    between atoms: C3_3  and  C4_4 
REMARK    2  A    between atoms: C5_5  and  C6_6 
REMARK    3  A    between atoms: C9_12  and  C10_13 
REMARK    4  A    between atoms: C10_13  and  C11_14 
REMARK    5  A    between atoms: C10_13  and  C13_16 
ROOT
HETATM    1  C6  UNL     1      24.268   3.044  52.723  1.00  0.00     0.145 A 
HETATM    2  N1  UNL     1      24.162   4.422  53.153  1.00  0.00    -0.362 N 
HETATM    3  C7  UNL     1      22.971   4.724  52.401  1.00  0.00     0.136 A 
HETATM    4  N2  UNL     1      21.924   5.398  51.888  1.00  0.00    -0.224 NA
HETATM    5  C8  UNL     1      21.023   4.868  51.041  1.00  0.00     0.235 A 
HETATM    6  N3  UNL     1      21.109   3.569  50.627  1.00  0.00    -0.245 NA
HETATM    7  C9  UNL     1      22.135   2.847  51.107  1.00  0.00     0.057 A 
HETATM    8  C19 UNL     1      23.043   3.413  51.973  1.00  0.00     0.039 A 
HETATM    9  H9  UNL     1      24.585   5.200  53.747  1.00  0.00     0.162 HD
ENDROOT
BRANCH   7  10
HETATM   10  C10 UNL     1      22.151   1.447  50.609  1.00  0.00     0.071 C 
BRANCH  10  11
HETATM   11  C11 UNL     1      21.172   1.222  49.468  1.00  0.00     0.011 C 
HETATM   12  C12 UNL     1      21.855   1.356  48.146  1.00  0.00     0.006 C 
ENDBRANCH  10  11
BRANCH  10  13
HETATM   13  C13 UNL     1      21.796   0.558  51.722  1.00  0.00    -0.048 A 
HETATM   14  C14 UNL     1      20.479   0.477  52.102  1.00  0.00     0.011 A 
HETATM   15  C15 UNL     1      20.013  -0.326  53.139  1.00  0.00     0.043 A 
HETATM   16  C16 UNL     1      20.910  -1.097  53.842  1.00  0.00     0.116 A 
HETATM   17  F1  UNL     1      20.620  -1.927  54.872  1.00  0.00    -0.206 F 
HETATM   18  C17 UNL     1      22.240  -1.038  53.486  1.00  0.00     0.043 A 
HETATM   19  C18 UNL     1      22.683  -0.223  52.439  1.00  0.00     0.011 A 
ENDBRANCH  10  13
ENDBRANCH   7  10
BRANCH   1  20
HETATM   20  C5  UNL     1      25.411   2.657  51.909  1.00  0.00     0.003 C 
HETATM   21  C4  UNL     1      25.875   3.202  50.805  1.00  0.00    -0.002 C 
BRANCH  21  22
HETATM   22  C3  UNL     1      25.281   4.366  50.169  1.00  0.00    -0.005 C 
HETATM   23  C2  UNL     1      25.912   5.077  49.238  1.00  0.00    -0.031 C 
HETATM   24  C1  UNL     1      27.276   4.610  48.881  1.00  0.00     0.036 C 
ENDBRANCH  21  22
ENDBRANCH   1  20
TORSDOF 5
ENDMDL
MODEL 8
REMARK VINA RESULT:      -6.5      8.186      9.583
REMARK  5 active torsions:
REMARK  status: ('A' for Active; 'I' for Inactive)
REMARK    1  A    between atoms: C3_3  and  C4_4 
REMARK    2  A    between atoms: C5_5  and  C6_6 
REMARK    3  A    between atoms: C9_12  and  C10_13 
REMARK    4  A    between atoms: C10_13  and  C11_14 
REMARK    5  A    between atoms: C10_13  and  C13_16 
ROOT
HETATM    1  C6  UNL     1      30.207   9.003  49.162  1.00  0.00     0.145 A 
HETATM    2  N1  UNL     1      30.250  10.178  50.008  1.00  0.00    -0.362 N 
HETATM    3  C7  UNL     1      29.096  10.821  49.432  1.00  0.00     0.136 A 
HETATM    4  N2  UNL     1      28.126  11.723  49.196  1.00  0.00    -0.224 NA
HETATM    5  C8  UNL     1      27.171  11.583  48.259  1.00  0.00     0.235 A 
HETATM    6  N3  UNL     1      27.115  10.479  47.455  1.00  0.00    -0.245 NA
HETATM    7  C9  UNL     1      28.059   9.544  47.646  1.00  0.00     0.057 A 
HETATM    8  C19 UNL     1      29.026   9.711  48.612  1.00  0.00     0.039 A 
HETATM    9  H9  UNL     1      30.756  10.681  50.799  1.00  0.00     0.162 HD
ENDROOT
BRANCH   7  10
HETATM   10  C10 UNL     1      27.923   8.378  46.733  1.00  0.00     0.071 C 
BRANCH  10  11
HETATM   11  C11 UNL     1      26.869   8.597  45.661  1.00  0.00     0.011 C 
HETATM   12  C12 UNL     1      27.495   8.682  44.307  1.00  0.00     0.006 C 
ENDBRANCH  10  11
BRANCH  10  13
HETATM   13  C13 UNL     1      27.550   7.206  47.535  1.00  0.00    -0.048 A 
HETATM   14  C14 UNL     1      28.498   6.241  47.764  1.00  0.00     0.011 A 
HETATM   15  C15 UNL     1      28.272   5.085  48.507  1.00  0.00     0.043 A 
HETATM   16  C16 UNL     1      27.028   4.875  49.056  1.00  0.00     0.116 A 
HETATM   17  F1  UNL     1      26.648   3.809  49.799  1.00  0.00    -0.206 F 
HETATM   18  C17 UNL     1      26.053   5.826  48.843  1.00  0.00     0.043 A 
HETATM   19  C18 UNL     1      26.307   6.980  48.093  1.00  0.00     0.011 A 
ENDBRANCH  10  13
ENDBRANCH   7  10
BRANCH   1  20
HETATM   20  C5  UNL     1      31.298   8.780  48.227  1.00  0.00     0.003 C 
HETATM   21  C4  UNL     1      32.124   7.758  48.133  1.00  0.00    -0.002 C 
BRANCH  21  22
HETATM   22  C3  UNL     1      32.078   6.601  49.010  1.00  0.00    -0.005 C 
HETATM   23  C2  UNL     1      32.034   5.353  48.552  1.00  0.00    -0.031 C 
HETATM   24  C1  UNL     1      32.034   5.206  47.074  1.00  0.00     0.036 C 
ENDBRANCH  21  22
ENDBRANCH   1  20
TORSDOF 5
ENDMDL
MODEL 9
REMARK VINA RESULT:      -6.2      2.758      4.767
REMARK  5 active torsions:
REMARK  status: ('A' for Active; 'I' for Inactive)
REMARK    1  A    between atoms: C3_3  and  C4_4 
REMARK    2  A    between atoms: C5_5  and  C6_6 
REMARK    3  A    between atoms: C9_12  and  C10_13 
REMARK    4  A    between atoms: C10_13  and  C11_14 
REMARK    5  A    between atoms: C10_13  and  C13_16 
ROOT
HETATM    1  C6  UNL     1      22.484   4.104  48.293  1.00  0.00     0.145 A 
HETATM    2  N1  UNL     1      21.721   3.527  47.207  1.00  0.00    -0.362 N 
HETATM    3  C7  UNL     1      20.492   3.383  47.945  1.00  0.00     0.136 A 
HETATM    4  N2  UNL     1      19.214   3.086  48.247  1.00  0.00    -0.224 NA
HETATM    5  C8  UNL     1      18.651   3.294  49.451  1.00  0.00     0.235 A 
HETATM    6  N3  UNL     1      19.358   3.840  50.486  1.00  0.00    -0.245 NA
HETATM    7  C9  UNL     1      20.639   4.157  50.242  1.00  0.00     0.057 A 
HETATM    8  C19 UNL     1      21.192   3.934  49.001  1.00  0.00     0.039 A 
HETATM    9  H9  UNL     1      21.729   3.209  46.190  1.00  0.00     0.162 HD
ENDROOT
BRANCH   7  10
HETATM   10  C10 UNL     1      21.332   4.746  51.418  1.00  0.00     0.071 C 
BRANCH  10  11
HETATM   11  C11 UNL     1      22.160   5.968  51.055  1.00  0.00     0.011 C 
HETATM   12  C12 UNL     1      21.282   7.147  50.792  1.00  0.00     0.006 C 
ENDBRANCH  10  11
BRANCH  10  13
HETATM   13  C13 UNL     1      22.217   3.725  51.991  1.00  0.00    -0.048 A 
HETATM   14  C14 UNL     1      23.420   4.122  52.518  1.00  0.00     0.011 A 
HETATM   15  C15 UNL     1      24.348   3.254  53.090  1.00  0.00     0.043 A 
HETATM   16  C16 UNL     1      24.061   1.909  53.141  1.00  0.00     0.116 A 
HETATM   17  F1  UNL     1      24.851   0.940  53.661  1.00  0.00    -0.206 F 
HETATM   18  C17 UNL     1      22.861   1.478  52.620  1.00  0.00     0.043 A 
HETATM   19  C18 UNL     1      21.946   2.371  52.051  1.00  0.00     0.011 A 
ENDBRANCH  10  13
ENDBRANCH   7  10
BRANCH   1  20
HETATM   20  C5  UNL     1      23.602   3.347  48.835  1.00  0.00     0.003 C 
HETATM   21  C4  UNL     1      24.770   3.774  49.269  1.00  0.00    -0.002 C 
BRANCH  21  22
HETATM   22  C3  UNL     1      25.163   5.172  49.280  1.00  0.00    -0.005 C 
HETATM   23  C2  UNL     1      26.416   5.568  49.070  1.00  0.00    -0.031 C 
HETATM   24  C1  UNL     1      27.403   4.487  48.821  1.00  0.00     0.036 C 
ENDBRANCH  21  22
ENDBRANCH   1  20
TORSDOF 5
ENDMDL
