MODEL 1
REMARK VINA RESULT:      -6.8      0.000      0.000
REMARK  5 active torsions:
REMARK  status: ('A' for Active; 'I' for Inactive)
REMARK    1  A    between atoms: C2_2  and  N1_3 
REMARK    2  A    between atoms: N1_3  and  C3_4 
REMARK    3  A    between atoms: C3_4  and  C4_5 
REMARK    4  A    between atoms: C10_14  and  C11_15 
REMARK    5  A    between atoms: C12_16  and  O1_18 
ROOT
HETATM    1  C4  UNL     1      25.628   0.479  53.320  1.00  0.00     0.094 A 
HETATM    2  N2  UNL     1      26.747   0.306  54.068  1.00  0.00    -0.242 NA
HETATM    3  C5  UNL     1      27.892   0.984  53.801  1.00  0.00     0.236 A 
HETATM    4  N3  UNL     1      27.979   1.867  52.779  1.00  0.00    -0.216 NA
HETATM    5  C6  UNL     1      26.908   2.099  51.984  1.00  0.00     0.195 A 
HETATM    6  C7  UNL     1      25.777   1.389  52.296  1.00  0.00     0.108 A 
HETATM    7  N4  UNL     1      24.536   1.486  51.619  1.00  0.00    -0.381 N 
HETATM    8  C8  UNL     1      23.934   2.466  50.713  1.00  0.00     0.156 C 
HETATM    9  C9  UNL     1      24.930   3.457  50.313  1.00  0.00    -0.038 C 
HETATM   10  C10 UNL     1      24.547   4.709  50.427  1.00  0.00     0.009 C 
HETATM   11  C14 UNL     1      26.273   3.153  49.815  1.00  0.00     0.213 C 
HETATM   12  O2  UNL     1      27.118   3.030  50.963  1.00  0.00    -0.328 OA
HETATM   13  H10 UNL     1      23.807   0.749  51.715  1.00  0.00     0.160 HD
ENDROOT
BRANCH  10  14
HETATM   14  C11 UNL     1      25.134   6.001  50.173  1.00  0.00     0.032 C 
HETATM   15  C12 UNL     1      25.045   7.239  50.596  1.00  0.00     0.039 C 
HETATM   16  C13 UNL     1      25.863   8.330  50.050  1.00  0.00     0.076 C 
BRANCH  15  17
HETATM   17  O1  UNL     1      24.205   7.721  51.589  1.00  0.00    -0.365 OA
HETATM   18  H18 UNL     1      23.938   7.189  52.410  1.00  0.00     0.217 HD
ENDBRANCH  15  17
ENDBRANCH  10  14
BRANCH   1  19
HETATM   19  C3  UNL     1      24.369  -0.258  53.609  1.00  0.00     0.331 C 
BRANCH  19  20
HETATM   20  N1  UNL     1      24.490  -0.932  54.900  1.00  0.00     0.088 N 
HETATM   21  H6  UNL     1      25.182  -1.695  54.891  1.00  0.00     0.316 HD
BRANCH  20  22
HETATM   22  C2  UNL     1      23.238  -1.396  55.430  1.00  0.00     0.265 C 
HETATM   23  C1  UNL     1      22.066  -0.753  54.706  1.00  0.00     0.037 C 
ENDBRANCH  20  22
ENDBRANCH  19  20
ENDBRANCH   1  19
TORSDOF 5
ENDMDL
MODEL 2
REMARK VINA RESULT:      -6.8      3.866      7.280
REMARK  5 active torsions:
REMARK  status: ('A' for Active; 'I' for Inactive)
REMARK    1  A    between atoms: C2_2  and  N1_3 
REMARK    2  A    between atoms: N1_3  and  C3_4 
REMARK    3  A    between atoms: C3_4  and  C4_5 
REMARK    4  A    between atoms: C10_14  and  C11_15 
REMARK    5  A    between atoms: C12_16  and  O1_18 
ROOT
HETATM    1  C4  UNL     1      24.545   1.557  52.105  1.00  0.00     0.094 A 
HETATM    2  N2  UNL     1      25.649   0.778  52.237  1.00  0.00    -0.242 NA
HETATM    3  C5  UNL     1      25.634  -0.352  52.988  1.00  0.00     0.236 A 
HETATM    4  N3  UNL     1      24.523  -0.762  53.643  1.00  0.00    -0.216 NA
HETATM    5  C6  UNL     1      23.378  -0.043  53.564  1.00  0.00     0.195 A 
HETATM    6  C7  UNL     1      23.446   1.089  52.792  1.00  0.00     0.108 A 
HETATM    7  N4  UNL     1      22.371   1.979  52.548  1.00  0.00    -0.381 N 
HETATM    8  C8  UNL     1      20.915   1.892  52.678  1.00  0.00     0.156 C 
HETATM    9  C9  UNL     1      20.548   0.663  53.378  1.00  0.00    -0.038 C 
HETATM   10  C10 UNL     1      19.607  -0.048  52.796  1.00  0.00     0.009 C 
HETATM   11  C14 UNL     1      21.138   0.194  54.632  1.00  0.00     0.213 C 
HETATM   12  O2  UNL     1      22.299  -0.565  54.281  1.00  0.00    -0.328 OA
HETATM   13  H10 UNL     1      22.535   2.943  52.190  1.00  0.00     0.160 HD
ENDROOT
BRANCH  10  14
HETATM   14  C11 UNL     1      18.922  -1.286  53.073  1.00  0.00     0.032 C 
HETATM   15  C12 UNL     1      17.724  -1.715  53.389  1.00  0.00     0.039 C 
HETATM   16  C13 UNL     1      17.414  -3.135  53.599  1.00  0.00     0.076 C 
BRANCH  15  17
HETATM   17  O1  UNL     1      16.585  -0.945  53.571  1.00  0.00    -0.365 OA
HETATM   18  H18 UNL     1      16.578   0.069  53.539  1.00  0.00     0.217 HD
ENDBRANCH  15  17
ENDBRANCH  10  14
BRANCH   1  19
HETATM   19  C3  UNL     1      24.552   2.795  51.279  1.00  0.00     0.331 C 
BRANCH  19  20
HETATM   20  N1  UNL     1      25.928   3.263  51.124  1.00  0.00     0.088 N 
HETATM   21  H6  UNL     1      26.063   4.227  51.458  1.00  0.00     0.316 HD
BRANCH  20  22
HETATM   22  C2  UNL     1      26.440   3.117  49.789  1.00  0.00     0.265 C 
HETATM   23  C1  UNL     1      26.799   4.468  49.191  1.00  0.00     0.037 C 
ENDBRANCH  20  22
ENDBRANCH  19  20
ENDBRANCH   1  19
TORSDOF 5
ENDMDL
MODEL 3
REMARK VINA RESULT:      -6.7      4.272      6.637
REMARK  5 active torsions:
REMARK  status: ('A' for Active; 'I' for Inactive)
REMARK    1  A    between atoms: C2_2  and  N1_3 
REMARK    2  A    between atoms: N1_3  and  C3_4 
REMARK    3  A    between atoms: C3_4  and  C4_5 
REMARK    4  A    between atoms: C10_14  and  C11_15 
REMARK    5  A    between atoms: C12_16  and  O1_18 
ROOT
HETATM    1  C4  UNL     1      24.787  -0.590  53.777  1.00  0.00     0.094 A 
HETATM    2  N2  UNL     1      24.958  -1.331  54.901  1.00  0.00    -0.242 NA
HETATM    3  C5  UNL     1      23.939  -1.546  55.772  1.00  0.00     0.236 A 
HETATM    4  N3  UNL     1      22.702  -1.036  55.566  1.00  0.00    -0.216 NA
HETATM    5  C6  UNL     1      22.446  -0.286  54.469  1.00  0.00     0.195 A 
HETATM    6  C7  UNL     1      23.509  -0.099  53.622  1.00  0.00     0.108 A 
HETATM    7  N4  UNL     1      23.469   0.629  52.406  1.00  0.00    -0.381 N 
HETATM    8  C8  UNL     1      22.399   1.085  51.517  1.00  0.00     0.156 C 
HETATM    9  C9  UNL     1      21.098   0.872  52.147  1.00  0.00    -0.038 C 
HETATM   10  C10 UNL     1      20.205   0.274  51.391  1.00  0.00     0.009 C 
HETATM   11  C14 UNL     1      20.745   1.265  53.512  1.00  0.00     0.213 C 
HETATM   12  O2  UNL     1      21.135   0.184  54.365  1.00  0.00    -0.328 OA
HETATM   13  H10 UNL     1      24.340   0.965  51.946  1.00  0.00     0.160 HD
ENDROOT
BRANCH  10  14
HETATM   14  C11 UNL     1      18.834  -0.147  51.539  1.00  0.00     0.032 C 
HETATM   15  C12 UNL     1      18.060  -0.738  52.417  1.00  0.00     0.039 C 
HETATM   16  C13 UNL     1      16.636  -1.002  52.176  1.00  0.00     0.076 C 
BRANCH  15  17
HETATM   17  O1  UNL     1      18.427  -1.198  53.674  1.00  0.00    -0.365 OA
HETATM   18  H18 UNL     1      19.330  -1.609  53.883  1.00  0.00     0.217 HD
ENDBRANCH  15  17
ENDBRANCH  10  14
BRANCH   1  19
HETATM   19  C3  UNL     1      25.898  -0.353  52.816  1.00  0.00     0.331 C 
BRANCH  19  20
HETATM   20  N1  UNL     1      27.064  -1.132  53.226  1.00  0.00     0.088 N 
HETATM   21  H6  UNL     1      26.845  -1.831  53.951  1.00  0.00     0.316 HD
BRANCH  20  22
HETATM   22  C2  UNL     1      28.185  -0.327  53.628  1.00  0.00     0.265 C 
HETATM   23  C1  UNL     1      29.475  -1.130  53.589  1.00  0.00     0.037 C 
ENDBRANCH  20  22
ENDBRANCH  19  20
ENDBRANCH   1  19
TORSDOF 5
ENDMDL
MODEL 4
REMARK VINA RESULT:      -6.6      1.170      1.232
REMARK  5 active torsions:
REMARK  status: ('A' for Active; 'I' for Inactive)
REMARK    1  A    between atoms: C2_2  and  N1_3 
REMARK    2  A    between atoms: N1_3  and  C3_4 
REMARK    3  A    between atoms: C3_4  and  C4_5 
REMARK    4  A    between atoms: C10_14  and  C11_15 
REMARK    5  A    between atoms: C12_16  and  O1_18 
ROOT
HETATM    1  C4  UNL     1      25.054   1.327  53.042  1.00  0.00     0.094 A 
HETATM    2  N2  UNL     1      26.052   1.117  53.938  1.00  0.00    -0.242 NA
HETATM    3  C5  UNL     1      27.314   1.561  53.711  1.00  0.00     0.236 A 
HETATM    4  N3  UNL     1      27.645   2.235  52.585  1.00  0.00    -0.216 NA
HETATM    5  C6  UNL     1      26.709   2.487  51.640  1.00  0.00     0.195 A 
HETATM    6  C7  UNL     1      25.450   2.017  51.917  1.00  0.00     0.108 A 
HETATM    7  N4  UNL     1      24.313   2.183  51.088  1.00  0.00    -0.381 N 
HETATM    8  C8  UNL     1      23.973   3.075  49.978  1.00  0.00     0.156 C 
HETATM    9  C9  UNL     1      25.154   3.822  49.555  1.00  0.00    -0.038 C 
HETATM   10  C10 UNL     1      24.977   5.119  49.430  1.00  0.00     0.009 C 
HETATM   11  C14 UNL     1      26.468   3.241  49.276  1.00  0.00     0.213 C 
HETATM   12  O2  UNL     1      27.168   3.189  50.523  1.00  0.00    -0.328 OA
HETATM   13  H10 UNL     1      23.465   1.591  51.206  1.00  0.00     0.160 HD
ENDROOT
BRANCH  10  14
HETATM   14  C11 UNL     1      25.794   6.247  49.056  1.00  0.00     0.032 C 
HETATM   15  C12 UNL     1      26.352   7.300  49.602  1.00  0.00     0.039 C 
HETATM   16  C13 UNL     1      27.151   8.266  48.837  1.00  0.00     0.076 C 
BRANCH  15  17
HETATM   17  O1  UNL     1      26.296   7.675  50.937  1.00  0.00    -0.365 OA
HETATM   18  H18 UNL     1      26.989   8.261  51.388  1.00  0.00     0.217 HD
ENDBRANCH  15  17
ENDBRANCH  10  14
BRANCH   1  19
HETATM   19  C3  UNL     1      23.668   0.847  53.285  1.00  0.00     0.331 C 
BRANCH  19  20
HETATM   20  N1  UNL     1      23.678  -0.608  53.423  1.00  0.00     0.088 N 
HETATM   21  H6  UNL     1      24.223  -1.077  52.685  1.00  0.00     0.316 HD
BRANCH  20  22
HETATM   22  C2  UNL     1      22.368  -1.189  53.525  1.00  0.00     0.265 C 
HETATM   23  C1  UNL     1      21.643  -0.689  54.764  1.00  0.00     0.037 C 
ENDBRANCH  20  22
ENDBRANCH  19  20
ENDBRANCH   1  19
TORSDOF 5
ENDMDL
MODEL 5
REMARK VINA RESULT:      -6.6      2.881      6.270
REMARK  5 active torsions:
REMARK  status: ('A' for Active; 'I' for Inactive)
REMARK    1  A    between atoms: C2_2  and  N1_3 
REMARK    2  A    between atoms: N1_3  and  C3_4 
REMARK    3  A    between atoms: C3_4  and  C4_5 
REMARK    4  A    between atoms: C10_14  and  C11_15 
REMARK    5  A    between atoms: C12_16  and  O1_18 
ROOT
HETATM    1  C4  UNL     1      24.321   3.723  49.742  1.00  0.00     0.094 A 
HETATM    2  N2  UNL     1      25.067   4.494  48.911  1.00  0.00    -0.242 NA
HETATM    3  C5  UNL     1      26.414   4.590  49.050  1.00  0.00     0.236 A 
HETATM    4  N3  UNL     1      27.083   3.923  50.019  1.00  0.00    -0.216 NA
HETATM    5  C6  UNL     1      26.414   3.131  50.890  1.00  0.00     0.195 A 
HETATM    6  C7  UNL     1      25.056   3.069  50.707  1.00  0.00     0.108 A 
HETATM    7  N4  UNL     1      24.159   2.291  51.480  1.00  0.00    -0.381 N 
HETATM    8  C8  UNL     1      24.309   1.151  52.388  1.00  0.00     0.156 C 
HETATM    9  C9  UNL     1      25.724   0.907  52.657  1.00  0.00    -0.038 C 
HETATM   10  C10 UNL     1      26.109  -0.342  52.518  1.00  0.00     0.009 C 
HETATM   11  C14 UNL     1      26.697   1.925  53.054  1.00  0.00     0.213 C 
HETATM   12  O2  UNL     1      27.210   2.495  51.845  1.00  0.00    -0.328 OA
HETATM   13  H10 UNL     1      23.136   2.481  51.480  1.00  0.00     0.160 HD
ENDROOT
BRANCH  10  14
HETATM   14  C11 UNL     1      27.346  -1.069  52.662  1.00  0.00     0.032 C 
HETATM   15  C12 UNL     1      28.352  -1.173  53.496  1.00  0.00     0.039 C 
HETATM   16  C13 UNL     1      29.486  -2.078  53.270  1.00  0.00     0.076 C 
BRANCH  15  17
HETATM   17  O1  UNL     1      28.520  -0.482  54.688  1.00  0.00    -0.365 OA
HETATM   18  H18 UNL     1      28.456  -0.913  55.604  1.00  0.00     0.217 HD
ENDBRANCH  15  17
ENDBRANCH  10  14
BRANCH   1  19
HETATM   19  C3  UNL     1      22.845   3.610  49.593  1.00  0.00     0.331 C 
BRANCH  19  20
HETATM   20  N1  UNL     1      22.513   3.460  48.178  1.00  0.00     0.088 N 
HETATM   21  H6  UNL     1      21.679   3.999  47.903  1.00  0.00     0.316 HD
BRANCH  20  22
HETATM   22  C2  UNL     1      22.389   2.092  47.755  1.00  0.00     0.265 C 
HETATM   23  C1  UNL     1      21.580   1.283  48.756  1.00  0.00     0.037 C 
ENDBRANCH  20  22
ENDBRANCH  19  20
ENDBRANCH   1  19
TORSDOF 5
ENDMDL
MODEL 6
REMARK VINA RESULT:      -6.5      3.060      5.983
REMARK  5 active torsions:
REMARK  status: ('A' for Active; 'I' for Inactive)
REMARK    1  A    between atoms: C2_2  and  N1_3 
REMARK    2  A    between atoms: N1_3  and  C3_4 
REMARK    3  A    between atoms: C3_4  and  C4_5 
REMARK    4  A    between atoms: C10_14  and  C11_15 
REMARK    5  A    between atoms: C12_16  and  O1_18 
ROOT
HETATM    1  C4  UNL     1      22.259   1.583  50.400  1.00  0.00     0.094 A 
HETATM    2  N2  UNL     1      22.446   2.484  49.402  1.00  0.00    -0.242 NA
HETATM    3  C5  UNL     1      23.589   3.209  49.306  1.00  0.00     0.236 A 
HETATM    4  N3  UNL     1      24.600   3.073  50.195  1.00  0.00    -0.216 NA
HETATM    5  C6  UNL     1      24.495   2.195  51.221  1.00  0.00     0.195 A 
HETATM    6  C7  UNL     1      23.320   1.488  51.273  1.00  0.00     0.108 A 
HETATM    7  N4  UNL     1      22.999   0.503  52.240  1.00  0.00    -0.381 N 
HETATM    8  C8  UNL     1      23.777  -0.296  53.189  1.00  0.00     0.156 C 
HETATM    9  C9  UNL     1      25.156   0.182  53.234  1.00  0.00    -0.038 C 
HETATM   10  C10 UNL     1      26.073  -0.754  53.124  1.00  0.00     0.009 C 
HETATM   11  C14 UNL     1      25.563   1.579  53.388  1.00  0.00     0.213 C 
HETATM   12  O2  UNL     1      25.600   2.143  52.072  1.00  0.00    -0.328 OA
HETATM   13  H10 UNL     1      22.017   0.197  52.397  1.00  0.00     0.160 HD
ENDROOT
BRANCH  10  14
HETATM   14  C11 UNL     1      27.514  -0.798  53.110  1.00  0.00     0.032 C 
HETATM   15  C12 UNL     1      28.528  -0.562  53.907  1.00  0.00     0.039 C 
HETATM   16  C13 UNL     1      29.926  -0.735  53.493  1.00  0.00     0.076 C 
BRANCH  15  17
HETATM   17  O1  UNL     1      28.469  -0.127  55.223  1.00  0.00    -0.365 OA
HETATM   18  H18 UNL     1      27.745   0.484  55.584  1.00  0.00     0.217 HD
ENDBRANCH  15  17
ENDBRANCH  10  14
BRANCH   1  19
HETATM   19  C3  UNL     1      21.010   0.782  50.509  1.00  0.00     0.331 C 
BRANCH  19  20
HETATM   20  N1  UNL     1      19.890   1.672  50.806  1.00  0.00     0.088 N 
HETATM   21  H6  UNL     1      20.188   2.637  51.009  1.00  0.00     0.316 HD
BRANCH  20  22
HETATM   22  C2  UNL     1      19.024   1.186  51.844  1.00  0.00     0.265 C 
HETATM   23  C1  UNL     1      18.371  -0.127  51.440  1.00  0.00     0.037 C 
ENDBRANCH  20  22
ENDBRANCH  19  20
ENDBRANCH   1  19
TORSDOF 5
ENDMDL
MODEL 7
REMARK VINA RESULT:      -6.5      2.377      3.935
REMARK  5 active torsions:
REMARK  status: ('A' for Active; 'I' for Inactive)
REMARK    1  A    between atoms: C2_2  and  N1_3 
REMARK    2  A    between atoms: N1_3  and  C3_4 
REMARK    3  A    between atoms: C3_4  and  C4_5 
REMARK    4  A    between atoms: C10_14  and  C11_15 
REMARK    5  A    between atoms: C12_16  and  O1_18 
ROOT
HETATM    1  C4  UNL     1      25.473  -0.150  53.180  1.00  0.00     0.094 A 
HETATM    2  N2  UNL     1      24.473  -0.864  53.755  1.00  0.00    -0.242 NA
HETATM    3  C5  UNL     1      23.199  -0.399  53.790  1.00  0.00     0.236 A 
HETATM    4  N3  UNL     1      22.857   0.796  53.256  1.00  0.00    -0.216 NA
HETATM    5  C6  UNL     1      23.795   1.572  52.663  1.00  0.00     0.195 A 
HETATM    6  C7  UNL     1      25.066   1.057  52.653  1.00  0.00     0.108 A 
HETATM    7  N4  UNL     1      26.198   1.679  52.071  1.00  0.00    -0.381 N 
HETATM    8  C8  UNL     1      26.391   2.751  51.092  1.00  0.00     0.156 C 
HETATM    9  C9  UNL     1      25.117   3.408  50.810  1.00  0.00    -0.038 C 
HETATM   10  C10 UNL     1      24.837   3.557  49.535  1.00  0.00     0.009 C 
HETATM   11  C14 UNL     1      24.172   3.888  51.819  1.00  0.00     0.213 C 
HETATM   12  O2  UNL     1      23.324   2.782  52.148  1.00  0.00    -0.328 OA
HETATM   13  H10 UNL     1      27.166   1.388  52.320  1.00  0.00     0.160 HD
ENDROOT
BRANCH  10  14
HETATM   14  C11 UNL     1      23.752   4.118  48.769  1.00  0.00     0.032 C 
HETATM   15  C12 UNL     1      22.444   4.065  48.703  1.00  0.00     0.039 C 
HETATM   16  C13 UNL     1      21.663   4.831  47.723  1.00  0.00     0.076 C 
BRANCH  15  17
HETATM   17  O1  UNL     1      21.600   3.315  49.508  1.00  0.00    -0.365 OA
HETATM   18  H18 UNL     1      20.733   2.899  49.185  1.00  0.00     0.217 HD
ENDBRANCH  15  17
ENDBRANCH  10  14
BRANCH   1  19
HETATM   19  C3  UNL     1      26.872  -0.654  53.134  1.00  0.00     0.331 C 
BRANCH  19  20
HETATM   20  N1  UNL     1      27.465  -0.554  54.466  1.00  0.00     0.088 N 
HETATM   21  H6  UNL     1      26.822  -0.150  55.161  1.00  0.00     0.316 HD
BRANCH  20  22
HETATM   22  C2  UNL     1      28.726   0.135  54.487  1.00  0.00     0.265 C 
HETATM   23  C1  UNL     1      29.776  -0.622  53.691  1.00  0.00     0.037 C 
ENDBRANCH  20  22
ENDBRANCH  19  20
ENDBRANCH   1  19
TORSDOF 5
ENDMDL
MODEL 8
REMARK VINA RESULT:      -6.4      2.839      4.731
REMARK  5 active torsions:
REMARK  status: ('A' for Active; 'I' for Inactive)
REMARK    1  A    between atoms: C2_2  and  N1_3 
REMARK    2  A    between atoms: N1_3  and  C3_4 
REMARK    3  A    between atoms: C3_4  and  C4_5 
REMARK    4  A    between atoms: C10_14  and  C11_15 
REMARK    5  A    between atoms: C12_16  and  O1_18 
ROOT
HETATM    1  C4  UNL     1      26.029   1.077  53.330  1.00  0.00     0.094 A 
HETATM    2  N2  UNL     1      26.911   1.876  52.678  1.00  0.00    -0.242 NA
HETATM    3  C5  UNL     1      26.569   2.529  51.538  1.00  0.00     0.236 A 
HETATM    4  N3  UNL     1      25.335   2.421  50.994  1.00  0.00    -0.216 NA
HETATM    5  C6  UNL     1      24.394   1.645  51.582  1.00  0.00     0.195 A 
HETATM    6  C7  UNL     1      24.790   1.007  52.730  1.00  0.00     0.108 A 
HETATM    7  N4  UNL     1      23.971   0.166  53.525  1.00  0.00    -0.381 N 
HETATM    8  C8  UNL     1      22.528  -0.044  53.646  1.00  0.00     0.156 C 
HETATM    9  C9  UNL     1      21.826   0.664  52.578  1.00  0.00    -0.038 C 
HETATM   10  C10 UNL     1      20.814   1.403  52.972  1.00  0.00     0.009 C 
HETATM   11  C14 UNL     1      22.169   0.604  51.157  1.00  0.00     0.213 C 
HETATM   12  O2  UNL     1      23.160   1.612  50.930  1.00  0.00    -0.328 OA
HETATM   13  H10 UNL     1      24.382  -0.495  54.216  1.00  0.00     0.160 HD
ENDROOT
BRANCH  10  14
HETATM   14  C11 UNL     1      19.844   2.259  52.335  1.00  0.00     0.032 C 
HETATM   15  C12 UNL     1      19.775   3.436  51.761  1.00  0.00     0.039 C 
HETATM   16  C13 UNL     1      18.529   3.982  51.208  1.00  0.00     0.076 C 
BRANCH  15  17
HETATM   17  O1  UNL     1      20.816   4.335  51.578  1.00  0.00    -0.365 OA
HETATM   18  H18 UNL     1      20.682   5.326  51.404  1.00  0.00     0.217 HD
ENDBRANCH  15  17
ENDBRANCH  10  14
BRANCH   1  19
HETATM   19  C3  UNL     1      26.395   0.362  54.582  1.00  0.00     0.331 C 
BRANCH  19  20
HETATM   20  N1  UNL     1      27.444  -0.614  54.290  1.00  0.00     0.088 N 
HETATM   21  H6  UNL     1      27.279  -1.526  54.740  1.00  0.00     0.316 HD
BRANCH  20  22
HETATM   22  C2  UNL     1      28.769  -0.143  54.583  1.00  0.00     0.265 C 
HETATM   23  C1  UNL     1      29.802  -0.843  53.714  1.00  0.00     0.037 C 
ENDBRANCH  20  22
ENDBRANCH  19  20
ENDBRANCH   1  19
TORSDOF 5
ENDMDL
MODEL 9
REMARK VINA RESULT:      -6.2      3.632      7.787
REMARK  5 active torsions:
REMARK  status: ('A' for Active; 'I' for Inactive)
REMARK    1  A    between atoms: C2_2  and  N1_3 
REMARK    2  A    between atoms: N1_3  and  C3_4 
REMARK    3  A    between atoms: C3_4  and  C4_5 
REMARK    4  A    between atoms: C10_14  and  C11_15 
REMARK    5  A    between atoms: C12_16  and  O1_18 
ROOT
HETATM    1  C4  UNL     1      26.344   7.842  49.409  1.00  0.00     0.094 A 
HETATM    2  N2  UNL     1      25.505   8.740  49.985  1.00  0.00    -0.242 NA
HETATM    3  C5  UNL     1      24.372   8.347  50.620  1.00  0.00     0.236 A 
HETATM    4  N3  UNL     1      24.019   7.044  50.714  1.00  0.00    -0.216 NA
HETATM    5  C6  UNL     1      24.801   6.083  50.166  1.00  0.00     0.195 A 
HETATM    6  C7  UNL     1      25.933   6.533  49.536  1.00  0.00     0.108 A 
HETATM    7  N4  UNL     1      26.906   5.711  48.914  1.00  0.00    -0.381 N 
HETATM    8  C8  UNL     1      27.249   4.290  48.988  1.00  0.00     0.156 C 
HETATM    9  C9  UNL     1      26.232   3.568  49.749  1.00  0.00    -0.038 C 
HETATM   10  C10 UNL     1      26.698   2.776  50.689  1.00  0.00     0.009 C 
HETATM   11  C14 UNL     1      24.787   3.670  49.539  1.00  0.00     0.213 C 
HETATM   12  O2  UNL     1      24.335   4.776  50.327  1.00  0.00    -0.328 OA
HETATM   13  H10 UNL     1      27.589   6.101  48.231  1.00  0.00     0.160 HD
ENDROOT
BRANCH  10  14
HETATM   14  C11 UNL     1      26.131   1.886  51.672  1.00  0.00     0.032 C 
HETATM   15  C12 UNL     1      25.437   1.938  52.783  1.00  0.00     0.039 C 
HETATM   16  C13 UNL     1      25.036   0.739  53.530  1.00  0.00     0.076 C 
BRANCH  15  17
HETATM   17  O1  UNL     1      24.974   3.079  53.423  1.00  0.00    -0.365 OA
HETATM   18  H18 UNL     1      25.361   3.436  54.290  1.00  0.00     0.217 HD
ENDBRANCH  15  17
ENDBRANCH  10  14
BRANCH   1  19
HETATM   19  C3  UNL     1      27.589   8.266  48.714  1.00  0.00     0.331 C 
BRANCH  19  20
HETATM   20  N1  UNL     1      28.553   8.747  49.702  1.00  0.00     0.088 N 
HETATM   21  H6  UNL     1      28.273   9.639  50.133  1.00  0.00     0.316 HD
BRANCH  20  22
HETATM   22  C2  UNL     1      29.898   8.830  49.204  1.00  0.00     0.265 C 
HETATM   23  C1  UNL     1      30.476  10.219  49.422  1.00  0.00     0.037 C 
ENDBRANCH  20  22
ENDBRANCH  19  20
ENDBRANCH   1  19
TORSDOF 5
ENDMDL
