MODEL 1
REMARK VINA RESULT:      -8.9      0.000      0.000
REMARK  4 active torsions:
REMARK  status: ('A' for Active; 'I' for Inactive)
REMARK    1  A    between atoms: N1_6  and  C6_7 
REMARK    2  A    between atoms: C8_9  and  N2_10 
REMARK    3  A    between atoms: N2_10  and  C9_11 
REMARK    4  A    between atoms: C9_11  and  C10_12 
ROOT
HETATM    1  C6  UNL     1      24.593   4.657  50.693  1.00  0.00     0.134 A 
HETATM    2  C7  UNL     1      24.632   3.330  51.030  1.00  0.00     0.100 A 
HETATM    3  C8  UNL     1      23.808   2.667  51.921  1.00  0.00     0.128 A 
HETATM    4  N3  UNL     1      22.864   3.411  52.527  1.00  0.00    -0.225 NA
HETATM    5  C16 UNL     1      22.780   4.742  52.229  1.00  0.00     0.237 A 
HETATM    6  N4  UNL     1      23.615   5.325  51.348  1.00  0.00    -0.224 NA
ENDROOT
BRANCH   3   7
HETATM    7  N2  UNL     1      23.991   1.266  52.153  1.00  0.00    -0.374 N 
HETATM    8  H8  UNL     1      23.291   0.838  51.474  1.00  0.00     0.161 HD
BRANCH   7   9
HETATM    9  C9  UNL     1      24.834   0.463  53.027  1.00  0.00     0.134 C 
BRANCH   9  10
HETATM   10  C10 UNL     1      26.086   0.183  52.196  1.00  0.00     0.054 A 
HETATM   11  C11 UNL     1      26.660  -1.142  52.463  1.00  0.00     0.023 A 
HETATM   12  C12 UNL     1      27.826  -1.033  53.083  1.00  0.00     0.101 A 
HETATM   13  O1  UNL     1      28.872  -1.793  53.616  1.00  0.00    -0.323 OA
HETATM   14  C14 UNL     1      28.195   0.379  53.315  1.00  0.00     0.101 A 
HETATM   15  C13 UNL     1      30.029  -0.974  53.738  1.00  0.00     0.352 C 
HETATM   16  O2  UNL     1      29.437   0.295  53.970  1.00  0.00    -0.323 OA
HETATM   17  C15 UNL     1      27.171   1.057  52.791  1.00  0.00     0.023 A 
ENDBRANCH   9  10
ENDBRANCH   7   9
ENDBRANCH   3   7
BRANCH   1  18
HETATM   18  N1  UNL     1      25.399   5.395  49.799  1.00  0.00    -0.338 N 
HETATM   19  C5  UNL     1      26.490   4.744  49.171  1.00  0.00     0.093 C 
HETATM   20  C4  UNL     1      27.655   4.893  48.557  1.00  0.00     0.018 C 
HETATM   21  C3  UNL     1      28.400   6.130  48.238  1.00  0.00     0.008 C 
HETATM   22  C2  UNL     1      28.273   7.433  48.555  1.00  0.00    -0.056 C 
HETATM   23  C1  UNL     1      29.288   8.322  47.982  1.00  0.00     0.049 C 
HETATM   24  C19 UNL     1      27.257   8.091  49.398  1.00  0.00    -0.058 C 
HETATM   25  C18 UNL     1      26.024   7.773  49.763  1.00  0.00     0.000 C 
HETATM   26  C20 UNL     1      27.794   9.384  49.911  1.00  0.00     0.048 C 
HETATM   27  C17 UNL     1      24.961   6.755  49.639  1.00  0.00     0.158 C 
ENDBRANCH   1  18
TORSDOF 4
ENDMDL
MODEL 2
REMARK VINA RESULT:      -8.8      2.548      7.198
REMARK  4 active torsions:
REMARK  status: ('A' for Active; 'I' for Inactive)
REMARK    1  A    between atoms: N1_6  and  C6_7 
REMARK    2  A    between atoms: C8_9  and  N2_10 
REMARK    3  A    between atoms: N2_10  and  C9_11 
REMARK    4  A    between atoms: C9_11  and  C10_12 
ROOT
HETATM    1  C6  UNL     1      24.494   2.470  52.460  1.00  0.00     0.134 A 
HETATM    2  C7  UNL     1      24.566   3.583  51.666  1.00  0.00     0.100 A 
HETATM    3  C8  UNL     1      23.514   4.274  51.093  1.00  0.00     0.128 A 
HETATM    4  N3  UNL     1      22.281   3.797  51.343  1.00  0.00    -0.225 NA
HETATM    5  C16 UNL     1      22.150   2.687  52.130  1.00  0.00     0.237 A 
HETATM    6  N4  UNL     1      23.218   2.062  52.658  1.00  0.00    -0.224 NA
ENDROOT
BRANCH   3   7
HETATM    7  N2  UNL     1      23.775   5.428  50.286  1.00  0.00    -0.374 N 
HETATM    8  H8  UNL     1      22.855   5.543  49.764  1.00  0.00     0.161 HD
BRANCH   7   9
HETATM    9  C9  UNL     1      24.911   6.318  50.091  1.00  0.00     0.134 C 
BRANCH   9  10
HETATM   10  C10 UNL     1      25.539   5.850  48.778  1.00  0.00     0.054 A 
HETATM   11  C11 UNL     1      26.619   4.876  48.982  1.00  0.00     0.023 A 
HETATM   12  C12 UNL     1      27.792   5.400  48.658  1.00  0.00     0.101 A 
HETATM   13  O1  UNL     1      29.157   5.104  48.595  1.00  0.00    -0.323 OA
HETATM   14  C14 UNL     1      27.660   6.796  48.193  1.00  0.00     0.101 A 
HETATM   15  C13 UNL     1      29.795   6.026  47.720  1.00  0.00     0.352 C 
HETATM   16  O2  UNL     1      28.983   7.177  47.903  1.00  0.00    -0.323 OA
HETATM   17  C15 UNL     1      26.347   7.026  48.273  1.00  0.00     0.023 A 
ENDBRANCH   9  10
ENDBRANCH   7   9
ENDBRANCH   3   7
BRANCH   1  18
HETATM   18  N1  UNL     1      25.521   1.717  53.071  1.00  0.00    -0.338 N 
HETATM   19  C5  UNL     1      26.807   2.298  53.199  1.00  0.00     0.093 C 
HETATM   20  C4  UNL     1      28.103   2.077  53.365  1.00  0.00     0.018 C 
HETATM   21  C3  UNL     1      28.828   0.797  53.513  1.00  0.00     0.008 C 
HETATM   22  C2  UNL     1      28.507  -0.505  53.390  1.00  0.00    -0.056 C 
HETATM   23  C1  UNL     1      29.600  -1.449  53.643  1.00  0.00     0.049 C 
HETATM   24  C19 UNL     1      27.212  -1.115  53.036  1.00  0.00    -0.058 C 
HETATM   25  C18 UNL     1      25.955  -0.703  53.110  1.00  0.00     0.000 C 
HETATM   26  C20 UNL     1      27.436  -2.485  52.492  1.00  0.00     0.048 C 
HETATM   27  C17 UNL     1      25.082   0.420  53.509  1.00  0.00     0.158 C 
ENDBRANCH   1  18
TORSDOF 4
ENDMDL
MODEL 3
REMARK VINA RESULT:      -8.7      4.856      8.649
REMARK  4 active torsions:
REMARK  status: ('A' for Active; 'I' for Inactive)
REMARK    1  A    between atoms: N1_6  and  C6_7 
REMARK    2  A    between atoms: C8_9  and  N2_10 
REMARK    3  A    between atoms: N2_10  and  C9_11 
REMARK    4  A    between atoms: C9_11  and  C10_12 
ROOT
HETATM    1  C6  UNL     1      21.023  -0.715  53.755  1.00  0.00     0.134 A 
HETATM    2  C7  UNL     1      22.084  -0.191  53.066  1.00  0.00     0.100 A 
HETATM    3  C8  UNL     1      23.422  -0.258  53.410  1.00  0.00     0.128 A 
HETATM    4  N3  UNL     1      23.713  -0.908  54.551  1.00  0.00    -0.225 NA
HETATM    5  C16 UNL     1      22.691  -1.450  55.281  1.00  0.00     0.237 A 
HETATM    6  N4  UNL     1      21.409  -1.350  54.887  1.00  0.00    -0.224 NA
ENDROOT
BRANCH   3   7
HETATM    7  N2  UNL     1      24.405   0.349  52.564  1.00  0.00    -0.374 N 
HETATM    8  H8  UNL     1      24.488  -0.364  51.777  1.00  0.00     0.161 HD
BRANCH   7   9
HETATM    9  C9  UNL     1      25.188   1.576  52.602  1.00  0.00     0.134 C 
BRANCH   9  10
HETATM   10  C10 UNL     1      26.523   1.195  51.962  1.00  0.00     0.054 A 
HETATM   11  C11 UNL     1      26.803  -0.244  52.047  1.00  0.00     0.023 A 
HETATM   12  C12 UNL     1      27.816  -0.478  52.868  1.00  0.00     0.101 A 
HETATM   13  O1  UNL     1      28.589  -1.511  53.407  1.00  0.00    -0.323 OA
HETATM   14  C14 UNL     1      28.355   0.771  53.445  1.00  0.00     0.101 A 
HETATM   15  C13 UNL     1      29.813  -0.974  53.893  1.00  0.00     0.352 C 
HETATM   16  O2  UNL     1      29.402   0.330  54.274  1.00  0.00    -0.323 OA
HETATM   17  C15 UNL     1      27.588   1.720  52.901  1.00  0.00     0.023 A 
ENDBRANCH   9  10
ENDBRANCH   7   9
ENDBRANCH   3   7
BRANCH   1  18
HETATM   18  N1  UNL     1      19.642  -0.683  53.465  1.00  0.00    -0.338 N 
HETATM   19  C5  UNL     1      18.838  -1.782  53.856  1.00  0.00     0.093 C 
HETATM   20  C4  UNL     1      17.706  -2.444  53.660  1.00  0.00     0.018 C 
HETATM   21  C3  UNL     1      16.612  -2.173  52.704  1.00  0.00     0.008 C 
HETATM   22  C2  UNL     1      16.433  -1.335  51.666  1.00  0.00    -0.056 C 
HETATM   23  C1  UNL     1      15.133  -1.432  50.994  1.00  0.00     0.049 C 
HETATM   24  C19 UNL     1      17.360  -0.332  51.109  1.00  0.00    -0.058 C 
HETATM   25  C18 UNL     1      18.399   0.328  51.599  1.00  0.00     0.000 C 
HETATM   26  C20 UNL     1      16.992  -0.042  49.692  1.00  0.00     0.048 C 
HETATM   27  C17 UNL     1      19.235   0.526  52.801  1.00  0.00     0.158 C 
ENDBRANCH   1  18
TORSDOF 4
ENDMDL
MODEL 4
REMARK VINA RESULT:      -8.4      3.153      7.860
REMARK  4 active torsions:
REMARK  status: ('A' for Active; 'I' for Inactive)
REMARK    1  A    between atoms: N1_6  and  C6_7 
REMARK    2  A    between atoms: C8_9  and  N2_10 
REMARK    3  A    between atoms: N2_10  and  C9_11 
REMARK    4  A    between atoms: C9_11  and  C10_12 
ROOT
HETATM    1  C6  UNL     1      24.056   2.285  52.980  1.00  0.00     0.134 A 
HETATM    2  C7  UNL     1      23.943   3.611  52.659  1.00  0.00     0.100 A 
HETATM    3  C8  UNL     1      22.815   4.269  52.203  1.00  0.00     0.128 A 
HETATM    4  N3  UNL     1      21.707   3.522  52.056  1.00  0.00    -0.225 NA
HETATM    5  C16 UNL     1      21.763   2.190  52.361  1.00  0.00     0.237 A 
HETATM    6  N4  UNL     1      22.894   1.612  52.802  1.00  0.00    -0.224 NA
ENDROOT
BRANCH   3   7
HETATM    7  N2  UNL     1      22.877   5.671  51.917  1.00  0.00    -0.374 N 
HETATM    8  H8  UNL     1      23.389   6.048  52.771  1.00  0.00     0.161 HD
BRANCH   7   9
HETATM    9  C9  UNL     1      22.421   6.527  50.830  1.00  0.00     0.134 C 
BRANCH   9  10
HETATM   10  C10 UNL     1      23.406   7.695  50.827  1.00  0.00     0.054 A 
HETATM   11  C11 UNL     1      23.512   8.344  49.514  1.00  0.00     0.023 A 
HETATM   12  C12 UNL     1      24.701   8.123  48.974  1.00  0.00     0.101 A 
HETATM   13  O1  UNL     1      25.470   8.395  47.838  1.00  0.00    -0.323 OA
HETATM   14  C14 UNL     1      25.557   7.297  49.851  1.00  0.00     0.101 A 
HETATM   15  C13 UNL     1      26.845   8.193  48.145  1.00  0.00     0.352 C 
HETATM   16  O2  UNL     1      26.754   7.169  49.124  1.00  0.00    -0.323 OA
HETATM   17  C15 UNL     1      24.781   7.067  50.914  1.00  0.00     0.023 A 
ENDBRANCH   9  10
ENDBRANCH   7   9
ENDBRANCH   3   7
BRANCH   1  18
HETATM   18  N1  UNL     1      25.169   1.551  53.445  1.00  0.00    -0.338 N 
HETATM   19  C5  UNL     1      26.427   2.198  53.523  1.00  0.00     0.093 C 
HETATM   20  C4  UNL     1      27.743   2.046  53.571  1.00  0.00     0.018 C 
HETATM   21  C3  UNL     1      28.548   0.805  53.555  1.00  0.00     0.008 C 
HETATM   22  C2  UNL     1      28.291  -0.500  53.346  1.00  0.00    -0.056 C 
HETATM   23  C1  UNL     1      29.451  -1.392  53.435  1.00  0.00     0.049 C 
HETATM   24  C19 UNL     1      27.006  -1.159  53.041  1.00  0.00    -0.058 C 
HETATM   25  C18 UNL     1      25.739  -0.834  53.245  1.00  0.00     0.000 C 
HETATM   26  C20 UNL     1      27.262  -2.465  52.367  1.00  0.00     0.048 C 
HETATM   27  C17 UNL     1      24.840   0.197  53.803  1.00  0.00     0.158 C 
ENDBRANCH   1  18
TORSDOF 4
ENDMDL
MODEL 5
REMARK VINA RESULT:      -8.2      1.666      2.413
REMARK  4 active torsions:
REMARK  status: ('A' for Active; 'I' for Inactive)
REMARK    1  A    between atoms: N1_6  and  C6_7 
REMARK    2  A    between atoms: C8_9  and  N2_10 
REMARK    3  A    between atoms: N2_10  and  C9_11 
REMARK    4  A    between atoms: C9_11  and  C10_12 
ROOT
HETATM    1  C6  UNL     1      23.314   3.435  50.254  1.00  0.00     0.134 A 
HETATM    2  C7  UNL     1      23.664   2.757  51.391  1.00  0.00     0.100 A 
HETATM    3  C8  UNL     1      23.218   1.512  51.795  1.00  0.00     0.128 A 
HETATM    4  N3  UNL     1      22.339   0.900  50.981  1.00  0.00    -0.225 NA
HETATM    5  C16 UNL     1      21.953   1.532  49.831  1.00  0.00     0.237 A 
HETATM    6  N4  UNL     1      22.428   2.745  49.497  1.00  0.00    -0.224 NA
ENDROOT
BRANCH   3   7
HETATM    7  N2  UNL     1      23.696   0.949  53.022  1.00  0.00    -0.374 N 
HETATM    8  H8  UNL     1      23.273   1.607  53.745  1.00  0.00     0.161 HD
BRANCH   7   9
HETATM    9  C9  UNL     1      24.534  -0.186  53.383  1.00  0.00     0.134 C 
BRANCH   9  10
HETATM   10  C10 UNL     1      25.809   0.008  52.563  1.00  0.00     0.054 A 
HETATM   11  C11 UNL     1      26.581  -1.232  52.412  1.00  0.00     0.023 A 
HETATM   12  C12 UNL     1      27.720  -1.162  53.085  1.00  0.00     0.101 A 
HETATM   13  O1  UNL     1      28.873  -1.892  53.390  1.00  0.00    -0.323 OA
HETATM   14  C14 UNL     1      27.870   0.134  53.779  1.00  0.00     0.101 A 
HETATM   15  C13 UNL     1      29.891  -0.998  53.823  1.00  0.00     0.352 C 
HETATM   16  O2  UNL     1      29.113   0.024  54.427  1.00  0.00    -0.323 OA
HETATM   17  C15 UNL     1      26.750   0.789  53.456  1.00  0.00     0.023 A 
ENDBRANCH   9  10
ENDBRANCH   7   9
ENDBRANCH   3   7
BRANCH   1  18
HETATM   18  N1  UNL     1      23.725   4.701  49.784  1.00  0.00    -0.338 N 
HETATM   19  C5  UNL     1      22.983   5.316  48.745  1.00  0.00     0.093 C 
HETATM   20  C4  UNL     1      22.988   6.215  47.771  1.00  0.00     0.018 C 
HETATM   21  C3  UNL     1      24.072   7.120  47.331  1.00  0.00     0.008 C 
HETATM   22  C2  UNL     1      25.381   7.254  47.616  1.00  0.00    -0.056 C 
HETATM   23  C1  UNL     1      26.072   8.336  46.906  1.00  0.00     0.049 C 
HETATM   24  C19 UNL     1      26.219   6.467  48.540  1.00  0.00    -0.058 C 
HETATM   25  C18 UNL     1      25.958   5.717  49.600  1.00  0.00     0.000 C 
HETATM   26  C20 UNL     1      27.652   6.587  48.143  1.00  0.00     0.048 C 
HETATM   27  C17 UNL     1      24.880   5.209  50.474  1.00  0.00     0.158 C 
ENDBRANCH   1  18
TORSDOF 4
ENDMDL
MODEL 6
REMARK VINA RESULT:      -8.1      2.905      3.676
REMARK  4 active torsions:
REMARK  status: ('A' for Active; 'I' for Inactive)
REMARK    1  A    between atoms: N1_6  and  C6_7 
REMARK    2  A    between atoms: C8_9  and  N2_10 
REMARK    3  A    between atoms: N2_10  and  C9_11 
REMARK    4  A    between atoms: C9_11  and  C10_12 
ROOT
HETATM    1  C6  UNL     1      22.786   4.163  50.201  1.00  0.00     0.134 A 
HETATM    2  C7  UNL     1      22.502   3.158  51.086  1.00  0.00     0.100 A 
HETATM    3  C8  UNL     1      21.338   2.984  51.811  1.00  0.00     0.128 A 
HETATM    4  N3  UNL     1      20.378   3.909  51.629  1.00  0.00    -0.225 NA
HETATM    5  C16 UNL     1      20.608   4.936  50.758  1.00  0.00     0.237 A 
HETATM    6  N4  UNL     1      21.765   5.045  50.081  1.00  0.00    -0.224 NA
ENDROOT
BRANCH   3   7
HETATM    7  N2  UNL     1      21.211   1.864  52.696  1.00  0.00    -0.374 N 
HETATM    8  H8  UNL     1      22.134   1.897  53.225  1.00  0.00     0.161 HD
BRANCH   7   9
HETATM    9  C9  UNL     1      20.195   0.850  52.942  1.00  0.00     0.134 C 
BRANCH   9  10
HETATM   10  C10 UNL     1      20.966  -0.469  52.936  1.00  0.00     0.054 A 
HETATM   11  C11 UNL     1      21.032  -1.094  54.264  1.00  0.00     0.023 A 
HETATM   12  C12 UNL     1      22.269  -1.066  54.735  1.00  0.00     0.101 A 
HETATM   13  O1  UNL     1      23.042  -1.437  55.840  1.00  0.00    -0.323 OA
HETATM   14  C14 UNL     1      23.203  -0.421  53.789  1.00  0.00     0.101 A 
HETATM   15  C13 UNL     1      24.412  -1.482  55.458  1.00  0.00     0.352 C 
HETATM   16  O2  UNL     1      24.443  -0.483  54.450  1.00  0.00    -0.323 OA
HETATM   17  C15 UNL     1      22.420  -0.089  52.759  1.00  0.00     0.023 A 
ENDBRANCH   9  10
ENDBRANCH   7   9
ENDBRANCH   3   7
BRANCH   1  18
HETATM   18  N1  UNL     1      23.946   4.402  49.433  1.00  0.00    -0.338 N 
HETATM   19  C5  UNL     1      25.089   3.595  49.658  1.00  0.00     0.093 C 
HETATM   20  C4  UNL     1      26.404   3.488  49.531  1.00  0.00     0.018 C 
HETATM   21  C3  UNL     1      27.374   4.442  48.951  1.00  0.00     0.008 C 
HETATM   22  C2  UNL     1      27.322   5.717  48.520  1.00  0.00    -0.056 C 
HETATM   23  C1  UNL     1      28.585   6.260  48.009  1.00  0.00     0.049 C 
HETATM   24  C19 UNL     1      26.175   6.643  48.489  1.00  0.00    -0.058 C 
HETATM   25  C18 UNL     1      24.861   6.475  48.476  1.00  0.00     0.000 C 
HETATM   26  C20 UNL     1      26.669   8.051  48.464  1.00  0.00     0.048 C 
HETATM   27  C17 UNL     1      23.781   5.467  48.481  1.00  0.00     0.158 C 
ENDBRANCH   1  18
TORSDOF 4
ENDMDL
MODEL 7
REMARK VINA RESULT:      -8.0      4.644      7.513
REMARK  4 active torsions:
REMARK  status: ('A' for Active; 'I' for Inactive)
REMARK    1  A    between atoms: N1_6  and  C6_7 
REMARK    2  A    between atoms: C8_9  and  N2_10 
REMARK    3  A    between atoms: N2_10  and  C9_11 
REMARK    4  A    between atoms: C9_11  and  C10_12 
ROOT
HETATM    1  C6  UNL     1      24.175   2.524  52.110  1.00  0.00     0.134 A 
HETATM    2  C7  UNL     1      22.962   2.313  51.511  1.00  0.00     0.100 A 
HETATM    3  C8  UNL     1      21.863   3.152  51.525  1.00  0.00     0.128 A 
HETATM    4  N3  UNL     1      22.001   4.303  52.208  1.00  0.00    -0.225 NA
HETATM    5  C16 UNL     1      23.191   4.566  52.827  1.00  0.00     0.237 A 
HETATM    6  N4  UNL     1      24.223   3.704  52.771  1.00  0.00    -0.224 NA
ENDROOT
BRANCH   3   7
HETATM    7  N2  UNL     1      20.667   2.770  50.837  1.00  0.00    -0.374 N 
HETATM    8  H8  UNL     1      20.936   2.936  49.820  1.00  0.00     0.161 HD
BRANCH   7   9
HETATM    9  C9  UNL     1      19.355   2.280  51.236  1.00  0.00     0.134 C 
BRANCH   9  10
HETATM   10  C10 UNL     1      19.417   0.774  50.977  1.00  0.00     0.054 A 
HETATM   11  C11 UNL     1      18.087   0.170  50.825  1.00  0.00     0.023 A 
HETATM   12  C12 UNL     1      17.812  -0.625  51.849  1.00  0.00     0.101 A 
HETATM   13  O1  UNL     1      16.822  -1.471  52.360  1.00  0.00    -0.323 OA
HETATM   14  C14 UNL     1      18.919  -0.664  52.827  1.00  0.00     0.101 A 
HETATM   15  C13 UNL     1      17.406  -2.352  53.311  1.00  0.00     0.352 C 
HETATM   16  O2  UNL     1      18.453  -1.541  53.823  1.00  0.00    -0.323 OA
HETATM   17  C15 UNL     1      19.832   0.154  52.295  1.00  0.00     0.023 A 
ENDBRANCH   9  10
ENDBRANCH   7   9
ENDBRANCH   3   7
BRANCH   1  18
HETATM   18  N1  UNL     1      25.332   1.715  52.137  1.00  0.00    -0.338 N 
HETATM   19  C5  UNL     1      25.194   0.341  52.457  1.00  0.00     0.093 C 
HETATM   20  C4  UNL     1      25.799  -0.754  52.895  1.00  0.00     0.018 C 
HETATM   21  C3  UNL     1      27.207  -0.951  53.305  1.00  0.00     0.008 C 
HETATM   22  C2  UNL     1      28.263  -0.144  53.520  1.00  0.00    -0.056 C 
HETATM   23  C1  UNL     1      29.498  -0.821  53.929  1.00  0.00     0.049 C 
HETATM   24  C19 UNL     1      28.353   1.323  53.403  1.00  0.00    -0.058 C 
HETATM   25  C18 UNL     1      27.661   2.233  52.734  1.00  0.00     0.000 C 
HETATM   26  C20 UNL     1      29.486   1.823  54.235  1.00  0.00     0.048 C 
HETATM   27  C17 UNL     1      26.530   2.436  51.805  1.00  0.00     0.158 C 
ENDBRANCH   1  18
TORSDOF 4
ENDMDL
MODEL 8
REMARK VINA RESULT:      -8.0      2.854      3.595
REMARK  4 active torsions:
REMARK  status: ('A' for Active; 'I' for Inactive)
REMARK    1  A    between atoms: N1_6  and  C6_7 
REMARK    2  A    between atoms: C8_9  and  N2_10 
REMARK    3  A    between atoms: N2_10  and  C9_11 
REMARK    4  A    between atoms: C9_11  and  C10_12 
ROOT
HETATM    1  C6  UNL     1      24.564   5.521  50.296  1.00  0.00     0.134 A 
HETATM    2  C7  UNL     1      24.469   4.409  51.090  1.00  0.00     0.100 A 
HETATM    3  C8  UNL     1      23.432   4.075  51.942  1.00  0.00     0.128 A 
HETATM    4  N3  UNL     1      22.404   4.941  51.999  1.00  0.00    -0.225 NA
HETATM    5  C16 UNL     1      22.447   6.069  51.228  1.00  0.00     0.237 A 
HETATM    6  N4  UNL     1      23.488   6.333  50.418  1.00  0.00    -0.224 NA
ENDROOT
BRANCH   3   7
HETATM    7  N2  UNL     1      23.497   2.862  52.701  1.00  0.00    -0.374 N 
HETATM    8  H8  UNL     1      22.477   2.715  52.969  1.00  0.00     0.161 HD
BRANCH   7   9
HETATM    9  C9  UNL     1      24.559   1.950  53.105  1.00  0.00     0.134 C 
BRANCH   9  10
HETATM   10  C10 UNL     1      24.084   0.578  52.627  1.00  0.00     0.054 A 
HETATM   11  C11 UNL     1      22.645   0.546  52.333  1.00  0.00     0.023 A 
HETATM   12  C12 UNL     1      22.002  -0.205  53.214  1.00  0.00     0.101 A 
HETATM   13  O1  UNL     1      20.726  -0.668  53.552  1.00  0.00    -0.323 OA
HETATM   14  C14 UNL     1      22.919  -0.781  54.219  1.00  0.00     0.101 A 
HETATM   15  C13 UNL     1      20.851  -1.815  54.383  1.00  0.00     0.352 C 
HETATM   16  O2  UNL     1      22.071  -1.531  55.053  1.00  0.00    -0.323 OA
HETATM   17  C15 UNL     1      24.114  -0.311  53.852  1.00  0.00     0.023 A 
ENDBRANCH   9  10
ENDBRANCH   7   9
ENDBRANCH   3   7
BRANCH   1  18
HETATM   18  N1  UNL     1      25.588   5.924  49.411  1.00  0.00    -0.338 N 
HETATM   19  C5  UNL     1      26.580   4.981  49.043  1.00  0.00     0.093 C 
HETATM   20  C4  UNL     1      27.805   4.800  48.571  1.00  0.00     0.018 C 
HETATM   21  C3  UNL     1      28.814   5.801  48.161  1.00  0.00     0.008 C 
HETATM   22  C2  UNL     1      28.924   7.140  48.249  1.00  0.00    -0.056 C 
HETATM   23  C1  UNL     1      30.150   7.709  47.680  1.00  0.00     0.049 C 
HETATM   24  C19 UNL     1      27.985   8.115  48.836  1.00  0.00    -0.058 C 
HETATM   25  C18 UNL     1      26.684   8.101  49.081  1.00  0.00     0.000 C 
HETATM   26  C20 UNL     1      28.722   9.359  49.204  1.00  0.00     0.048 C 
HETATM   27  C17 UNL     1      25.453   7.290  48.981  1.00  0.00     0.158 C 
ENDBRANCH   1  18
TORSDOF 4
ENDMDL
MODEL 9
REMARK VINA RESULT:      -7.9      2.782      7.352
REMARK  4 active torsions:
REMARK  status: ('A' for Active; 'I' for Inactive)
REMARK    1  A    between atoms: N1_6  and  C6_7 
REMARK    2  A    between atoms: C8_9  and  N2_10 
REMARK    3  A    between atoms: N2_10  and  C9_11 
REMARK    4  A    between atoms: C9_11  and  C10_12 
ROOT
HETATM    1  C6  UNL     1      24.918   5.171  50.513  1.00  0.00     0.134 A 
HETATM    2  C7  UNL     1      25.800   5.812  49.686  1.00  0.00     0.100 A 
HETATM    3  C8  UNL     1      25.875   7.170  49.431  1.00  0.00     0.128 A 
HETATM    4  N3  UNL     1      24.977   7.946  50.065  1.00  0.00    -0.225 NA
HETATM    5  C16 UNL     1      24.071   7.357  50.903  1.00  0.00     0.237 A 
HETATM    6  N4  UNL     1      24.054   6.028  51.107  1.00  0.00    -0.224 NA
ENDROOT
BRANCH   3   7
HETATM    7  N2  UNL     1      26.871   7.672  48.533  1.00  0.00    -0.374 N 
HETATM    8  H8  UNL     1      26.504   7.340  47.590  1.00  0.00     0.161 HD
BRANCH   7   9
HETATM    9  C9  UNL     1      28.106   8.430  48.677  1.00  0.00     0.134 C 
BRANCH   9  10
HETATM   10  C10 UNL     1      29.084   7.748  47.720  1.00  0.00     0.054 A 
HETATM   11  C11 UNL     1      29.287   6.328  48.034  1.00  0.00     0.023 A 
HETATM   12  C12 UNL     1      30.515   6.116  48.483  1.00  0.00     0.101 A 
HETATM   13  O1  UNL     1      31.366   5.108  48.945  1.00  0.00    -0.323 OA
HETATM   14  C14 UNL     1      31.304   7.364  48.532  1.00  0.00     0.101 A 
HETATM   15  C13 UNL     1      32.714   5.550  48.839  1.00  0.00     0.352 C 
HETATM   16  O2  UNL     1      32.554   6.948  49.026  1.00  0.00    -0.323 OA
HETATM   17  C15 UNL     1      30.451   8.288  48.084  1.00  0.00     0.023 A 
ENDBRANCH   9  10
ENDBRANCH   7   9
ENDBRANCH   3   7
BRANCH   1  18
HETATM   18  N1  UNL     1      24.784   3.798  50.815  1.00  0.00    -0.338 N 
HETATM   19  C5  UNL     1      23.669   3.375  51.581  1.00  0.00     0.093 C 
HETATM   20  C4  UNL     1      23.165   2.432  52.364  1.00  0.00     0.018 C 
HETATM   21  C3  UNL     1      23.773   1.163  52.820  1.00  0.00     0.008 C 
HETATM   22  C2  UNL     1      24.998   0.610  52.752  1.00  0.00    -0.056 C 
HETATM   23  C1  UNL     1      25.126  -0.714  53.369  1.00  0.00     0.049 C 
HETATM   24  C19 UNL     1      26.231   1.149  52.146  1.00  0.00    -0.058 C 
HETATM   25  C18 UNL     1      26.471   2.051  51.207  1.00  0.00     0.000 C 
HETATM   26  C20 UNL     1      27.420   0.492  52.763  1.00  0.00     0.048 C 
HETATM   27  C17 UNL     1      25.841   2.995  50.261  1.00  0.00     0.158 C 
ENDBRANCH   1  18
TORSDOF 4
ENDMDL
