MODEL 1
REMARK VINA RESULT:      -8.5      0.000      0.000
REMARK  2 active torsions:
REMARK  status: ('A' for Active; 'I' for Inactive)
REMARK    1  A    between atoms: C3_4  and  C4_5 
REMARK    2  A    between atoms: C18_19  and  N2_20 
ROOT
HETATM    1  C1  UNL     1      26.645   2.272  51.244  1.00  0.00     0.041 C 
HETATM    2  C2  UNL     1      25.871   1.355  51.801  1.00  0.00     0.041 C 
HETATM    3  N1  UNL     1      24.470   1.091  51.588  1.00  0.00    -0.257 NA
HETATM    4  C3  UNL     1      23.919   0.633  52.661  1.00  0.00     0.046 C 
HETATM    5  C11 UNL     1      24.969   0.550  53.741  1.00  0.00     0.082 C 
HETATM    6  C12 UNL     1      26.171   0.296  52.819  1.00  0.00     0.054 A 
HETATM    7  C13 UNL     1      26.034  -1.078  52.245  1.00  0.00     0.050 A 
HETATM    8  C14 UNL     1      27.247  -1.859  52.559  1.00  0.00    -0.019 A 
HETATM    9  C15 UNL     1      28.385  -1.651  53.200  1.00  0.00    -0.064 A 
HETATM   10  C16 UNL     1      29.478  -2.624  53.383  1.00  0.00     0.048 C 
HETATM   11  C17 UNL     1      28.480  -0.301  53.744  1.00  0.00     0.032 A 
HETATM   12  C18 UNL     1      27.438   0.484  53.517  1.00  0.00     0.020 A 
ENDROOT
BRANCH  12  13
HETATM   13  N2  UNL     1      27.568   1.810  54.069  1.00  0.00    -0.397 N 
HETATM   14  C19 UNL     1      28.860   2.491  54.007  1.00  0.00     0.146 C 
HETATM   15  H19 UNL     1      26.861   2.440  54.550  1.00  0.00     0.158 HD
ENDBRANCH  12  13
BRANCH   4  16
HETATM   16  C4  UNL     1      22.509   0.249  52.832  1.00  0.00    -0.011 A 
HETATM   17  C5  UNL     1      22.124  -0.498  53.941  1.00  0.00     0.014 A 
HETATM   18  C6  UNL     1      20.800  -0.844  54.078  1.00  0.00     0.007 A 
HETATM   19  C7  UNL     1      19.868  -0.445  53.114  1.00  0.00    -0.062 A 
HETATM   20  C8  UNL     1      18.435  -0.827  53.277  1.00  0.00     0.048 C 
HETATM   21  C9  UNL     1      20.262   0.286  52.035  1.00  0.00     0.007 A 
HETATM   22  C10 UNL     1      21.597   0.637  51.892  1.00  0.00     0.014 A 
ENDBRANCH   4  16
TORSDOF 2
ENDMDL
MODEL 2
REMARK VINA RESULT:      -8.2      1.894      6.686
REMARK  2 active torsions:
REMARK  status: ('A' for Active; 'I' for Inactive)
REMARK    1  A    between atoms: C3_4  and  C4_5 
REMARK    2  A    between atoms: C18_19  and  N2_20 
ROOT
HETATM    1  C1  UNL     1      23.162   4.438  52.639  1.00  0.00     0.041 C 
HETATM    2  C2  UNL     1      23.657   3.212  52.657  1.00  0.00     0.041 C 
HETATM    3  N1  UNL     1      24.867   2.724  53.271  1.00  0.00    -0.257 NA
HETATM    4  C3  UNL     1      25.358   1.736  52.603  1.00  0.00     0.046 C 
HETATM    5  C11 UNL     1      24.465   1.470  51.417  1.00  0.00     0.082 C 
HETATM    6  C12 UNL     1      23.150   1.934  52.060  1.00  0.00     0.054 A 
HETATM    7  C13 UNL     1      22.773   0.942  53.114  1.00  0.00     0.050 A 
HETATM    8  C14 UNL     1      21.417   0.430  52.836  1.00  0.00    -0.019 A 
HETATM    9  C15 UNL     1      20.485   0.622  51.918  1.00  0.00    -0.064 A 
HETATM   10  C16 UNL     1      19.165  -0.032  51.856  1.00  0.00     0.048 C 
HETATM   11  C17 UNL     1      20.891   1.595  50.909  1.00  0.00     0.032 A 
HETATM   12  C18 UNL     1      22.097   2.117  51.067  1.00  0.00     0.020 A 
ENDROOT
BRANCH  12  13
HETATM   13  N2  UNL     1      22.462   3.075  50.051  1.00  0.00    -0.397 N 
HETATM   14  C19 UNL     1      22.357   2.702  48.642  1.00  0.00     0.146 C 
HETATM   15  H19 UNL     1      22.820   4.071  50.126  1.00  0.00     0.158 HD
ENDBRANCH  12  13
BRANCH   4  16
HETATM   16  C4  UNL     1      26.580   0.980  52.919  1.00  0.00    -0.011 A 
HETATM   17  C5  UNL     1      27.679   1.636  53.463  1.00  0.00     0.014 A 
HETATM   18  C6  UNL     1      28.809   0.908  53.750  1.00  0.00     0.007 A 
HETATM   19  C7  UNL     1      28.840  -0.468  53.496  1.00  0.00    -0.062 A 
HETATM   20  C8  UNL     1      30.073  -1.245  53.813  1.00  0.00     0.048 C 
HETATM   21  C9  UNL     1      27.755  -1.095  52.963  1.00  0.00     0.007 A 
HETATM   22  C10 UNL     1      26.612  -0.363  52.672  1.00  0.00     0.014 A 
ENDBRANCH   4  16
TORSDOF 2
ENDMDL
MODEL 3
REMARK VINA RESULT:      -8.2      3.357      5.460
REMARK  2 active torsions:
REMARK  status: ('A' for Active; 'I' for Inactive)
REMARK    1  A    between atoms: C3_4  and  C4_5 
REMARK    2  A    between atoms: C18_19  and  N2_20 
ROOT
HETATM    1  C1  UNL     1      22.597   4.164  48.056  1.00  0.00     0.041 C 
HETATM    2  C2  UNL     1      23.251   3.621  49.070  1.00  0.00     0.041 C 
HETATM    3  N1  UNL     1      22.951   2.424  49.815  1.00  0.00    -0.257 NA
HETATM    4  C3  UNL     1      23.352   2.529  51.037  1.00  0.00     0.046 C 
HETATM    5  C11 UNL     1      23.987   3.885  51.218  1.00  0.00     0.082 C 
HETATM    6  C12 UNL     1      24.501   4.049  49.780  1.00  0.00     0.054 A 
HETATM    7  C13 UNL     1      25.616   3.074  49.572  1.00  0.00     0.050 A 
HETATM    8  C14 UNL     1      26.823   3.803  49.135  1.00  0.00    -0.019 A 
HETATM    9  C15 UNL     1      27.152   5.061  48.891  1.00  0.00    -0.064 A 
HETATM   10  C16 UNL     1      28.470   5.554  48.450  1.00  0.00     0.048 C 
HETATM   11  C17 UNL     1      26.038   5.979  49.106  1.00  0.00     0.032 A 
HETATM   12  C18 UNL     1      24.904   5.422  49.501  1.00  0.00     0.020 A 
ENDROOT
BRANCH  12  13
HETATM   13  N2  UNL     1      23.826   6.361  49.703  1.00  0.00    -0.397 N 
HETATM   14  C19 UNL     1      24.068   7.577  50.477  1.00  0.00     0.146 C 
HETATM   15  H19 UNL     1      22.816   6.345  49.378  1.00  0.00     0.158 HD
ENDBRANCH  12  13
BRANCH   4  16
HETATM   16  C4  UNL     1      23.222   1.516  52.096  1.00  0.00    -0.011 A 
HETATM   17  C5  UNL     1      24.337   0.786  52.496  1.00  0.00     0.014 A 
HETATM   18  C6  UNL     1      24.190  -0.156  53.488  1.00  0.00     0.007 A 
HETATM   19  C7  UNL     1      22.938  -0.364  54.075  1.00  0.00    -0.062 A 
HETATM   20  C8  UNL     1      22.795  -1.389  55.151  1.00  0.00     0.048 C 
HETATM   21  C9  UNL     1      21.857   0.359  53.672  1.00  0.00     0.007 A 
HETATM   22  C10 UNL     1      22.001   1.310  52.672  1.00  0.00     0.014 A 
ENDBRANCH   4  16
TORSDOF 2
ENDMDL
MODEL 4
REMARK VINA RESULT:      -8.0      2.593      6.719
REMARK  2 active torsions:
REMARK  status: ('A' for Active; 'I' for Inactive)
REMARK    1  A    between atoms: C3_4  and  C4_5 
REMARK    2  A    between atoms: C18_19  and  N2_20 
ROOT
HETATM    1  C1  UNL     1      23.590   4.611  53.101  1.00  0.00     0.041 C 
HETATM    2  C2  UNL     1      24.191   3.511  52.680  1.00  0.00     0.041 C 
HETATM    3  N1  UNL     1      25.115   2.651  53.376  1.00  0.00    -0.257 NA
HETATM    4  C3  UNL     1      25.950   2.110  52.555  1.00  0.00     0.046 C 
HETATM    5  C11 UNL     1      25.633   2.594  51.162  1.00  0.00     0.082 C 
HETATM    6  C12 UNL     1      24.124   2.790  51.367  1.00  0.00     0.054 A 
HETATM    7  C13 UNL     1      23.494   1.441  51.508  1.00  0.00     0.050 A 
HETATM    8  C14 UNL     1      22.432   1.292  50.495  1.00  0.00    -0.019 A 
HETATM    9  C15 UNL     1      21.916   2.030  49.526  1.00  0.00    -0.064 A 
HETATM   10  C16 UNL     1      20.820   1.644  48.618  1.00  0.00     0.048 C 
HETATM   11  C17 UNL     1      22.556   3.336  49.421  1.00  0.00     0.032 A 
HETATM   12  C18 UNL     1      23.527   3.571  50.289  1.00  0.00     0.020 A 
ENDROOT
BRANCH  12  13
HETATM   13  N2  UNL     1      24.136   4.873  50.154  1.00  0.00    -0.397 N 
HETATM   14  C19 UNL     1      23.413   5.935  49.458  1.00  0.00     0.146 C 
HETATM   15  H19 UNL     1      25.075   5.243  50.483  1.00  0.00     0.158 HD
ENDBRANCH  12  13
BRANCH   4  16
HETATM   16  C4  UNL     1      27.037   1.177  52.891  1.00  0.00    -0.011 A 
HETATM   17  C5  UNL     1      28.228   1.664  53.419  1.00  0.00     0.014 A 
HETATM   18  C6  UNL     1      29.229   0.772  53.726  1.00  0.00     0.007 A 
HETATM   19  C7  UNL     1      29.039  -0.597  53.507  1.00  0.00    -0.062 A 
HETATM   20  C8  UNL     1      30.134  -1.552  53.845  1.00  0.00     0.048 C 
HETATM   21  C9  UNL     1      27.866  -1.056  52.990  1.00  0.00     0.007 A 
HETATM   22  C10 UNL     1      26.854  -0.160  52.679  1.00  0.00     0.014 A 
ENDBRANCH   4  16
TORSDOF 2
ENDMDL
MODEL 5
REMARK VINA RESULT:      -8.0      1.893      7.188
REMARK  2 active torsions:
REMARK  status: ('A' for Active; 'I' for Inactive)
REMARK    1  A    between atoms: C3_4  and  C4_5 
REMARK    2  A    between atoms: C18_19  and  N2_20 
ROOT
HETATM    1  C1  UNL     1      20.524   3.513  52.113  1.00  0.00     0.041 C 
HETATM    2  C2  UNL     1      21.206   2.393  52.290  1.00  0.00     0.041 C 
HETATM    3  N1  UNL     1      22.550   2.210  52.777  1.00  0.00    -0.257 NA
HETATM    4  C3  UNL     1      23.096   1.169  52.246  1.00  0.00     0.046 C 
HETATM    5  C11 UNL     1      22.103   0.536  51.303  1.00  0.00     0.082 C 
HETATM    6  C12 UNL     1      20.831   0.961  52.053  1.00  0.00     0.054 A 
HETATM    7  C13 UNL     1      20.766   0.187  53.331  1.00  0.00     0.050 A 
HETATM    8  C14 UNL     1      19.484  -0.541  53.394  1.00  0.00    -0.019 A 
HETATM    9  C15 UNL     1      18.415  -0.676  52.625  1.00  0.00    -0.064 A 
HETATM   10  C16 UNL     1      17.221  -1.489  52.918  1.00  0.00     0.048 C 
HETATM   11  C17 UNL     1      18.518   0.093  51.390  1.00  0.00     0.032 A 
HETATM   12  C18 UNL     1      19.636   0.786  51.236  1.00  0.00     0.020 A 
ENDROOT
BRANCH  12  13
HETATM   13  N2  UNL     1      19.701   1.533  50.003  1.00  0.00    -0.397 N 
HETATM   14  C19 UNL     1      18.466   2.025  49.395  1.00  0.00     0.146 C 
HETATM   15  H19 UNL     1      20.528   1.819  49.402  1.00  0.00     0.158 HD
ENDBRANCH  12  13
BRANCH   4  16
HETATM   16  C4  UNL     1      24.454   0.663  52.495  1.00  0.00    -0.011 A 
HETATM   17  C5  UNL     1      24.641  -0.443  53.319  1.00  0.00     0.014 A 
HETATM   18  C6  UNL     1      25.920  -0.897  53.537  1.00  0.00     0.007 A 
HETATM   19  C7  UNL     1      27.005  -0.252  52.935  1.00  0.00    -0.062 A 
HETATM   20  C8  UNL     1      28.387  -0.757  53.180  1.00  0.00     0.048 C 
HETATM   21  C9  UNL     1      26.805   0.829  52.131  1.00  0.00     0.007 A 
HETATM   22  C10 UNL     1      25.516   1.291  51.908  1.00  0.00     0.014 A 
ENDBRANCH   4  16
TORSDOF 2
ENDMDL
MODEL 6
REMARK VINA RESULT:      -8.0      3.521      7.498
REMARK  2 active torsions:
REMARK  status: ('A' for Active; 'I' for Inactive)
REMARK    1  A    between atoms: C3_4  and  C4_5 
REMARK    2  A    between atoms: C18_19  and  N2_20 
ROOT
HETATM    1  C1  UNL     1      21.524   4.654  51.805  1.00  0.00     0.041 C 
HETATM    2  C2  UNL     1      22.744   4.326  51.411  1.00  0.00     0.041 C 
HETATM    3  N1  UNL     1      23.825   5.177  50.980  1.00  0.00    -0.257 NA
HETATM    4  C3  UNL     1      24.566   4.577  50.111  1.00  0.00     0.046 C 
HETATM    5  C11 UNL     1      24.007   3.196  49.876  1.00  0.00     0.082 C 
HETATM    6  C12 UNL     1      23.412   2.990  51.277  1.00  0.00     0.054 A 
HETATM    7  C13 UNL     1      24.542   2.838  52.244  1.00  0.00     0.050 A 
HETATM    8  C14 UNL     1      24.393   1.561  52.969  1.00  0.00    -0.019 A 
HETATM    9  C15 UNL     1      23.538   0.552  52.974  1.00  0.00    -0.064 A 
HETATM   10  C16 UNL     1      23.608  -0.654  53.820  1.00  0.00     0.048 C 
HETATM   11  C17 UNL     1      22.451   0.738  52.019  1.00  0.00     0.032 A 
HETATM   12  C18 UNL     1      22.492   1.858  51.314  1.00  0.00     0.020 A 
ENDROOT
BRANCH  12  13
HETATM   13  N2  UNL     1      21.402   2.007  50.380  1.00  0.00    -0.397 N 
HETATM   14  C19 UNL     1      21.183   0.982  49.362  1.00  0.00     0.146 C 
HETATM   15  H19 UNL     1      20.671   2.770  50.275  1.00  0.00     0.158 HD
ENDBRANCH  12  13
BRANCH   4  16
HETATM   16  C4  UNL     1      25.759   5.123  49.446  1.00  0.00    -0.011 A 
HETATM   17  C5  UNL     1      25.789   6.460  49.065  1.00  0.00     0.014 A 
HETATM   18  C6  UNL     1      26.916   6.947  48.444  1.00  0.00     0.007 A 
HETATM   19  C7  UNL     1      28.005   6.101  48.208  1.00  0.00    -0.062 A 
HETATM   20  C8  UNL     1      29.221   6.644  47.534  1.00  0.00     0.048 C 
HETATM   21  C9  UNL     1      27.960   4.795  48.587  1.00  0.00     0.007 A 
HETATM   22  C10 UNL     1      26.825   4.300  49.213  1.00  0.00     0.014 A 
ENDBRANCH   4  16
TORSDOF 2
ENDMDL
MODEL 7
REMARK VINA RESULT:      -7.4      3.932      7.933
REMARK  2 active torsions:
REMARK  status: ('A' for Active; 'I' for Inactive)
REMARK    1  A    between atoms: C3_4  and  C4_5 
REMARK    2  A    between atoms: C18_19  and  N2_20 
ROOT
HETATM    1  C1  UNL     1      22.159   5.609  51.844  1.00  0.00     0.041 C 
HETATM    2  C2  UNL     1      23.273   5.110  51.336  1.00  0.00     0.041 C 
HETATM    3  N1  UNL     1      24.482   5.790  50.942  1.00  0.00    -0.257 NA
HETATM    4  C3  UNL     1      25.057   5.179  49.961  1.00  0.00     0.046 C 
HETATM    5  C11 UNL     1      24.228   3.972  49.599  1.00  0.00     0.082 C 
HETATM    6  C12 UNL     1      23.661   3.701  51.000  1.00  0.00     0.054 A 
HETATM    7  C13 UNL     1      24.778   3.213  51.867  1.00  0.00     0.050 A 
HETATM    8  C14 UNL     1      24.411   1.904  52.441  1.00  0.00    -0.019 A 
HETATM    9  C15 UNL     1      23.375   1.083  52.381  1.00  0.00    -0.064 A 
HETATM   10  C16 UNL     1      23.242  -0.213  53.070  1.00  0.00     0.048 C 
HETATM   11  C17 UNL     1      22.309   1.595  51.527  1.00  0.00     0.032 A 
HETATM   12  C18 UNL     1      22.540   2.769  50.960  1.00  0.00     0.020 A 
ENDROOT
BRANCH  12  13
HETATM   13  N2  UNL     1      21.463   3.242  50.124  1.00  0.00    -0.397 N 
HETATM   14  C19 UNL     1      20.111   2.729  50.334  1.00  0.00     0.146 C 
HETATM   15  H19 UNL     1      21.454   3.940  49.324  1.00  0.00     0.158 HD
ENDBRANCH  12  13
BRANCH   4  16
HETATM   16  C4  UNL     1      26.305   5.571  49.290  1.00  0.00    -0.011 A 
HETATM   17  C5  UNL     1      27.231   4.598  48.927  1.00  0.00     0.014 A 
HETATM   18  C6  UNL     1      28.391   4.990  48.301  1.00  0.00     0.007 A 
HETATM   19  C7  UNL     1      28.623   6.344  48.039  1.00  0.00    -0.062 A 
HETATM   20  C8  UNL     1      29.886   6.754  47.358  1.00  0.00     0.048 C 
HETATM   21  C9  UNL     1      27.706   7.284  48.400  1.00  0.00     0.007 A 
HETATM   22  C10 UNL     1      26.534   6.893  49.033  1.00  0.00     0.014 A 
ENDBRANCH   4  16
TORSDOF 2
ENDMDL
MODEL 8
REMARK VINA RESULT:      -7.2      2.769      4.327
REMARK  2 active torsions:
REMARK  status: ('A' for Active; 'I' for Inactive)
REMARK    1  A    between atoms: C3_4  and  C4_5 
REMARK    2  A    between atoms: C18_19  and  N2_20 
ROOT
HETATM    1  C1  UNL     1      22.824   2.507  49.276  1.00  0.00     0.041 C 
HETATM    2  C2  UNL     1      22.247   1.857  50.274  1.00  0.00     0.041 C 
HETATM    3  N1  UNL     1      21.138   0.937  50.246  1.00  0.00    -0.257 NA
HETATM    4  C3  UNL     1      20.458   0.999  51.340  1.00  0.00     0.046 C 
HETATM    5  C11 UNL     1      21.095   2.028  52.241  1.00  0.00     0.082 C 
HETATM    6  C12 UNL     1      22.537   1.850  51.745  1.00  0.00     0.054 A 
HETATM    7  C13 UNL     1      23.025   0.513  52.206  1.00  0.00     0.050 A 
HETATM    8  C14 UNL     1      24.263   0.691  52.988  1.00  0.00    -0.019 A 
HETATM    9  C15 UNL     1      25.023   1.704  53.371  1.00  0.00    -0.064 A 
HETATM   10  C16 UNL     1      26.255   1.622  54.177  1.00  0.00     0.048 C 
HETATM   11  C17 UNL     1      24.514   2.988  52.902  1.00  0.00     0.032 A 
HETATM   12  C18 UNL     1      23.401   2.939  52.187  1.00  0.00     0.020 A 
ENDROOT
BRANCH  12  13
HETATM   13  N2  UNL     1      22.929   4.228  51.741  1.00  0.00    -0.397 N 
HETATM   14  C19 UNL     1      23.888   5.311  51.532  1.00  0.00     0.146 C 
HETATM   15  H19 UNL     1      21.951   4.575  51.518  1.00  0.00     0.158 HD
ENDBRANCH  12  13
BRANCH   4  16
HETATM   16  C4  UNL     1      19.261   0.214  51.679  1.00  0.00    -0.011 A 
HETATM   17  C5  UNL     1      18.162   0.225  50.827  1.00  0.00     0.014 A 
HETATM   18  C6  UNL     1      17.055  -0.517  51.166  1.00  0.00     0.007 A 
HETATM   19  C7  UNL     1      17.048  -1.265  52.348  1.00  0.00    -0.062 A 
HETATM   20  C8  UNL     1      15.840  -2.066  52.702  1.00  0.00     0.048 C 
HETATM   21  C9  UNL     1      18.133  -1.265  53.171  1.00  0.00     0.007 A 
HETATM   22  C10 UNL     1      19.252  -0.517  52.833  1.00  0.00     0.014 A 
ENDBRANCH   4  16
TORSDOF 2
ENDMDL
MODEL 9
REMARK VINA RESULT:      -7.0      7.423     10.222
REMARK  2 active torsions:
REMARK  status: ('A' for Active; 'I' for Inactive)
REMARK    1  A    between atoms: C3_4  and  C4_5 
REMARK    2  A    between atoms: C18_19  and  N2_20 
ROOT
HETATM    1  C1  UNL     1      32.399   5.555  47.957  1.00  0.00     0.041 C 
HETATM    2  C2  UNL     1      31.191   6.076  48.103  1.00  0.00     0.041 C 
HETATM    3  N1  UNL     1      30.024   5.515  48.737  1.00  0.00    -0.257 NA
HETATM    4  C3  UNL     1      28.944   5.941  48.174  1.00  0.00     0.046 C 
HETATM    5  C11 UNL     1      29.325   6.874  47.052  1.00  0.00     0.082 C 
HETATM    6  C12 UNL     1      30.628   7.398  47.672  1.00  0.00     0.054 A 
HETATM    7  C13 UNL     1      30.273   8.256  48.844  1.00  0.00     0.050 A 
HETATM    8  C14 UNL     1      30.869   9.594  48.666  1.00  0.00    -0.019 A 
HETATM    9  C15 UNL     1      31.614  10.202  47.757  1.00  0.00    -0.064 A 
HETATM   10  C16 UNL     1      32.098  11.593  47.808  1.00  0.00     0.048 C 
HETATM   11  C17 UNL     1      31.938   9.332  46.631  1.00  0.00     0.032 A 
HETATM   12  C18 UNL     1      31.449   8.104  46.695  1.00  0.00     0.020 A 
ENDROOT
BRANCH  12  13
HETATM   13  N2  UNL     1      31.791   7.274  45.565  1.00  0.00    -0.397 N 
HETATM   14  C19 UNL     1      31.755   7.843  44.219  1.00  0.00     0.146 C 
HETATM   15  H19 UNL     1      32.085   6.256  45.509  1.00  0.00     0.158 HD
ENDBRANCH  12  13
BRANCH   4  16
HETATM   16  C4  UNL     1      27.564   5.591  48.542  1.00  0.00    -0.011 A 
HETATM   17  C5  UNL     1      26.549   6.531  48.396  1.00  0.00     0.014 A 
HETATM   18  C6  UNL     1      25.266   6.180  48.746  1.00  0.00     0.007 A 
HETATM   19  C7  UNL     1      25.001   4.898  49.239  1.00  0.00    -0.062 A 
HETATM   20  C8  UNL     1      23.604   4.532  49.614  1.00  0.00     0.048 C 
HETATM   21  C9  UNL     1      26.006   3.990  49.376  1.00  0.00     0.007 A 
HETATM   22  C10 UNL     1      27.301   4.340  49.023  1.00  0.00     0.014 A 
ENDBRANCH   4  16
TORSDOF 2
ENDMDL
