MODEL 1
REMARK VINA RESULT:      -6.9      0.000      0.000
REMARK  8 active torsions:
REMARK  status: ('A' for Active; 'I' for Inactive)
REMARK    1  A    between atoms: C2_2  and  C3_3 
REMARK    2  A    between atoms: C4_4  and  O1_5 
REMARK    3  A    between atoms: C6_7  and  O2_8 
REMARK    4  A    between atoms: C6_7  and  C7_9 
REMARK    5  A    between atoms: C7_9  and  O3_10 
REMARK    6  A    between atoms: N1_11  and  C8_12 
REMARK    7  A    between atoms: C11_17  and  C12_18 
REMARK    8  A    between atoms: C13_19  and  O4_20 
ROOT
HETATM    1  C3  UNL     1      23.085   0.096  52.790  1.00  0.00    -0.023 A 
HETATM    2  C4  UNL     1      24.287   0.604  53.138  1.00  0.00     0.110 A 
HETATM    3  C6  UNL     1      24.908   1.791  52.547  1.00  0.00     0.226 A 
HETATM    4  N1  UNL     1      24.066   2.443  51.559  1.00  0.00    -0.150 N 
HETATM    5  C15 UNL     1      22.798   1.950  51.157  1.00  0.00     0.113 A 
HETATM    6  C16 UNL     1      22.356   0.850  51.744  1.00  0.00     0.027 A 
ENDROOT
BRANCH   4   7
HETATM    7  C8  UNL     1      24.592   3.657  50.978  1.00  0.00     0.712 A 
HETATM    8  N2  UNL     1      24.049   4.817  51.173  1.00  0.00    -0.057 NA
HETATM    9  C9  UNL     1      24.573   6.025  50.594  1.00  0.00     0.255 A 
HETATM   10  N3  UNL     1      25.638   5.972  49.837  1.00  0.00    -0.223 NA
HETATM   11  C10 UNL     1      26.294   4.758  49.569  1.00  0.00     0.144 A 
HETATM   12  C11 UNL     1      27.369   4.693  48.807  1.00  0.00     0.053 C 
HETATM   13  N4  UNL     1      25.767   3.558  50.149  1.00  0.00    -0.173 N 
HETATM   14  H20 UNL     1      26.260   2.684  49.942  1.00  0.00     0.186 HD
BRANCH  12  15
HETATM   15  C12 UNL     1      27.908   5.911  48.214  1.00  0.00     0.028 C 
HETATM   16  C13 UNL     1      29.217   6.101  48.158  1.00  0.00     0.134 C 
BRANCH  16  17
HETATM   17  O4  UNL     1      29.938   7.149  47.655  1.00  0.00    -0.368 OA
HETATM   18  C14 UNL     1      31.148   7.566  48.269  1.00  0.00     0.208 C 
ENDBRANCH  16  17
ENDBRANCH  12  15
ENDBRANCH   4   7
BRANCH   3  19
HETATM   19  O2  UNL     1      26.132   1.444  51.915  1.00  0.00    -0.363 OA
HETATM   20  H9  UNL     1      26.726   2.233  51.872  1.00  0.00     0.213 HD
ENDBRANCH   3  19
BRANCH   3  21
HETATM   21  C7  UNL     1      25.279   2.864  53.545  1.00  0.00     0.233 C 
BRANCH  21  22
HETATM   22  O3  UNL     1      26.557   2.497  54.032  1.00  0.00    -0.396 OA
HETATM   23  H12 UNL     1      27.276   2.984  53.583  1.00  0.00     0.209 HD
ENDBRANCH  21  22
ENDBRANCH   3  21
BRANCH   2  24
HETATM   24  O1  UNL     1      24.905  -0.114  54.126  1.00  0.00    -0.355 OA
HETATM   25  C5  UNL     1      25.932  -1.024  53.798  1.00  0.00     0.209 C 
ENDBRANCH   2  24
BRANCH   1  26
HETATM   26  C2  UNL     1      22.237  -1.039  53.180  1.00  0.00     0.037 C 
HETATM   27  C1  UNL     1      21.531  -0.931  54.482  1.00  0.00     0.010 C 
ENDBRANCH   1  26
TORSDOF 8
ENDMDL
MODEL 2
REMARK VINA RESULT:      -6.6      5.267      9.135
REMARK  8 active torsions:
REMARK  status: ('A' for Active; 'I' for Inactive)
REMARK    1  A    between atoms: C2_2  and  C3_3 
REMARK    2  A    between atoms: C4_4  and  O1_5 
REMARK    3  A    between atoms: C6_7  and  O2_8 
REMARK    4  A    between atoms: C6_7  and  C7_9 
REMARK    5  A    between atoms: C7_9  and  O3_10 
REMARK    6  A    between atoms: N1_11  and  C8_12 
REMARK    7  A    between atoms: C11_17  and  C12_18 
REMARK    8  A    between atoms: C13_19  and  O4_20 
ROOT
HETATM    1  C3  UNL     1      33.566   4.392  47.802  1.00  0.00    -0.023 A 
HETATM    2  C4  UNL     1      33.327   5.588  48.381  1.00  0.00     0.110 A 
HETATM    3  C6  UNL     1      32.034   6.275  48.404  1.00  0.00     0.226 A 
HETATM    4  N1  UNL     1      30.970   5.508  47.781  1.00  0.00    -0.150 N 
HETATM    5  C15 UNL     1      31.168   4.249  47.157  1.00  0.00     0.113 A 
HETATM    6  C16 UNL     1      32.390   3.743  47.177  1.00  0.00     0.027 A 
ENDROOT
BRANCH   4   7
HETATM    7  C8  UNL     1      29.652   6.101  47.821  1.00  0.00     0.712 A 
HETATM    8  N2  UNL     1      29.360   7.194  47.190  1.00  0.00    -0.057 NA
HETATM    9  C9  UNL     1      28.048   7.784  47.230  1.00  0.00     0.255 A 
HETATM   10  N3  UNL     1      27.100   7.209  47.925  1.00  0.00    -0.223 NA
HETATM   11  C10 UNL     1      27.326   6.021  48.640  1.00  0.00     0.144 A 
HETATM   12  C11 UNL     1      26.377   5.434  49.344  1.00  0.00     0.053 C 
HETATM   13  N4  UNL     1      28.634   5.439  48.597  1.00  0.00    -0.173 N 
HETATM   14  H20 UNL     1      28.777   4.573  49.125  1.00  0.00     0.186 HD
BRANCH  12  15
HETATM   15  C12 UNL     1      25.043   6.023  49.392  1.00  0.00     0.028 C 
HETATM   16  C13 UNL     1      24.662   6.719  50.451  1.00  0.00     0.134 C 
BRANCH  16  17
HETATM   17  O4  UNL     1      23.477   7.353  50.712  1.00  0.00    -0.368 OA
HETATM   18  C14 UNL     1      22.236   6.691  50.519  1.00  0.00     0.208 C 
ENDBRANCH  16  17
ENDBRANCH  12  15
ENDBRANCH   4   7
BRANCH   3  19
HETATM   19  O2  UNL     1      32.127   7.521  47.727  1.00  0.00    -0.363 OA
HETATM   20  H9  UNL     1      31.283   7.710  47.248  1.00  0.00     0.213 HD
ENDBRANCH   3  19
BRANCH   3  21
HETATM   21  C7  UNL     1      31.536   6.624  49.787  1.00  0.00     0.233 C 
BRANCH  21  22
HETATM   22  O3  UNL     1      31.699   5.444  50.553  1.00  0.00    -0.396 OA
HETATM   23  H12 UNL     1      32.415   5.531  51.214  1.00  0.00     0.209 HD
ENDBRANCH  21  22
ENDBRANCH   3  21
BRANCH   2  24
HETATM   24  O1  UNL     1      34.439   6.130  48.966  1.00  0.00    -0.355 OA
HETATM   25  C5  UNL     1      35.247   7.034  48.244  1.00  0.00     0.209 C 
ENDBRANCH   2  24
BRANCH   1  26
HETATM   26  C2  UNL     1      34.712   3.491  47.614  1.00  0.00     0.037 C 
HETATM   27  C1  UNL     1      35.162   3.263  46.218  1.00  0.00     0.010 C 
ENDBRANCH   1  26
TORSDOF 8
ENDMDL
MODEL 3
REMARK VINA RESULT:      -6.6      2.360      8.119
REMARK  8 active torsions:
REMARK  status: ('A' for Active; 'I' for Inactive)
REMARK    1  A    between atoms: C2_2  and  C3_3 
REMARK    2  A    between atoms: C4_4  and  O1_5 
REMARK    3  A    between atoms: C6_7  and  O2_8 
REMARK    4  A    between atoms: C6_7  and  C7_9 
REMARK    5  A    between atoms: C7_9  and  O3_10 
REMARK    6  A    between atoms: N1_11  and  C8_12 
REMARK    7  A    between atoms: C11_17  and  C12_18 
REMARK    8  A    between atoms: C13_19  and  O4_20 
ROOT
HETATM    1  C3  UNL     1      27.521   6.433  48.461  1.00  0.00    -0.023 A 
HETATM    2  C4  UNL     1      26.259   6.805  48.763  1.00  0.00     0.110 A 
HETATM    3  C6  UNL     1      25.185   5.899  49.177  1.00  0.00     0.226 A 
HETATM    4  N1  UNL     1      25.619   4.519  49.301  1.00  0.00    -0.150 N 
HETATM    5  C15 UNL     1      26.932   4.077  48.994  1.00  0.00     0.113 A 
HETATM    6  C16 UNL     1      27.808   4.987  48.602  1.00  0.00     0.027 A 
ENDROOT
BRANCH   4   7
HETATM    7  C8  UNL     1      24.623   3.579  49.763  1.00  0.00     0.712 A 
HETATM    8  N2  UNL     1      23.560   3.296  49.079  1.00  0.00    -0.057 NA
HETATM    9  C9  UNL     1      22.570   2.360  49.540  1.00  0.00     0.255 A 
HETATM   10  N3  UNL     1      22.730   1.762  50.692  1.00  0.00    -0.223 NA
HETATM   11  C10 UNL     1      23.851   2.007  51.502  1.00  0.00     0.144 A 
HETATM   12  C11 UNL     1      24.022   1.410  52.666  1.00  0.00     0.053 C 
HETATM   13  N4  UNL     1      24.835   2.941  51.038  1.00  0.00    -0.173 N 
HETATM   14  H20 UNL     1      25.644   3.105  51.643  1.00  0.00     0.186 HD
BRANCH  12  15
HETATM   15  C12 UNL     1      23.024   0.460  53.144  1.00  0.00     0.028 C 
HETATM   16  C13 UNL     1      23.351  -0.449  54.049  1.00  0.00     0.134 C 
BRANCH  16  17
HETATM   17  O4  UNL     1      22.592  -1.426  54.634  1.00  0.00    -0.368 OA
HETATM   18  C14 UNL     1      21.186  -1.477  54.437  1.00  0.00     0.208 C 
ENDBRANCH  16  17
ENDBRANCH  12  15
ENDBRANCH   4   7
BRANCH   3  19
HETATM   19  O2  UNL     1      24.119   5.939  48.238  1.00  0.00    -0.363 OA
HETATM   20  H9  UNL     1      23.679   6.823  48.262  1.00  0.00     0.213 HD
ENDBRANCH   3  19
BRANCH   3  21
HETATM   21  C7  UNL     1      24.545   6.252  50.500  1.00  0.00     0.233 C 
BRANCH  21  22
HETATM   22  O3  UNL     1      25.511   7.023  51.190  1.00  0.00    -0.396 OA
HETATM   23  H12 UNL     1      26.424   6.746  50.976  1.00  0.00     0.209 HD
ENDBRANCH  21  22
ENDBRANCH   3  21
BRANCH   2  24
HETATM   24  O1  UNL     1      26.055   8.154  48.643  1.00  0.00    -0.355 OA
HETATM   25  C5  UNL     1      25.660   8.699  47.403  1.00  0.00     0.209 C 
ENDBRANCH   2  24
BRANCH   1  26
HETATM   26  C2  UNL     1      28.765   7.084  48.025  1.00  0.00     0.037 C 
HETATM   27  C1  UNL     1      30.004   6.268  48.088  1.00  0.00     0.010 C 
ENDBRANCH   1  26
TORSDOF 8
ENDMDL
MODEL 4
REMARK VINA RESULT:      -6.6      4.006      7.767
REMARK  8 active torsions:
REMARK  status: ('A' for Active; 'I' for Inactive)
REMARK    1  A    between atoms: C2_2  and  C3_3 
REMARK    2  A    between atoms: C4_4  and  O1_5 
REMARK    3  A    between atoms: C6_7  and  O2_8 
REMARK    4  A    between atoms: C6_7  and  C7_9 
REMARK    5  A    between atoms: C7_9  and  O3_10 
REMARK    6  A    between atoms: N1_11  and  C8_12 
REMARK    7  A    between atoms: C11_17  and  C12_18 
REMARK    8  A    between atoms: C13_19  and  O4_20 
ROOT
HETATM    1  C3  UNL     1      28.368  -0.220  53.144  1.00  0.00    -0.023 A 
HETATM    2  C4  UNL     1      27.859   1.026  53.032  1.00  0.00     0.110 A 
HETATM    3  C6  UNL     1      26.459   1.346  52.743  1.00  0.00     0.226 A 
HETATM    4  N1  UNL     1      25.614   0.169  52.643  1.00  0.00    -0.150 N 
HETATM    5  C15 UNL     1      26.099  -1.160  52.751  1.00  0.00     0.113 A 
HETATM    6  C16 UNL     1      27.391  -1.322  52.985  1.00  0.00     0.027 A 
ENDROOT
BRANCH   4   7
HETATM    7  C8  UNL     1      24.207   0.415  52.418  1.00  0.00     0.712 A 
HETATM    8  N2  UNL     1      23.778   1.222  51.501  1.00  0.00    -0.057 NA
HETATM    9  C9  UNL     1      22.378   1.466  51.278  1.00  0.00     0.255 A 
HETATM   10  N3  UNL     1      21.488   0.859  52.020  1.00  0.00    -0.223 NA
HETATM   11  C10 UNL     1      21.861  -0.034  53.039  1.00  0.00     0.144 A 
HETATM   12  C11 UNL     1      20.972  -0.651  53.793  1.00  0.00     0.053 C 
HETATM   13  N4  UNL     1      23.257  -0.272  53.256  1.00  0.00    -0.173 N 
HETATM   14  H20 UNL     1      23.508  -0.926  54.004  1.00  0.00     0.186 HD
BRANCH  12  15
HETATM   15  C12 UNL     1      19.550  -0.412  53.576  1.00  0.00     0.028 C 
HETATM   16  C13 UNL     1      18.712  -1.431  53.471  1.00  0.00     0.134 C 
BRANCH  16  17
HETATM   17  O4  UNL     1      17.359  -1.445  53.269  1.00  0.00    -0.368 OA
HETATM   18  C14 UNL     1      16.750  -0.576  52.325  1.00  0.00     0.208 C 
ENDBRANCH  16  17
ENDBRANCH  12  15
ENDBRANCH   4   7
BRANCH   3  19
HETATM   19  O2  UNL     1      26.360   2.059  51.519  1.00  0.00    -0.363 OA
HETATM   20  H9  UNL     1      27.244   2.102  51.079  1.00  0.00     0.213 HD
ENDBRANCH   3  19
BRANCH   3  21
HETATM   21  C7  UNL     1      25.800   2.242  53.766  1.00  0.00     0.233 C 
BRANCH  21  22
HETATM   22  O3  UNL     1      25.260   3.322  53.026  1.00  0.00    -0.396 OA
HETATM   23  H12 UNL     1      25.365   4.176  53.492  1.00  0.00     0.209 HD
ENDBRANCH  21  22
ENDBRANCH   3  21
BRANCH   2  24
HETATM   24  O1  UNL     1      28.797   2.006  53.215  1.00  0.00    -0.355 OA
HETATM   25  C5  UNL     1      29.408   2.171  54.475  1.00  0.00     0.209 C 
ENDBRANCH   2  24
BRANCH   1  26
HETATM   26  C2  UNL     1      29.677  -0.833  53.407  1.00  0.00     0.037 C 
HETATM   27  C1  UNL     1      29.719  -2.316  53.479  1.00  0.00     0.010 C 
ENDBRANCH   1  26
TORSDOF 8
ENDMDL
MODEL 5
REMARK VINA RESULT:      -6.5      1.817      2.306
REMARK  8 active torsions:
REMARK  status: ('A' for Active; 'I' for Inactive)
REMARK    1  A    between atoms: C2_2  and  C3_3 
REMARK    2  A    between atoms: C4_4  and  O1_5 
REMARK    3  A    between atoms: C6_7  and  O2_8 
REMARK    4  A    between atoms: C6_7  and  C7_9 
REMARK    5  A    between atoms: C7_9  and  O3_10 
REMARK    6  A    between atoms: N1_11  and  C8_12 
REMARK    7  A    between atoms: C11_17  and  C12_18 
REMARK    8  A    between atoms: C13_19  and  O4_20 
ROOT
HETATM    1  C3  UNL     1      23.864   0.161  52.888  1.00  0.00    -0.023 A 
HETATM    2  C4  UNL     1      25.184   0.445  52.912  1.00  0.00     0.110 A 
HETATM    3  C6  UNL     1      25.835   1.509  52.144  1.00  0.00     0.226 A 
HETATM    4  N1  UNL     1      24.901   2.306  51.369  1.00  0.00    -0.150 N 
HETATM    5  C15 UNL     1      23.507   2.047  51.308  1.00  0.00     0.113 A 
HETATM    6  C16 UNL     1      23.040   1.039  52.025  1.00  0.00     0.027 A 
ENDROOT
BRANCH   4   7
HETATM    7  C8  UNL     1      25.469   3.412  50.632  1.00  0.00     0.712 A 
HETATM    8  N2  UNL     1      26.407   3.256  49.752  1.00  0.00    -0.057 NA
HETATM    9  C9  UNL     1      26.972   4.358  49.019  1.00  0.00     0.255 A 
HETATM   10  N3  UNL     1      26.535   5.572  49.235  1.00  0.00    -0.223 NA
HETATM   11  C10 UNL     1      25.520   5.836  50.171  1.00  0.00     0.144 A 
HETATM   12  C11 UNL     1      25.074   7.057  50.397  1.00  0.00     0.053 C 
HETATM   13  N4  UNL     1      24.962   4.735  50.898  1.00  0.00    -0.173 N 
HETATM   14  H20 UNL     1      24.224   4.949  51.575  1.00  0.00     0.186 HD
BRANCH  12  15
HETATM   15  C12 UNL     1      25.639   8.181  49.660  1.00  0.00     0.028 C 
HETATM   16  C13 UNL     1      26.484   9.009  50.255  1.00  0.00     0.134 C 
BRANCH  16  17
HETATM   17  O4  UNL     1      27.129  10.113  49.768  1.00  0.00    -0.368 OA
HETATM   18  C14 UNL     1      28.203   9.987  48.848  1.00  0.00     0.208 C 
ENDBRANCH  16  17
ENDBRANCH  12  15
ENDBRANCH   4   7
BRANCH   3  19
HETATM   19  O2  UNL     1      26.786   0.955  51.246  1.00  0.00    -0.363 OA
HETATM   20  H9  UNL     1      26.540   0.025  51.022  1.00  0.00     0.213 HD
ENDBRANCH   3  19
BRANCH   3  21
HETATM   21  C7  UNL     1      26.621   2.492  52.981  1.00  0.00     0.233 C 
BRANCH  21  22
HETATM   22  O3  UNL     1      27.931   2.477  52.445  1.00  0.00    -0.396 OA
HETATM   23  H12 UNL     1      28.128   3.285  51.930  1.00  0.00     0.209 HD
ENDBRANCH  21  22
ENDBRANCH   3  21
BRANCH   2  24
HETATM   24  O1  UNL     1      25.894  -0.377  53.745  1.00  0.00    -0.355 OA
HETATM   25  C5  UNL     1      26.116  -0.001  55.086  1.00  0.00     0.209 C 
ENDBRANCH   2  24
BRANCH   1  26
HETATM   26  C2  UNL     1      22.956  -0.810  53.515  1.00  0.00     0.037 C 
HETATM   27  C1  UNL     1      21.810  -0.257  54.281  1.00  0.00     0.010 C 
ENDBRANCH   1  26
TORSDOF 8
ENDMDL
MODEL 6
REMARK VINA RESULT:      -6.4      1.988      2.829
REMARK  8 active torsions:
REMARK  status: ('A' for Active; 'I' for Inactive)
REMARK    1  A    between atoms: C2_2  and  C3_3 
REMARK    2  A    between atoms: C4_4  and  O1_5 
REMARK    3  A    between atoms: C6_7  and  O2_8 
REMARK    4  A    between atoms: C6_7  and  C7_9 
REMARK    5  A    between atoms: C7_9  and  O3_10 
REMARK    6  A    between atoms: N1_11  and  C8_12 
REMARK    7  A    between atoms: C11_17  and  C12_18 
REMARK    8  A    between atoms: C13_19  and  O4_20 
ROOT
HETATM    1  C3  UNL     1      22.479   0.016  52.705  1.00  0.00    -0.023 A 
HETATM    2  C4  UNL     1      21.802   0.850  51.888  1.00  0.00     0.110 A 
HETATM    3  C6  UNL     1      22.325   2.102  51.334  1.00  0.00     0.226 A 
HETATM    4  N1  UNL     1      23.707   2.354  51.700  1.00  0.00    -0.150 N 
HETATM    5  C15 UNL     1      24.461   1.510  52.556  1.00  0.00     0.113 A 
HETATM    6  C16 UNL     1      23.869   0.421  53.017  1.00  0.00     0.027 A 
ENDROOT
BRANCH   4   7
HETATM    7  C8  UNL     1      24.307   3.543  51.138  1.00  0.00     0.712 A 
HETATM    8  N2  UNL     1      23.835   4.730  51.354  1.00  0.00    -0.057 NA
HETATM    9  C9  UNL     1      24.431   5.914  50.795  1.00  0.00     0.255 A 
HETATM   10  N3  UNL     1      25.492   5.809  50.036  1.00  0.00    -0.223 NA
HETATM   11  C10 UNL     1      26.073   4.562  49.748  1.00  0.00     0.144 A 
HETATM   12  C11 UNL     1      27.141   4.445  48.983  1.00  0.00     0.053 C 
HETATM   13  N4  UNL     1      25.473   3.387  50.307  1.00  0.00    -0.173 N 
HETATM   14  H20 UNL     1      25.912   2.488  50.084  1.00  0.00     0.186 HD
BRANCH  12  15
HETATM   15  C12 UNL     1      27.755   5.638  48.410  1.00  0.00     0.028 C 
HETATM   16  C13 UNL     1      29.068   5.704  48.260  1.00  0.00     0.134 C 
BRANCH  16  17
HETATM   17  O4  UNL     1      29.850   6.706  47.754  1.00  0.00    -0.368 OA
HETATM   18  C14 UNL     1      30.426   7.685  48.606  1.00  0.00     0.208 C 
ENDBRANCH  16  17
ENDBRANCH  12  15
ENDBRANCH   4   7
BRANCH   3  19
HETATM   19  O2  UNL     1      21.547   3.202  51.785  1.00  0.00    -0.363 OA
HETATM   20  H9  UNL     1      21.599   3.273  52.770  1.00  0.00     0.213 HD
ENDBRANCH   3  19
BRANCH   3  21
HETATM   21  C7  UNL     1      22.274   2.187  49.826  1.00  0.00     0.233 C 
BRANCH  21  22
HETATM   22  O3  UNL     1      21.979   0.874  49.386  1.00  0.00    -0.396 OA
HETATM   23  H12 UNL     1      22.037   0.791  48.413  1.00  0.00     0.209 HD
ENDBRANCH  21  22
ENDBRANCH   3  21
BRANCH   2  24
HETATM   24  O1  UNL     1      20.534   0.416  51.610  1.00  0.00    -0.355 OA
HETATM   25  C5  UNL     1      19.497   0.629  52.542  1.00  0.00     0.209 C 
ENDBRANCH   2  24
BRANCH   1  26
HETATM   26  C2  UNL     1      22.229  -1.255  53.400  1.00  0.00     0.037 C 
HETATM   27  C1  UNL     1      21.948  -1.177  54.856  1.00  0.00     0.010 C 
ENDBRANCH   1  26
TORSDOF 8
ENDMDL
MODEL 7
REMARK VINA RESULT:      -6.3      4.524      7.015
REMARK  8 active torsions:
REMARK  status: ('A' for Active; 'I' for Inactive)
REMARK    1  A    between atoms: C2_2  and  C3_3 
REMARK    2  A    between atoms: C4_4  and  O1_5 
REMARK    3  A    between atoms: C6_7  and  O2_8 
REMARK    4  A    between atoms: C6_7  and  C7_9 
REMARK    5  A    between atoms: C7_9  and  O3_10 
REMARK    6  A    between atoms: N1_11  and  C8_12 
REMARK    7  A    between atoms: C11_17  and  C12_18 
REMARK    8  A    between atoms: C13_19  and  O4_20 
ROOT
HETATM    1  C3  UNL     1      28.443  -0.573  53.572  1.00  0.00    -0.023 A 
HETATM    2  C4  UNL     1      27.802   0.343  54.328  1.00  0.00     0.110 A 
HETATM    3  C6  UNL     1      26.359   0.598  54.307  1.00  0.00     0.226 A 
HETATM    4  N1  UNL     1      25.636  -0.293  53.417  1.00  0.00    -0.150 N 
HETATM    5  C15 UNL     1      26.263  -1.269  52.600  1.00  0.00     0.113 A 
HETATM    6  C16 UNL     1      27.577  -1.386  52.687  1.00  0.00     0.027 A 
ENDROOT
BRANCH   4   7
HETATM    7  C8  UNL     1      24.199  -0.137  53.392  1.00  0.00     0.712 A 
HETATM    8  N2  UNL     1      23.405  -0.876  54.099  1.00  0.00    -0.057 NA
HETATM    9  C9  UNL     1      21.974  -0.720  54.073  1.00  0.00     0.255 A 
HETATM   10  N3  UNL     1      21.436   0.197  53.312  1.00  0.00    -0.223 NA
HETATM   11  C10 UNL     1      22.220   1.045  52.510  1.00  0.00     0.144 A 
HETATM   12  C11 UNL     1      21.687   1.973  51.738  1.00  0.00     0.053 C 
HETATM   13  N4  UNL     1      23.643   0.885  52.540  1.00  0.00    -0.173 N 
HETATM   14  H20 UNL     1      24.196   1.512  51.949  1.00  0.00     0.186 HD
BRANCH  12  15
HETATM   15  C12 UNL     1      20.238   2.139  51.704  1.00  0.00     0.028 C 
HETATM   16  C13 UNL     1      19.698   3.319  51.967  1.00  0.00     0.134 C 
BRANCH  16  17
HETATM   17  O4  UNL     1      18.385   3.703  51.992  1.00  0.00    -0.368 OA
HETATM   18  C14 UNL     1      17.695   4.032  50.795  1.00  0.00     0.208 C 
ENDBRANCH  16  17
ENDBRANCH  12  15
ENDBRANCH   4   7
BRANCH   3  19
HETATM   19  O2  UNL     1      26.101   1.932  53.893  1.00  0.00    -0.363 OA
HETATM   20  H9  UNL     1      26.922   2.336  53.520  1.00  0.00     0.213 HD
ENDBRANCH   3  19
BRANCH   3  21
HETATM   21  C7  UNL     1      25.684   0.474  55.653  1.00  0.00     0.233 C 
BRANCH  21  22
HETATM   22  O3  UNL     1      25.831  -0.884  56.024  1.00  0.00    -0.396 OA
HETATM   23  H12 UNL     1      25.424  -1.490  55.373  1.00  0.00     0.209 HD
ENDBRANCH  21  22
ENDBRANCH   3  21
BRANCH   2  24
HETATM   24  O1  UNL     1      28.644   1.047  55.146  1.00  0.00    -0.355 OA
HETATM   25  C5  UNL     1      29.444   2.079  54.614  1.00  0.00     0.209 C 
ENDBRANCH   2  24
BRANCH   1  26
HETATM   26  C2  UNL     1      29.825  -1.034  53.373  1.00  0.00     0.037 C 
HETATM   27  C1  UNL     1      30.137  -2.419  53.811  1.00  0.00     0.010 C 
ENDBRANCH   1  26
TORSDOF 8
ENDMDL
MODEL 8
REMARK VINA RESULT:      -6.2      2.410      8.444
REMARK  8 active torsions:
REMARK  status: ('A' for Active; 'I' for Inactive)
REMARK    1  A    between atoms: C2_2  and  C3_3 
REMARK    2  A    between atoms: C4_4  and  O1_5 
REMARK    3  A    between atoms: C6_7  and  O2_8 
REMARK    4  A    between atoms: C6_7  and  C7_9 
REMARK    5  A    between atoms: C7_9  and  O3_10 
REMARK    6  A    between atoms: N1_11  and  C8_12 
REMARK    7  A    between atoms: C11_17  and  C12_18 
REMARK    8  A    between atoms: C13_19  and  O4_20 
ROOT
HETATM    1  C3  UNL     1      28.415   8.102  47.768  1.00  0.00    -0.023 A 
HETATM    2  C4  UNL     1      27.166   8.265  48.256  1.00  0.00     0.110 A 
HETATM    3  C6  UNL     1      26.315   7.195  48.780  1.00  0.00     0.226 A 
HETATM    4  N1  UNL     1      26.971   5.899  48.792  1.00  0.00    -0.150 N 
HETATM    5  C15 UNL     1      28.278   5.674  48.289  1.00  0.00     0.113 A 
HETATM    6  C16 UNL     1      28.939   6.717  47.814  1.00  0.00     0.027 A 
ENDROOT
BRANCH   4   7
HETATM    7  C8  UNL     1      26.209   4.806  49.352  1.00  0.00     0.712 A 
HETATM    8  N2  UNL     1      24.955   4.619  49.082  1.00  0.00    -0.057 NA
HETATM    9  C9  UNL     1      24.197   3.531  49.641  1.00  0.00     0.255 A 
HETATM   10  N3  UNL     1      24.778   2.688  50.455  1.00  0.00    -0.223 NA
HETATM   11  C10 UNL     1      26.133   2.812  50.805  1.00  0.00     0.144 A 
HETATM   12  C11 UNL     1      26.728   1.967  51.625  1.00  0.00     0.053 C 
HETATM   13  N4  UNL     1      26.883   3.898  50.245  1.00  0.00    -0.173 N 
HETATM   14  H20 UNL     1      27.869   3.971  50.513  1.00  0.00     0.186 HD
BRANCH  12  15
HETATM   15  C12 UNL     1      25.969   0.861  52.198  1.00  0.00     0.028 C 
HETATM   16  C13 UNL     1      25.648   0.869  53.482  1.00  0.00     0.134 C 
BRANCH  16  17
HETATM   17  O4  UNL     1      24.952  -0.045  54.224  1.00  0.00    -0.368 OA
HETATM   18  C14 UNL     1      23.728  -0.591  53.753  1.00  0.00     0.208 C 
ENDBRANCH  16  17
ENDBRANCH  12  15
ENDBRANCH   4   7
BRANCH   3  19
HETATM   19  O2  UNL     1      25.133   7.079  48.000  1.00  0.00    -0.363 OA
HETATM   20  H9  UNL     1      24.963   7.923  47.516  1.00  0.00     0.213 HD
ENDBRANCH   3  19
BRANCH   3  21
HETATM   21  C7  UNL     1      25.825   7.421  50.192  1.00  0.00     0.233 C 
BRANCH  21  22
HETATM   22  O3  UNL     1      26.765   8.302  50.779  1.00  0.00    -0.396 OA
HETATM   23  H12 UNL     1      27.042   8.004  51.668  1.00  0.00     0.209 HD
ENDBRANCH  21  22
ENDBRANCH   3  21
BRANCH   2  24
HETATM   24  O1  UNL     1      26.742   9.566  48.216  1.00  0.00    -0.355 OA
HETATM   25  C5  UNL     1      26.079  10.055  47.071  1.00  0.00     0.209 C 
ENDBRANCH   2  24
BRANCH   1  26
HETATM   26  C2  UNL     1      29.468   8.947  47.188  1.00  0.00     0.037 C 
HETATM   27  C1  UNL     1      30.080   9.962  48.083  1.00  0.00     0.010 C 
ENDBRANCH   1  26
TORSDOF 8
ENDMDL
MODEL 9
REMARK VINA RESULT:      -6.0      2.897      8.286
REMARK  8 active torsions:
REMARK  status: ('A' for Active; 'I' for Inactive)
REMARK    1  A    between atoms: C2_2  and  C3_3 
REMARK    2  A    between atoms: C4_4  and  O1_5 
REMARK    3  A    between atoms: C6_7  and  O2_8 
REMARK    4  A    between atoms: C6_7  and  C7_9 
REMARK    5  A    between atoms: C7_9  and  O3_10 
REMARK    6  A    between atoms: N1_11  and  C8_12 
REMARK    7  A    between atoms: C11_17  and  C12_18 
REMARK    8  A    between atoms: C13_19  and  O4_20 
ROOT
HETATM    1  C3  UNL     1      26.532   6.583  48.489  1.00  0.00    -0.023 A 
HETATM    2  C4  UNL     1      25.276   6.706  48.969  1.00  0.00     0.110 A 
HETATM    3  C6  UNL     1      24.525   5.653  49.656  1.00  0.00     0.226 A 
HETATM    4  N1  UNL     1      25.292   4.434  49.842  1.00  0.00    -0.150 N 
HETATM    5  C15 UNL     1      26.613   4.253  49.355  1.00  0.00     0.113 A 
HETATM    6  C16 UNL     1      27.176   5.270  48.725  1.00  0.00     0.027 A 
ENDROOT
BRANCH   4   7
HETATM    7  C8  UNL     1      24.632   3.372  50.567  1.00  0.00     0.712 A 
HETATM    8  N2  UNL     1      25.111   2.871  51.661  1.00  0.00    -0.057 NA
HETATM    9  C9  UNL     1      24.454   1.814  52.382  1.00  0.00     0.255 A 
HETATM   10  N3  UNL     1      23.327   1.325  51.931  1.00  0.00    -0.223 NA
HETATM   11  C10 UNL     1      22.733   1.807  50.752  1.00  0.00     0.144 A 
HETATM   12  C11 UNL     1      21.597   1.320  50.288  1.00  0.00     0.053 C 
HETATM   13  N4  UNL     1      23.393   2.860  50.039  1.00  0.00    -0.173 N 
HETATM   14  H20 UNL     1      22.943   3.196  49.182  1.00  0.00     0.186 HD
BRANCH  12  15
HETATM   15  C12 UNL     1      20.922   0.248  51.010  1.00  0.00     0.028 C 
HETATM   16  C13 UNL     1      19.660   0.389  51.383  1.00  0.00     0.134 C 
BRANCH  16  17
HETATM   17  O4  UNL     1      18.837  -0.470  52.058  1.00  0.00    -0.368 OA
HETATM   18  C14 UNL     1      17.429  -0.285  52.060  1.00  0.00     0.208 C 
ENDBRANCH  16  17
ENDBRANCH  12  15
ENDBRANCH   4   7
BRANCH   3  19
HETATM   19  O2  UNL     1      23.355   5.324  48.921  1.00  0.00    -0.363 OA
HETATM   20  H9  UNL     1      23.320   5.850  48.085  1.00  0.00     0.213 HD
ENDBRANCH   3  19
BRANCH   3  21
HETATM   21  C7  UNL     1      24.022   6.038  51.028  1.00  0.00     0.233 C 
BRANCH  21  22
HETATM   22  O3  UNL     1      24.951   6.989  51.515  1.00  0.00    -0.396 OA
HETATM   23  H12 UNL     1      25.649   6.576  52.061  1.00  0.00     0.209 HD
ENDBRANCH  21  22
ENDBRANCH   3  21
BRANCH   2  24
HETATM   24  O1  UNL     1      24.738   7.946  48.749  1.00  0.00    -0.355 OA
HETATM   25  C5  UNL     1      24.041   8.209  47.552  1.00  0.00     0.209 C 
ENDBRANCH   2  24
BRANCH   1  26
HETATM   26  C2  UNL     1      27.504   7.423  47.776  1.00  0.00     0.037 C 
HETATM   27  C1  UNL     1      28.828   6.816  47.485  1.00  0.00     0.010 C 
ENDBRANCH   1  26
TORSDOF 8
ENDMDL
