MODEL 1
REMARK VINA RESULT:      -6.5      0.000      0.000
REMARK  11 active torsions:
REMARK  status: ('A' for Active; 'I' for Inactive)
REMARK    1  A    between atoms: C2_2  and  C3_3 
REMARK    2  A    between atoms: C3_3  and  C4_4 
REMARK    3  A    between atoms: C3_3  and  N1_7 
REMARK    4  A    between atoms: C4_4  and  O1_5 
REMARK    5  A    between atoms: N1_7  and  S1_8 
REMARK    6  A    between atoms: S1_8  and  C6_9 
REMARK    7  A    between atoms: C6_9  and  C7_10 
REMARK    8  A    between atoms: C8_11  and  C9_12 
REMARK       I    between atoms: C9_12  and  N2_14 
REMARK    9  A    between atoms: N2_14  and  C10_15 
REMARK   10  A    between atoms: C14_19  and  C15_20 
REMARK   11  A    between atoms: C15_20  and  N3_21 
ROOT
HETATM    1  C7  UNL     1      22.412  -0.561  53.899  1.00  0.00    -0.086 C 
HETATM    2  C8  UNL     1      23.546  -0.470  53.848  1.00  0.00    -0.005 C 
ENDROOT
BRANCH   2   3
HETATM    3  C9  UNL     1      24.937  -0.383  53.792  1.00  0.00     0.297 C 
HETATM    4  O2  UNL     1      25.494  -0.891  54.844  1.00  0.00    -0.258 OA
HETATM    5  N2  UNL     1      25.947   0.069  52.996  1.00  0.00    -0.335 N 
HETATM    6  H15 UNL     1      25.607   0.472  52.159  1.00  0.00     0.164 HD
BRANCH   5   7
HETATM    7  C10 UNL     1      27.394  -0.000  53.239  1.00  0.00     0.110 A 
HETATM    8  C11 UNL     1      27.878   1.320  53.403  1.00  0.00     0.035 A 
HETATM    9  C12 UNL     1      29.126   0.772  53.605  1.00  0.00     0.075 A 
HETATM   10  C13 UNL     1      28.890  -0.627  53.473  1.00  0.00     0.195 A 
HETATM   11  C15 UNL     1      28.585  -0.772  53.409  1.00  0.00     0.195 A 
HETATM   12  C14 UNL     1      29.872  -1.422  53.601  1.00  0.00     0.269 A 
HETATM   13  N3  UNL     1      28.577  -2.134  53.321  1.00  0.00    -0.034 N 
HETATM   14  H19 UNL     1      28.116  -3.132  53.248  1.00  0.00     0.282 HD
ENDBRANCH   5   7
ENDBRANCH   2   3
BRANCH   1  15
HETATM   15  C6  UNL     1      20.929  -0.662  53.943  1.00  0.00     0.177 C 
BRANCH  15  16
HETATM   16  S1  UNL     1      20.402   0.420  52.597  1.00  0.00    -0.106 SA
HETATM   17  H12 UNL     1      20.442   1.753  53.044  1.00  0.00     0.115 HD
BRANCH  16  18
HETATM   18  N1  UNL     1      21.064   0.149  51.262  1.00  0.00    -0.264 NA
BRANCH  18  19
HETATM   19  C3  UNL     1      21.886   0.886  50.405  1.00  0.00     0.138 C 
BRANCH  19  20
HETATM   20  C2  UNL     1      21.184   1.301  49.160  1.00  0.00     0.025 C 
HETATM   21  C1  UNL     1      22.162   1.775  48.100  1.00  0.00     0.007 C 
ENDBRANCH  19  20
BRANCH  19  22
HETATM   22  C4  UNL     1      22.601   1.977  51.143  1.00  0.00     0.195 C 
BRANCH  22  23
HETATM   23  O1  UNL     1      23.938   1.866  51.265  1.00  0.00    -0.394 OA
HETATM   24  C5  UNL     1      24.828   2.733  50.742  1.00  0.00     0.201 C 
ENDBRANCH  22  23
ENDBRANCH  19  22
ENDBRANCH  18  19
ENDBRANCH  16  18
ENDBRANCH  15  16
ENDBRANCH   1  15
TORSDOF 11
ENDMDL
MODEL 2
REMARK VINA RESULT:      -6.4      1.708      2.313
REMARK  11 active torsions:
REMARK  status: ('A' for Active; 'I' for Inactive)
REMARK    1  A    between atoms: C2_2  and  C3_3 
REMARK    2  A    between atoms: C3_3  and  C4_4 
REMARK    3  A    between atoms: C3_3  and  N1_7 
REMARK    4  A    between atoms: C4_4  and  O1_5 
REMARK    5  A    between atoms: N1_7  and  S1_8 
REMARK    6  A    between atoms: S1_8  and  C6_9 
REMARK    7  A    between atoms: C6_9  and  C7_10 
REMARK    8  A    between atoms: C8_11  and  C9_12 
REMARK       I    between atoms: C9_12  and  N2_14 
REMARK    9  A    between atoms: N2_14  and  C10_15 
REMARK   10  A    between atoms: C14_19  and  C15_20 
REMARK   11  A    between atoms: C15_20  and  N3_21 
ROOT
HETATM    1  C7  UNL     1      22.510  -0.982  54.007  1.00  0.00    -0.086 C 
HETATM    2  C8  UNL     1      23.633  -0.798  53.949  1.00  0.00    -0.005 C 
ENDROOT
BRANCH   2   3
HETATM    3  C9  UNL     1      25.003  -0.549  53.873  1.00  0.00     0.297 C 
HETATM    4  O2  UNL     1      25.623  -0.937  54.941  1.00  0.00    -0.258 OA
HETATM    5  N2  UNL     1      25.947  -0.019  53.045  1.00  0.00    -0.335 N 
HETATM    6  H15 UNL     1      25.556   0.300  52.195  1.00  0.00     0.164 HD
BRANCH   5   7
HETATM    7  C10 UNL     1      27.394   0.096  53.274  1.00  0.00     0.110 A 
HETATM    8  C11 UNL     1      27.723   1.471  53.341  1.00  0.00     0.035 A 
HETATM    9  C12 UNL     1      29.026   1.086  53.564  1.00  0.00     0.075 A 
HETATM   10  C13 UNL     1      28.954  -0.337  53.531  1.00  0.00     0.195 A 
HETATM   11  C15 UNL     1      28.667  -0.520  53.481  1.00  0.00     0.195 A 
HETATM   12  C14 UNL     1      30.022  -1.003  53.700  1.00  0.00     0.269 A 
HETATM   13  N3  UNL     1      28.816  -1.877  53.486  1.00  0.00    -0.034 N 
HETATM   14  H19 UNL     1      28.472  -2.924  53.487  1.00  0.00     0.282 HD
ENDBRANCH   5   7
ENDBRANCH   2   3
BRANCH   1  15
HETATM   15  C6  UNL     1      21.049  -1.240  54.103  1.00  0.00     0.177 C 
BRANCH  15  16
HETATM   16  S1  UNL     1      20.326   0.398  53.868  1.00  0.00    -0.106 SA
HETATM   17  H12 UNL     1      20.269   1.051  55.113  1.00  0.00     0.115 HD
BRANCH  16  18
HETATM   18  N1  UNL     1      20.913   1.199  52.727  1.00  0.00    -0.264 NA
BRANCH  18  19
HETATM   19  C3  UNL     1      21.468   2.477  52.606  1.00  0.00     0.138 C 
BRANCH  19  20
HETATM   20  C2  UNL     1      22.906   2.439  52.223  1.00  0.00     0.025 C 
HETATM   21  C1  UNL     1      23.128   1.612  50.970  1.00  0.00     0.007 C 
ENDBRANCH  19  20
BRANCH  19  22
HETATM   22  C4  UNL     1      20.598   3.372  51.777  1.00  0.00     0.195 C 
BRANCH  22  23
HETATM   23  O1  UNL     1      19.332   3.560  52.195  1.00  0.00    -0.394 OA
HETATM   24  C5  UNL     1      18.235   3.313  51.451  1.00  0.00     0.201 C 
ENDBRANCH  22  23
ENDBRANCH  19  22
ENDBRANCH  18  19
ENDBRANCH  16  18
ENDBRANCH  15  16
ENDBRANCH   1  15
TORSDOF 11
ENDMDL
MODEL 3
REMARK VINA RESULT:      -6.4      2.021      2.771
REMARK  11 active torsions:
REMARK  status: ('A' for Active; 'I' for Inactive)
REMARK    1  A    between atoms: C2_2  and  C3_3 
REMARK    2  A    between atoms: C3_3  and  C4_4 
REMARK    3  A    between atoms: C3_3  and  N1_7 
REMARK    4  A    between atoms: C4_4  and  O1_5 
REMARK    5  A    between atoms: N1_7  and  S1_8 
REMARK    6  A    between atoms: S1_8  and  C6_9 
REMARK    7  A    between atoms: C6_9  and  C7_10 
REMARK    8  A    between atoms: C8_11  and  C9_12 
REMARK       I    between atoms: C9_12  and  N2_14 
REMARK    9  A    between atoms: N2_14  and  C10_15 
REMARK   10  A    between atoms: C14_19  and  C15_20 
REMARK   11  A    between atoms: C15_20  and  N3_21 
ROOT
HETATM    1  C7  UNL     1      22.762  -0.953  54.085  1.00  0.00    -0.086 C 
HETATM    2  C8  UNL     1      23.848  -0.613  54.038  1.00  0.00    -0.005 C 
ENDROOT
BRANCH   2   3
HETATM    3  C9  UNL     1      25.177  -0.199  53.954  1.00  0.00     0.297 C 
HETATM    4  O2  UNL     1      25.274   1.044  53.607  1.00  0.00    -0.258 OA
HETATM    5  N2  UNL     1      26.450  -0.660  54.110  1.00  0.00    -0.335 N 
HETATM    6  H15 UNL     1      26.469  -1.610  54.383  1.00  0.00     0.164 HD
BRANCH   5   7
HETATM    7  C10 UNL     1      27.710   0.077  53.941  1.00  0.00     0.110 A 
HETATM    8  C11 UNL     1      28.746  -0.863  53.721  1.00  0.00     0.035 A 
HETATM    9  C12 UNL     1      29.609   0.206  53.612  1.00  0.00     0.075 A 
HETATM   10  C13 UNL     1      28.758   1.331  53.818  1.00  0.00     0.195 A 
HETATM   11  C15 UNL     1      28.419   1.316  53.876  1.00  0.00     0.195 A 
HETATM   12  C14 UNL     1      29.270   2.493  53.785  1.00  0.00     0.269 A 
HETATM   13  N3  UNL     1      27.789   2.514  54.046  1.00  0.00    -0.034 N 
HETATM   14  H19 UNL     1      26.922   3.185  54.157  1.00  0.00     0.282 HD
ENDBRANCH   5   7
ENDBRANCH   2   3
BRANCH   1  15
HETATM   15  C6  UNL     1      21.339  -1.379  54.168  1.00  0.00     0.177 C 
BRANCH  15  16
HETATM   16  S1  UNL     1      20.440   0.186  54.158  1.00  0.00    -0.106 SA
HETATM   17  H12 UNL     1      20.854   0.955  55.261  1.00  0.00     0.115 HD
BRANCH  16  18
HETATM   18  N1  UNL     1      20.416   0.902  52.824  1.00  0.00    -0.264 NA
BRANCH  18  19
HETATM   19  C3  UNL     1      21.214   1.876  52.217  1.00  0.00     0.138 C 
BRANCH  19  20
HETATM   20  C2  UNL     1      21.801   1.411  50.931  1.00  0.00     0.025 C 
HETATM   21  C1  UNL     1      23.251   1.838  50.793  1.00  0.00     0.007 C 
ENDBRANCH  19  20
BRANCH  19  22
HETATM   22  C4  UNL     1      20.514   3.201  52.171  1.00  0.00     0.195 C 
BRANCH  22  23
HETATM   23  O1  UNL     1      19.173   3.195  52.293  1.00  0.00    -0.394 OA
HETATM   24  C5  UNL     1      18.318   3.685  51.374  1.00  0.00     0.201 C 
ENDBRANCH  22  23
ENDBRANCH  19  22
ENDBRANCH  18  19
ENDBRANCH  16  18
ENDBRANCH  15  16
ENDBRANCH   1  15
TORSDOF 11
ENDMDL
MODEL 4
REMARK VINA RESULT:      -6.1      2.346      3.261
REMARK  11 active torsions:
REMARK  status: ('A' for Active; 'I' for Inactive)
REMARK    1  A    between atoms: C2_2  and  C3_3 
REMARK    2  A    between atoms: C3_3  and  C4_4 
REMARK    3  A    between atoms: C3_3  and  N1_7 
REMARK    4  A    between atoms: C4_4  and  O1_5 
REMARK    5  A    between atoms: N1_7  and  S1_8 
REMARK    6  A    between atoms: S1_8  and  C6_9 
REMARK    7  A    between atoms: C6_9  and  C7_10 
REMARK    8  A    between atoms: C8_11  and  C9_12 
REMARK       I    between atoms: C9_12  and  N2_14 
REMARK    9  A    between atoms: N2_14  and  C10_15 
REMARK   10  A    between atoms: C14_19  and  C15_20 
REMARK   11  A    between atoms: C15_20  and  N3_21 
ROOT
HETATM    1  C7  UNL     1      23.653   3.721  52.715  1.00  0.00    -0.086 C 
HETATM    2  C8  UNL     1      24.483   2.951  52.843  1.00  0.00    -0.005 C 
ENDROOT
BRANCH   2   3
HETATM    3  C9  UNL     1      25.489   1.994  52.981  1.00  0.00     0.297 C 
HETATM    4  O2  UNL     1      26.215   2.207  54.031  1.00  0.00    -0.258 OA
HETATM    5  N2  UNL     1      25.994   0.883  52.375  1.00  0.00    -0.335 N 
HETATM    6  H15 UNL     1      25.491   0.644  51.559  1.00  0.00     0.164 HD
BRANCH   5   7
HETATM    7  C10 UNL     1      27.129   0.053  52.804  1.00  0.00     0.110 A 
HETATM    8  C11 UNL     1      26.754  -1.307  52.677  1.00  0.00     0.035 A 
HETATM    9  C12 UNL     1      28.015  -1.633  53.125  1.00  0.00     0.075 A 
HETATM   10  C13 UNL     1      28.619  -0.361  53.344  1.00  0.00     0.195 A 
HETATM   11  C15 UNL     1      28.469  -0.057  53.289  1.00  0.00     0.195 A 
HETATM   12  C14 UNL     1      29.813  -0.323  53.778  1.00  0.00     0.269 A 
HETATM   13  N3  UNL     1      29.225   1.045  53.564  1.00  0.00    -0.034 N 
HETATM   14  H19 UNL     1      29.465   2.121  53.572  1.00  0.00     0.282 HD
ENDBRANCH   5   7
ENDBRANCH   2   3
BRANCH   1  15
HETATM   15  C6  UNL     1      22.588   4.747  52.555  1.00  0.00     0.177 C 
BRANCH  15  16
HETATM   16  S1  UNL     1      21.236   3.820  51.798  1.00  0.00    -0.106 SA
HETATM   17  H12 UNL     1      21.688   3.263  50.588  1.00  0.00     0.115 HD
BRANCH  16  18
HETATM   18  N1  UNL     1      20.507   2.876  52.730  1.00  0.00    -0.264 NA
BRANCH  18  19
HETATM   19  C3  UNL     1      20.273   1.497  52.747  1.00  0.00     0.138 C 
BRANCH  19  20
HETATM   20  C2  UNL     1      20.048   0.941  51.384  1.00  0.00     0.025 C 
HETATM   21  C1  UNL     1      18.728   0.198  51.296  1.00  0.00     0.007 C 
ENDBRANCH  19  20
BRANCH  19  22
HETATM   22  C4  UNL     1      21.293   0.783  53.581  1.00  0.00     0.195 C 
BRANCH  22  23
HETATM   23  O1  UNL     1      21.770  -0.384  53.107  1.00  0.00    -0.394 OA
HETATM   24  C5  UNL     1      23.008  -0.858  53.347  1.00  0.00     0.201 C 
ENDBRANCH  22  23
ENDBRANCH  19  22
ENDBRANCH  18  19
ENDBRANCH  16  18
ENDBRANCH  15  16
ENDBRANCH   1  15
TORSDOF 11
ENDMDL
MODEL 5
REMARK VINA RESULT:      -6.1      3.434      4.378
REMARK  11 active torsions:
REMARK  status: ('A' for Active; 'I' for Inactive)
REMARK    1  A    between atoms: C2_2  and  C3_3 
REMARK    2  A    between atoms: C3_3  and  C4_4 
REMARK    3  A    between atoms: C3_3  and  N1_7 
REMARK    4  A    between atoms: C4_4  and  O1_5 
REMARK    5  A    between atoms: N1_7  and  S1_8 
REMARK    6  A    between atoms: S1_8  and  C6_9 
REMARK    7  A    between atoms: C6_9  and  C7_10 
REMARK    8  A    between atoms: C8_11  and  C9_12 
REMARK       I    between atoms: C9_12  and  N2_14 
REMARK    9  A    between atoms: N2_14  and  C10_15 
REMARK   10  A    between atoms: C14_19  and  C15_20 
REMARK   11  A    between atoms: C15_20  and  N3_21 
ROOT
HETATM    1  C7  UNL     1      24.100   3.540  52.772  1.00  0.00    -0.086 C 
HETATM    2  C8  UNL     1      24.902   2.737  52.871  1.00  0.00    -0.005 C 
ENDROOT
BRANCH   2   3
HETATM    3  C9  UNL     1      25.869   1.741  53.007  1.00  0.00     0.297 C 
HETATM    4  O2  UNL     1      26.603   1.923  54.058  1.00  0.00    -0.258 OA
HETATM    5  N2  UNL     1      26.330   0.611  52.401  1.00  0.00    -0.335 N 
HETATM    6  H15 UNL     1      25.817   0.394  51.584  1.00  0.00     0.164 HD
BRANCH   5   7
HETATM    7  C10 UNL     1      27.430  -0.265  52.828  1.00  0.00     0.110 A 
HETATM    8  C11 UNL     1      27.000  -1.608  52.701  1.00  0.00     0.035 A 
HETATM    9  C12 UNL     1      28.247  -1.985  53.148  1.00  0.00     0.075 A 
HETATM   10  C13 UNL     1      28.903  -0.739  53.367  1.00  0.00     0.195 A 
HETATM   11  C15 UNL     1      28.765  -0.429  53.311  1.00  0.00     0.195 A 
HETATM   12  C14 UNL     1      30.097  -0.749  53.798  1.00  0.00     0.269 A 
HETATM   13  N3  UNL     1      29.566   0.642  53.585  1.00  0.00    -0.034 N 
HETATM   14  H19 UNL     1      29.849   1.707  53.593  1.00  0.00     0.282 HD
ENDBRANCH   5   7
ENDBRANCH   2   3
BRANCH   1  15
HETATM   15  C6  UNL     1      23.061   4.592  52.616  1.00  0.00     0.177 C 
BRANCH  15  16
HETATM   16  S1  UNL     1      23.567   5.449  51.109  1.00  0.00    -0.106 SA
HETATM   17  H12 UNL     1      23.417   6.835  51.303  1.00  0.00     0.115 HD
BRANCH  16  18
HETATM   18  N1  UNL     1      24.893   5.002  50.533  1.00  0.00    -0.264 NA
BRANCH  18  19
HETATM   19  C3  UNL     1      25.851   5.588  49.699  1.00  0.00     0.138 C 
BRANCH  19  20
HETATM   20  C2  UNL     1      26.797   4.590  49.130  1.00  0.00     0.025 C 
HETATM   21  C1  UNL     1      26.424   3.175  49.531  1.00  0.00     0.007 C 
ENDBRANCH  19  20
BRANCH  19  22
HETATM   22  C4  UNL     1      25.215   6.519  48.711  1.00  0.00     0.195 C 
BRANCH  22  23
HETATM   23  O1  UNL     1      25.266   7.837  48.985  1.00  0.00    -0.394 OA
HETATM   24  C5  UNL     1      26.138   8.407  49.840  1.00  0.00     0.201 C 
ENDBRANCH  22  23
ENDBRANCH  19  22
ENDBRANCH  18  19
ENDBRANCH  16  18
ENDBRANCH  15  16
ENDBRANCH   1  15
TORSDOF 11
ENDMDL
MODEL 6
REMARK VINA RESULT:      -6.0      3.378      4.291
REMARK  11 active torsions:
REMARK  status: ('A' for Active; 'I' for Inactive)
REMARK    1  A    between atoms: C2_2  and  C3_3 
REMARK    2  A    between atoms: C3_3  and  C4_4 
REMARK    3  A    between atoms: C3_3  and  N1_7 
REMARK    4  A    between atoms: C4_4  and  O1_5 
REMARK    5  A    between atoms: N1_7  and  S1_8 
REMARK    6  A    between atoms: S1_8  and  C6_9 
REMARK    7  A    between atoms: C6_9  and  C7_10 
REMARK    8  A    between atoms: C8_11  and  C9_12 
REMARK       I    between atoms: C9_12  and  N2_14 
REMARK    9  A    between atoms: N2_14  and  C10_15 
REMARK   10  A    between atoms: C14_19  and  C15_20 
REMARK   11  A    between atoms: C15_20  and  N3_21 
ROOT
HETATM    1  C7  UNL     1      24.012   3.459  52.832  1.00  0.00    -0.086 C 
HETATM    2  C8  UNL     1      24.895   2.744  52.918  1.00  0.00    -0.005 C 
ENDROOT
BRANCH   2   3
HETATM    3  C9  UNL     1      25.961   1.853  53.035  1.00  0.00     0.297 C 
HETATM    4  O2  UNL     1      25.987   1.002  52.060  1.00  0.00    -0.258 OA
HETATM    5  N2  UNL     1      27.015   1.550  53.845  1.00  0.00    -0.335 N 
HETATM    6  H15 UNL     1      27.073   2.160  54.620  1.00  0.00     0.164 HD
BRANCH   5   7
HETATM    7  C10 UNL     1      28.014   0.486  53.674  1.00  0.00     0.110 A 
HETATM    8  C11 UNL     1      29.296   1.043  53.906  1.00  0.00     0.035 A 
HETATM    9  C12 UNL     1      29.815  -0.212  53.675  1.00  0.00     0.075 A 
HETATM   10  C13 UNL     1      28.658  -0.994  53.394  1.00  0.00     0.195 A 
HETATM   11  C15 UNL     1      28.334  -0.878  53.393  1.00  0.00     0.195 A 
HETATM   12  C14 UNL     1      28.809  -2.227  53.126  1.00  0.00     0.269 A 
HETATM   13  N3  UNL     1      27.368  -1.796  53.098  1.00  0.00    -0.034 N 
HETATM   14  H19 UNL     1      26.336  -2.169  52.998  1.00  0.00     0.282 HD
ENDBRANCH   5   7
ENDBRANCH   2   3
BRANCH   1  15
HETATM   15  C6  UNL     1      22.869   4.400  52.694  1.00  0.00     0.177 C 
BRANCH  15  16
HETATM   16  S1  UNL     1      23.108   5.099  51.047  1.00  0.00    -0.106 SA
HETATM   17  H12 UNL     1      21.935   5.778  50.668  1.00  0.00     0.115 HD
BRANCH  16  18
HETATM   18  N1  UNL     1      24.403   5.858  50.854  1.00  0.00    -0.264 NA
BRANCH  18  19
HETATM   19  C3  UNL     1      25.474   5.764  49.960  1.00  0.00     0.138 C 
BRANCH  19  20
HETATM   20  C2  UNL     1      25.514   4.453  49.255  1.00  0.00     0.025 C 
HETATM   21  C1  UNL     1      26.706   3.621  49.691  1.00  0.00     0.007 C 
ENDBRANCH  19  20
BRANCH  19  22
HETATM   22  C4  UNL     1      25.559   6.977  49.084  1.00  0.00     0.195 C 
BRANCH  22  23
HETATM   23  O1  UNL     1      26.652   7.754  49.212  1.00  0.00    -0.394 OA
HETATM   24  C5  UNL     1      26.791   8.734  50.126  1.00  0.00     0.201 C 
ENDBRANCH  22  23
ENDBRANCH  19  22
ENDBRANCH  18  19
ENDBRANCH  16  18
ENDBRANCH  15  16
ENDBRANCH   1  15
TORSDOF 11
ENDMDL
MODEL 7
REMARK VINA RESULT:      -6.0      2.378      3.679
REMARK  11 active torsions:
REMARK  status: ('A' for Active; 'I' for Inactive)
REMARK    1  A    between atoms: C2_2  and  C3_3 
REMARK    2  A    between atoms: C3_3  and  C4_4 
REMARK    3  A    between atoms: C3_3  and  N1_7 
REMARK    4  A    between atoms: C4_4  and  O1_5 
REMARK    5  A    between atoms: N1_7  and  S1_8 
REMARK    6  A    between atoms: S1_8  and  C6_9 
REMARK    7  A    between atoms: C6_9  and  C7_10 
REMARK    8  A    between atoms: C8_11  and  C9_12 
REMARK       I    between atoms: C9_12  and  N2_14 
REMARK    9  A    between atoms: N2_14  and  C10_15 
REMARK   10  A    between atoms: C14_19  and  C15_20 
REMARK   11  A    between atoms: C15_20  and  N3_21 
ROOT
HETATM    1  C7  UNL     1      23.709   3.568  52.654  1.00  0.00    -0.086 C 
HETATM    2  C8  UNL     1      24.570   2.826  52.730  1.00  0.00    -0.005 C 
ENDROOT
BRANCH   2   3
HETATM    3  C9  UNL     1      25.619   1.914  52.848  1.00  0.00     0.297 C 
HETATM    4  O2  UNL     1      26.477   2.041  51.888  1.00  0.00    -0.258 OA
HETATM    5  N2  UNL     1      26.067   0.901  53.641  1.00  0.00    -0.335 N 
HETATM    6  H15 UNL     1      25.467   0.738  54.410  1.00  0.00     0.164 HD
BRANCH   5   7
HETATM    7  C10 UNL     1      27.286   0.095  53.483  1.00  0.00     0.110 A 
HETATM    8  C11 UNL     1      26.909  -1.195  53.039  1.00  0.00     0.035 A 
HETATM    9  C12 UNL     1      28.249  -1.515  53.022  1.00  0.00     0.075 A 
HETATM   10  C13 UNL     1      28.873  -0.312  53.464  1.00  0.00     0.195 A 
HETATM   11  C15 UNL     1      28.709  -0.022  53.546  1.00  0.00     0.195 A 
HETATM   12  C14 UNL     1      30.139  -0.288  53.565  1.00  0.00     0.269 A 
HETATM   13  N3  UNL     1      29.498   1.018  53.947  1.00  0.00    -0.034 N 
HETATM   14  H19 UNL     1      29.717   2.060  54.228  1.00  0.00     0.282 HD
ENDBRANCH   5   7
ENDBRANCH   2   3
BRANCH   1  15
HETATM   15  C6  UNL     1      22.580   4.528  52.529  1.00  0.00     0.177 C 
BRANCH  15  16
HETATM   16  S1  UNL     1      21.234   3.499  51.905  1.00  0.00    -0.106 SA
HETATM   17  H12 UNL     1      21.422   3.291  50.527  1.00  0.00     0.115 HD
BRANCH  16  18
HETATM   18  N1  UNL     1      20.939   2.263  52.727  1.00  0.00    -0.264 NA
BRANCH  18  19
HETATM   19  C3  UNL     1      20.821   0.899  52.442  1.00  0.00     0.138 C 
BRANCH  19  20
HETATM   20  C2  UNL     1      22.108   0.296  51.999  1.00  0.00     0.025 C 
HETATM   21  C1  UNL     1      22.757  -0.511  53.108  1.00  0.00     0.007 C 
ENDBRANCH  19  20
BRANCH  19  22
HETATM   22  C4  UNL     1      20.108   0.174  53.544  1.00  0.00     0.195 C 
BRANCH  22  23
HETATM   23  O1  UNL     1      19.031  -0.559  53.203  1.00  0.00    -0.394 OA
HETATM   24  C5  UNL     1      18.311  -0.383  52.077  1.00  0.00     0.201 C 
ENDBRANCH  22  23
ENDBRANCH  19  22
ENDBRANCH  18  19
ENDBRANCH  16  18
ENDBRANCH  15  16
ENDBRANCH   1  15
TORSDOF 11
ENDMDL
MODEL 8
REMARK VINA RESULT:      -6.0      3.620      6.307
REMARK  11 active torsions:
REMARK  status: ('A' for Active; 'I' for Inactive)
REMARK    1  A    between atoms: C2_2  and  C3_3 
REMARK    2  A    between atoms: C3_3  and  C4_4 
REMARK    3  A    between atoms: C3_3  and  N1_7 
REMARK    4  A    between atoms: C4_4  and  O1_5 
REMARK    5  A    between atoms: N1_7  and  S1_8 
REMARK    6  A    between atoms: S1_8  and  C6_9 
REMARK    7  A    between atoms: C6_9  and  C7_10 
REMARK    8  A    between atoms: C8_11  and  C9_12 
REMARK       I    between atoms: C9_12  and  N2_14 
REMARK    9  A    between atoms: N2_14  and  C10_15 
REMARK   10  A    between atoms: C14_19  and  C15_20 
REMARK   11  A    between atoms: C15_20  and  N3_21 
ROOT
HETATM    1  C7  UNL     1      26.711   0.793  51.993  1.00  0.00    -0.086 C 
HETATM    2  C8  UNL     1      26.590   1.754  51.394  1.00  0.00    -0.005 C 
ENDROOT
BRANCH   2   3
HETATM    3  C9  UNL     1      26.437   2.917  50.639  1.00  0.00     0.297 C 
HETATM    4  O2  UNL     1      26.962   2.800  49.462  1.00  0.00    -0.258 OA
HETATM    5  N2  UNL     1      25.917   4.174  50.711  1.00  0.00    -0.335 N 
HETATM    6  H15 UNL     1      25.487   4.349  51.584  1.00  0.00     0.164 HD
BRANCH   5   7
HETATM    7  C10 UNL     1      25.918   5.217  49.675  1.00  0.00     0.110 A 
HETATM    8  C11 UNL     1      24.578   5.451  49.282  1.00  0.00     0.035 A 
HETATM    9  C12 UNL     1      25.062   6.409  48.420  1.00  0.00     0.075 A 
HETATM   10  C13 UNL     1      26.470   6.356  48.634  1.00  0.00     0.195 A 
HETATM   11  C15 UNL     1      26.629   6.148  48.857  1.00  0.00     0.195 A 
HETATM   12  C14 UNL     1      27.216   7.135  47.964  1.00  0.00     0.269 A 
HETATM   13  N3  UNL     1      27.989   6.256  48.909  1.00  0.00    -0.034 N 
HETATM   14  H19 UNL     1      28.996   6.065  49.313  1.00  0.00     0.282 HD
ENDBRANCH   5   7
ENDBRANCH   2   3
BRANCH   1  15
HETATM   15  C6  UNL     1      26.858  -0.449  52.797  1.00  0.00     0.177 C 
BRANCH  15  16
HETATM   16  S1  UNL     1      25.465  -0.364  53.943  1.00  0.00    -0.106 SA
HETATM   17  H12 UNL     1      25.670   0.711  54.827  1.00  0.00     0.115 HD
BRANCH  16  18
HETATM   18  N1  UNL     1      24.098  -0.437  53.296  1.00  0.00    -0.264 NA
BRANCH  18  19
HETATM   19  C3  UNL     1      22.946   0.353  53.341  1.00  0.00     0.138 C 
BRANCH  19  20
HETATM   20  C2  UNL     1      23.156   1.700  52.742  1.00  0.00     0.025 C 
HETATM   21  C1  UNL     1      22.887   1.693  51.248  1.00  0.00     0.007 C 
ENDBRANCH  19  20
BRANCH  19  22
HETATM   22  C4  UNL     1      21.750  -0.401  52.844  1.00  0.00     0.195 C 
BRANCH  22  23
HETATM   23  O1  UNL     1      20.553  -0.073  53.367  1.00  0.00    -0.394 OA
HETATM   24  C5  UNL     1      19.381  -0.152  52.706  1.00  0.00     0.201 C 
ENDBRANCH  22  23
ENDBRANCH  19  22
ENDBRANCH  18  19
ENDBRANCH  16  18
ENDBRANCH  15  16
ENDBRANCH   1  15
TORSDOF 11
ENDMDL
MODEL 9
REMARK VINA RESULT:      -5.6      2.473      7.679
REMARK  11 active torsions:
REMARK  status: ('A' for Active; 'I' for Inactive)
REMARK    1  A    between atoms: C2_2  and  C3_3 
REMARK    2  A    between atoms: C3_3  and  C4_4 
REMARK    3  A    between atoms: C3_3  and  N1_7 
REMARK    4  A    between atoms: C4_4  and  O1_5 
REMARK    5  A    between atoms: N1_7  and  S1_8 
REMARK    6  A    between atoms: S1_8  and  C6_9 
REMARK    7  A    between atoms: C6_9  and  C7_10 
REMARK    8  A    between atoms: C8_11  and  C9_12 
REMARK       I    between atoms: C9_12  and  N2_14 
REMARK    9  A    between atoms: N2_14  and  C10_15 
REMARK   10  A    between atoms: C14_19  and  C15_20 
REMARK   11  A    between atoms: C15_20  and  N3_21 
ROOT
HETATM    1  C7  UNL     1      24.219   2.053  51.298  1.00  0.00    -0.086 C 
HETATM    2  C8  UNL     1      23.173   1.627  51.443  1.00  0.00    -0.005 C 
ENDROOT
BRANCH   2   3
HETATM    3  C9  UNL     1      21.884   1.127  51.632  1.00  0.00     0.297 C 
HETATM    4  O2  UNL     1      21.529   1.168  52.876  1.00  0.00    -0.258 OA
HETATM    5  N2  UNL     1      20.838   0.588  50.944  1.00  0.00    -0.335 N 
HETATM    6  H15 UNL     1      21.025   0.524  49.976  1.00  0.00     0.164 HD
BRANCH   5   7
HETATM    7  C10 UNL     1      19.540   0.142  51.470  1.00  0.00     0.110 A 
HETATM    8  C11 UNL     1      18.536   0.519  50.546  1.00  0.00     0.035 A 
HETATM    9  C12 UNL     1      17.623  -0.076  51.388  1.00  0.00     0.075 A 
HETATM   10  C13 UNL     1      18.434  -0.551  52.460  1.00  0.00     0.195 A 
HETATM   11  C15 UNL     1      18.775  -0.517  52.481  1.00  0.00     0.195 A 
HETATM   12  C14 UNL     1      17.871  -1.156  53.425  1.00  0.00     0.269 A 
HETATM   13  N3  UNL     1      19.361  -1.046  53.594  1.00  0.00    -0.034 N 
HETATM   14  H19 UNL     1      20.203  -1.363  54.230  1.00  0.00     0.282 HD
ENDBRANCH   5   7
ENDBRANCH   2   3
BRANCH   1  15
HETATM   15  C6  UNL     1      25.587   2.595  51.085  1.00  0.00     0.177 C 
BRANCH  15  16
HETATM   16  S1  UNL     1      26.500   1.985  52.518  1.00  0.00    -0.106 SA
HETATM   17  H12 UNL     1      25.727   2.200  53.673  1.00  0.00     0.115 HD
BRANCH  16  18
HETATM   18  N1  UNL     1      27.083   0.597  52.361  1.00  0.00    -0.264 NA
BRANCH  18  19
HETATM   19  C3  UNL     1      27.229  -0.509  53.204  1.00  0.00     0.138 C 
BRANCH  19  20
HETATM   20  C2  UNL     1      28.631  -1.007  53.254  1.00  0.00     0.025 C 
HETATM   21  C1  UNL     1      29.578   0.049  53.795  1.00  0.00     0.007 C 
ENDBRANCH  19  20
BRANCH  19  22
HETATM   22  C4  UNL     1      26.576  -0.271  54.532  1.00  0.00     0.195 C 
BRANCH  22  23
HETATM   23  O1  UNL     1      25.452  -0.962  54.799  1.00  0.00    -0.394 OA
HETATM   24  C5  UNL     1      24.236  -0.670  54.297  1.00  0.00     0.201 C 
ENDBRANCH  22  23
ENDBRANCH  19  22
ENDBRANCH  18  19
ENDBRANCH  16  18
ENDBRANCH  15  16
ENDBRANCH   1  15
TORSDOF 11
ENDMDL
