MODEL 1
REMARK VINA RESULT:      -8.0      0.000      0.000
REMARK  4 active torsions:
REMARK  status: ('A' for Active; 'I' for Inactive)
REMARK    1  A    between atoms: C12_15  and  O2_16 
REMARK    2  A    between atoms: O2_16  and  C13_17 
REMARK    3  A    between atoms: C13_17  and  C14_18 
REMARK    4  A    between atoms: C14_18  and  S1_19 
ROOT
HETATM    1  F1  UNL     1      26.855   0.789  51.054  1.00  0.00    -0.205 F 
HETATM    2  C1  UNL     1      26.046   0.492  52.141  1.00  0.00     0.129 A 
HETATM    3  C2  UNL     1      25.860  -0.668  52.795  1.00  0.00     0.073 A 
HETATM    4  C3  UNL     1      24.908   0.036  53.686  1.00  0.00     0.048 A 
HETATM    5  C4  UNL     1      25.087   1.191  53.042  1.00  0.00     0.031 A 
HETATM    6  C5  UNL     1      24.587   2.598  53.134  1.00  0.00     0.220 C 
HETATM    7  O1  UNL     1      23.490   2.888  52.359  1.00  0.00    -0.344 OA
HETATM    8  C6  UNL     1      23.240   2.845  51.034  1.00  0.00     0.099 A 
HETATM    9  C7  UNL     1      24.209   3.292  50.161  1.00  0.00     0.068 A 
HETATM   10 CL1  UNL     1      25.761   3.920  50.664  1.00  0.00    -0.081 Cl
HETATM   11  C8  UNL     1      23.908   3.229  48.817  1.00  0.00     0.026 A 
HETATM   12  C9  UNL     1      22.751   2.771  48.235  1.00  0.00     0.002 A 
HETATM   13  C10 UNL     1      21.785   2.326  49.104  1.00  0.00     0.013 A 
HETATM   14  C11 UNL     1      22.064   2.380  50.423  1.00  0.00     0.007 A 
HETATM   15  C12 UNL     1      20.963   1.840  51.295  1.00  0.00     0.082 C 
HETATM   16  C15 UNL     1      20.444   1.060  52.269  1.00  0.00     0.168 C 
HETATM   17  C16 UNL     1      21.027   0.079  53.170  1.00  0.00     0.048 A 
HETATM   18  C17 UNL     1      22.209  -0.232  53.802  1.00  0.00     0.078 A 
HETATM   19  C18 UNL     1      22.871  -1.058  54.627  1.00  0.00     0.131 A 
HETATM   20  N1  UNL     1      21.962  -1.949  54.954  1.00  0.00    -0.224 NA
HETATM   21  C19 UNL     1      20.705  -1.887  54.475  1.00  0.00     0.235 A 
HETATM   22  N2  UNL     1      20.253  -0.917  53.618  1.00  0.00    -0.246 NA
HETATM   23  N3  UNL     1      24.205  -0.624  54.769  1.00  0.00    -0.340 N 
HETATM   24  H15 UNL     1      24.438  -0.903  55.724  1.00  0.00     0.167 HD
ENDROOT
BRANCH  15  25
HETATM   25  O2  UNL     1      19.734   2.452  50.966  1.00  0.00    -0.379 OA
BRANCH  25  26
HETATM   26  C13 UNL     1      19.223   3.607  51.541  1.00  0.00     0.178 C 
BRANCH  26  27
HETATM   27  C14 UNL     1      18.091   4.146  50.699  1.00  0.00     0.097 C 
BRANCH  27  28
HETATM   28  S1  UNL     1      16.554   4.070  51.663  1.00  0.00    -0.180 SA
HETATM   29  H11 UNL     1      16.067   5.394  51.863  1.00  0.00     0.101 HD
ENDBRANCH  27  28
ENDBRANCH  26  27
ENDBRANCH  25  26
ENDBRANCH  15  25
TORSDOF 4
ENDMDL
MODEL 2
REMARK VINA RESULT:      -8.0      1.939      2.353
REMARK  4 active torsions:
REMARK  status: ('A' for Active; 'I' for Inactive)
REMARK    1  A    between atoms: C12_15  and  O2_16 
REMARK    2  A    between atoms: O2_16  and  C13_17 
REMARK    3  A    between atoms: C13_17  and  C14_18 
REMARK    4  A    between atoms: C14_18  and  S1_19 
ROOT
HETATM    1  F1  UNL     1      26.798   2.369  49.720  1.00  0.00    -0.205 F 
HETATM    2  C1  UNL     1      26.506   2.054  51.039  1.00  0.00     0.129 A 
HETATM    3  C2  UNL     1      27.079   1.164  51.868  1.00  0.00     0.073 A 
HETATM    4  C3  UNL     1      26.116   1.581  52.914  1.00  0.00     0.048 A 
HETATM    5  C4  UNL     1      25.542   2.468  52.098  1.00  0.00     0.031 A 
HETATM    6  C5  UNL     1      24.429   3.466  52.155  1.00  0.00     0.220 C 
HETATM    7  O1  UNL     1      23.201   3.008  51.742  1.00  0.00    -0.344 OA
HETATM    8  C6  UNL     1      22.732   2.495  50.586  1.00  0.00     0.099 A 
HETATM    9  C7  UNL     1      23.128   3.068  49.397  1.00  0.00     0.068 A 
HETATM   10 CL1  UNL     1      24.211   4.436  49.285  1.00  0.00    -0.081 Cl
HETATM   11  C8  UNL     1      22.622   2.509  48.242  1.00  0.00     0.026 A 
HETATM   12  C9  UNL     1      21.766   1.442  48.129  1.00  0.00     0.002 A 
HETATM   13  C10 UNL     1      21.371   0.870  49.314  1.00  0.00     0.013 A 
HETATM   14  C11 UNL     1      21.857   1.405  50.453  1.00  0.00     0.007 A 
HETATM   15  C12 UNL     1      21.398   0.692  51.697  1.00  0.00     0.082 C 
HETATM   16  C15 UNL     1      21.568   0.065  52.882  1.00  0.00     0.168 C 
HETATM   17  C16 UNL     1      22.746  -0.261  53.671  1.00  0.00     0.048 A 
HETATM   18  C17 UNL     1      24.025   0.178  53.926  1.00  0.00     0.078 A 
HETATM   19  C18 UNL     1      25.173  -0.001  54.597  1.00  0.00     0.131 A 
HETATM   20  N1  UNL     1      24.937  -1.076  55.316  1.00  0.00    -0.224 NA
HETATM   21  C19 UNL     1      23.754  -1.718  55.262  1.00  0.00     0.235 A 
HETATM   22  N2  UNL     1      22.702  -1.331  54.474  1.00  0.00    -0.246 NA
HETATM   23  N3  UNL     1      26.096   1.004  54.244  1.00  0.00    -0.340 N 
HETATM   24  H15 UNL     1      26.636   1.134  55.102  1.00  0.00     0.167 HD
ENDROOT
BRANCH  15  25
HETATM   25  O2  UNL     1      19.992   0.572  51.701  1.00  0.00    -0.379 OA
BRANCH  25  26
HETATM   26  C13 UNL     1      19.245  -0.195  52.584  1.00  0.00     0.178 C 
BRANCH  26  27
HETATM   27  C14 UNL     1      17.905  -0.530  51.972  1.00  0.00     0.097 C 
BRANCH  27  28
HETATM   28  S1  UNL     1      17.747   0.345  50.390  1.00  0.00    -0.180 SA
HETATM   29  H11 UNL     1      17.676   1.746  50.640  1.00  0.00     0.101 HD
ENDBRANCH  27  28
ENDBRANCH  26  27
ENDBRANCH  25  26
ENDBRANCH  15  25
TORSDOF 4
ENDMDL
MODEL 3
REMARK VINA RESULT:      -7.8      3.423      5.359
REMARK  4 active torsions:
REMARK  status: ('A' for Active; 'I' for Inactive)
REMARK    1  A    between atoms: C12_15  and  O2_16 
REMARK    2  A    between atoms: O2_16  and  C13_17 
REMARK    3  A    between atoms: C13_17  and  C14_18 
REMARK    4  A    between atoms: C14_18  and  S1_19 
ROOT
HETATM    1  F1  UNL     1      19.827   1.662  53.423  1.00  0.00    -0.205 F 
HETATM    2  C1  UNL     1      20.960   0.880  53.255  1.00  0.00     0.129 A 
HETATM    3  C2  UNL     1      21.668   0.171  54.151  1.00  0.00     0.073 A 
HETATM    4  C3  UNL     1      22.571  -0.240  53.050  1.00  0.00     0.048 A 
HETATM    5  C4  UNL     1      21.873   0.461  52.154  1.00  0.00     0.031 A 
HETATM    6  C5  UNL     1      21.924   0.741  50.685  1.00  0.00     0.220 C 
HETATM    7  O1  UNL     1      22.615   1.872  50.321  1.00  0.00    -0.344 OA
HETATM    8  C6  UNL     1      22.481   3.184  50.606  1.00  0.00     0.099 A 
HETATM    9  C7  UNL     1      21.217   3.734  50.623  1.00  0.00     0.068 A 
HETATM   10 CL1  UNL     1      19.756   2.832  50.296  1.00  0.00    -0.081 Cl
HETATM   11  C8  UNL     1      21.131   5.078  50.918  1.00  0.00     0.026 A 
HETATM   12  C9  UNL     1      22.158   5.944  51.200  1.00  0.00     0.002 A 
HETATM   13  C10 UNL     1      23.418   5.397  51.183  1.00  0.00     0.013 A 
HETATM   14  C11 UNL     1      23.520   4.083  50.896  1.00  0.00     0.007 A 
HETATM   15  C12 UNL     1      24.933   3.565  50.935  1.00  0.00     0.082 C 
HETATM   16  C15 UNL     1      25.918   2.724  51.318  1.00  0.00     0.168 C 
HETATM   17  C16 UNL     1      25.941   1.551  52.178  1.00  0.00     0.048 A 
HETATM   18  C17 UNL     1      25.140   0.521  52.615  1.00  0.00     0.078 A 
HETATM   19  C18 UNL     1      25.023  -0.585  53.365  1.00  0.00     0.131 A 
HETATM   20  N1  UNL     1      26.214  -0.709  53.906  1.00  0.00    -0.224 NA
HETATM   21  C19 UNL     1      27.202   0.168  53.650  1.00  0.00     0.235 A 
HETATM   22  N2  UNL     1      27.076   1.254  52.823  1.00  0.00    -0.246 NA
HETATM   23  N3  UNL     1      23.717  -1.105  53.250  1.00  0.00    -0.340 N 
HETATM   24  H15 UNL     1      23.860  -2.112  53.350  1.00  0.00     0.167 HD
ENDROOT
BRANCH  15  25
HETATM   25  O2  UNL     1      25.771   4.370  50.133  1.00  0.00    -0.379 OA
BRANCH  25  26
HETATM   26  C13 UNL     1      26.845   3.923  49.378  1.00  0.00     0.178 C 
BRANCH  26  27
HETATM   27  C14 UNL     1      27.490   5.084  48.659  1.00  0.00     0.097 C 
BRANCH  27  28
HETATM   28  S1  UNL     1      26.442   6.553  48.855  1.00  0.00    -0.180 SA
HETATM   29  H11 UNL     1      26.340   7.221  47.600  1.00  0.00     0.101 HD
ENDBRANCH  27  28
ENDBRANCH  26  27
ENDBRANCH  25  26
ENDBRANCH  15  25
TORSDOF 4
ENDMDL
MODEL 4
REMARK VINA RESULT:      -7.8      2.635      4.267
REMARK  4 active torsions:
REMARK  status: ('A' for Active; 'I' for Inactive)
REMARK    1  A    between atoms: C12_15  and  O2_16 
REMARK    2  A    between atoms: O2_16  and  C13_17 
REMARK    3  A    between atoms: C13_17  and  C14_18 
REMARK    4  A    between atoms: C14_18  and  S1_19 
ROOT
HETATM    1  F1  UNL     1      24.274   4.341  48.560  1.00  0.00    -0.205 F 
HETATM    2  C1  UNL     1      25.002   3.891  49.651  1.00  0.00     0.129 A 
HETATM    3  C2  UNL     1      26.245   3.382  49.717  1.00  0.00     0.073 A 
HETATM    4  C3  UNL     1      26.065   3.243  51.182  1.00  0.00     0.048 A 
HETATM    5  C4  UNL     1      24.831   3.748  51.125  1.00  0.00     0.031 A 
HETATM    6  C5  UNL     1      23.719   4.063  52.076  1.00  0.00     0.220 C 
HETATM    7  O1  UNL     1      22.788   3.067  52.249  1.00  0.00    -0.344 OA
HETATM    8  C6  UNL     1      21.946   2.417  51.419  1.00  0.00     0.099 A 
HETATM    9  C7  UNL     1      21.271   3.138  50.458  1.00  0.00     0.068 A 
HETATM   10 CL1  UNL     1      21.435   4.865  50.240  1.00  0.00    -0.081 Cl
HETATM   11  C8  UNL     1      20.422   2.431  49.635  1.00  0.00     0.026 A 
HETATM   12  C9  UNL     1      20.163   1.082  49.654  1.00  0.00     0.002 A 
HETATM   13  C10 UNL     1      20.835   0.362  50.611  1.00  0.00     0.013 A 
HETATM   14  C11 UNL     1      21.670   1.040  51.425  1.00  0.00     0.007 A 
HETATM   15  C12 UNL     1      22.387   0.164  52.418  1.00  0.00     0.082 C 
HETATM   16  C15 UNL     1      23.471  -0.324  53.060  1.00  0.00     0.168 C 
HETATM   17  C16 UNL     1      24.894  -0.043  52.958  1.00  0.00     0.048 A 
HETATM   18  C17 UNL     1      25.771   0.965  52.627  1.00  0.00     0.078 A 
HETATM   19  C18 UNL     1      27.045   1.362  52.496  1.00  0.00     0.131 A 
HETATM   20  N1  UNL     1      27.730   0.294  52.841  1.00  0.00    -0.224 NA
HETATM   21  C19 UNL     1      27.121  -0.847  53.214  1.00  0.00     0.235 A 
HETATM   22  N2  UNL     1      25.761  -1.013  53.270  1.00  0.00    -0.246 NA
HETATM   23  N3  UNL     1      27.087   2.700  52.054  1.00  0.00    -0.340 N 
HETATM   24  H15 UNL     1      27.940   3.060  52.489  1.00  0.00     0.167 HD
ENDROOT
BRANCH  15  25
HETATM   25  O2  UNL     1      21.462  -0.636  53.121  1.00  0.00    -0.379 OA
BRANCH  25  26
HETATM   26  C13 UNL     1      20.318  -0.181  53.762  1.00  0.00     0.178 C 
BRANCH  26  27
HETATM   27  C14 UNL     1      19.249  -1.248  53.731  1.00  0.00     0.097 C 
BRANCH  27  28
HETATM   28  S1  UNL     1      17.940  -0.734  52.584  1.00  0.00    -0.180 SA
HETATM   29  H11 UNL     1      17.629   0.637  52.820  1.00  0.00     0.101 HD
ENDBRANCH  27  28
ENDBRANCH  26  27
ENDBRANCH  25  26
ENDBRANCH  15  25
TORSDOF 4
ENDMDL
MODEL 5
REMARK VINA RESULT:      -7.5      3.426      5.488
REMARK  4 active torsions:
REMARK  status: ('A' for Active; 'I' for Inactive)
REMARK    1  A    between atoms: C12_15  and  O2_16 
REMARK    2  A    between atoms: O2_16  and  C13_17 
REMARK    3  A    between atoms: C13_17  and  C14_18 
REMARK    4  A    between atoms: C14_18  and  S1_19 
ROOT
HETATM    1  F1  UNL     1      19.652   4.466  50.391  1.00  0.00    -0.205 F 
HETATM    2  C1  UNL     1      19.729   3.169  50.877  1.00  0.00     0.129 A 
HETATM    3  C2  UNL     1      19.156   2.611  51.958  1.00  0.00     0.073 A 
HETATM    4  C3  UNL     1      19.816   1.334  51.596  1.00  0.00     0.048 A 
HETATM    5  C4  UNL     1      20.387   1.881  50.520  1.00  0.00     0.031 A 
HETATM    6  C5  UNL     1      21.291   1.450  49.408  1.00  0.00     0.220 C 
HETATM    7  O1  UNL     1      22.634   1.644  49.627  1.00  0.00    -0.344 OA
HETATM    8  C6  UNL     1      23.395   2.729  49.878  1.00  0.00     0.099 A 
HETATM    9  C7  UNL     1      23.152   3.888  49.175  1.00  0.00     0.068 A 
HETATM   10 CL1  UNL     1      21.905   4.049  47.961  1.00  0.00    -0.081 Cl
HETATM   11  C8  UNL     1      23.957   4.969  49.465  1.00  0.00     0.026 A 
HETATM   12  C9  UNL     1      24.980   5.034  50.379  1.00  0.00     0.002 A 
HETATM   13  C10 UNL     1      25.224   3.879  51.081  1.00  0.00     0.013 A 
HETATM   14  C11 UNL     1      24.445   2.812  50.808  1.00  0.00     0.007 A 
HETATM   15  C12 UNL     1      24.761   1.604  51.649  1.00  0.00     0.082 C 
HETATM   16  C15 UNL     1      24.467   0.579  52.479  1.00  0.00     0.168 C 
HETATM   17  C16 UNL     1      23.227   0.116  53.081  1.00  0.00     0.048 A 
HETATM   18  C17 UNL     1      21.869   0.088  52.861  1.00  0.00     0.078 A 
HETATM   19  C18 UNL     1      20.657  -0.288  53.296  1.00  0.00     0.131 A 
HETATM   20  N1  UNL     1      20.919  -0.891  54.434  1.00  0.00    -0.224 NA
HETATM   21  C19 UNL     1      22.177  -1.010  54.898  1.00  0.00     0.235 A 
HETATM   22  N2  UNL     1      23.287  -0.528  54.253  1.00  0.00    -0.246 NA
HETATM   23  N3  UNL     1      19.670   0.121  52.376  1.00  0.00    -0.340 N 
HETATM   24  H15 UNL     1      18.959  -0.609  52.460  1.00  0.00     0.167 HD
ENDROOT
BRANCH  15  25
HETATM   25  O2  UNL     1      26.141   1.310  51.583  1.00  0.00    -0.379 OA
BRANCH  25  26
HETATM   26  C13 UNL     1      26.905   0.768  52.607  1.00  0.00     0.178 C 
BRANCH  26  27
HETATM   27  C14 UNL     1      27.865   1.805  53.140  1.00  0.00     0.097 C 
BRANCH  27  28
HETATM   28  S1  UNL     1      29.077   0.986  54.214  1.00  0.00    -0.180 SA
HETATM   29  H11 UNL     1      29.544   1.921  55.183  1.00  0.00     0.101 HD
ENDBRANCH  27  28
ENDBRANCH  26  27
ENDBRANCH  25  26
ENDBRANCH  15  25
TORSDOF 4
ENDMDL
MODEL 6
REMARK VINA RESULT:      -7.3     10.045     12.427
REMARK  4 active torsions:
REMARK  status: ('A' for Active; 'I' for Inactive)
REMARK    1  A    between atoms: C12_15  and  O2_16 
REMARK    2  A    between atoms: O2_16  and  C13_17 
REMARK    3  A    between atoms: C13_17  and  C14_18 
REMARK    4  A    between atoms: C14_18  and  S1_19 
ROOT
HETATM    1  F1  UNL     1      31.229  11.494  48.752  1.00  0.00    -0.205 F 
HETATM    2  C1  UNL     1      30.198  10.653  48.359  1.00  0.00     0.129 A 
HETATM    3  C2  UNL     1      29.008  10.408  48.935  1.00  0.00     0.073 A 
HETATM    4  C3  UNL     1      28.713   9.468  47.828  1.00  0.00     0.048 A 
HETATM    5  C4  UNL     1      29.892   9.706  47.249  1.00  0.00     0.031 A 
HETATM    6  C5  UNL     1      30.636   9.261  46.030  1.00  0.00     0.220 C 
HETATM    7  O1  UNL     1      31.480   8.191  46.209  1.00  0.00    -0.344 OA
HETATM    8  C6  UNL     1      32.554   7.966  46.994  1.00  0.00     0.099 A 
HETATM    9  C7  UNL     1      33.488   8.967  47.146  1.00  0.00     0.068 A 
HETATM   10 CL1  UNL     1      33.372  10.534  46.378  1.00  0.00    -0.081 Cl
HETATM   11  C8  UNL     1      34.567   8.690  47.957  1.00  0.00     0.026 A 
HETATM   12  C9  UNL     1      34.830   7.528  48.639  1.00  0.00     0.002 A 
HETATM   13  C10 UNL     1      33.900   6.528  48.488  1.00  0.00     0.013 A 
HETATM   14  C11 UNL     1      32.837   6.783  47.698  1.00  0.00     0.007 A 
HETATM   15  C12 UNL     1      31.855   5.645  47.620  1.00  0.00     0.082 C 
HETATM   16  C15 UNL     1      30.632   5.076  47.694  1.00  0.00     0.168 C 
HETATM   17  C16 UNL     1      29.311   5.602  48.000  1.00  0.00     0.048 A 
HETATM   18  C17 UNL     1      28.569   6.759  47.922  1.00  0.00     0.078 A 
HETATM   19  C18 UNL     1      27.396   7.371  48.145  1.00  0.00     0.131 A 
HETATM   20  N1  UNL     1      26.655   6.421  48.670  1.00  0.00    -0.224 NA
HETATM   21  C19 UNL     1      27.133   5.177  48.864  1.00  0.00     0.235 A 
HETATM   22  N2  UNL     1      28.406   4.781  48.545  1.00  0.00    -0.246 NA
HETATM   23  N3  UNL     1      27.475   8.719  47.737  1.00  0.00    -0.340 N 
HETATM   24  H15 UNL     1      26.522   8.922  47.427  1.00  0.00     0.167 HD
ENDROOT
BRANCH  15  25
HETATM   25  O2  UNL     1      32.521   4.448  47.278  1.00  0.00    -0.379 OA
BRANCH  25  26
HETATM   26  C13 UNL     1      32.380   3.754  46.085  1.00  0.00     0.178 C 
BRANCH  26  27
HETATM   27  C14 UNL     1      33.258   4.370  45.021  1.00  0.00     0.097 C 
BRANCH  27  28
HETATM   28  S1  UNL     1      34.989   3.948  45.370  1.00  0.00    -0.180 SA
HETATM   29  H11 UNL     1      35.027   2.976  46.412  1.00  0.00     0.101 HD
ENDBRANCH  27  28
ENDBRANCH  26  27
ENDBRANCH  25  26
ENDBRANCH  15  25
TORSDOF 4
ENDMDL
MODEL 7
REMARK VINA RESULT:      -7.2      2.672      4.354
REMARK  4 active torsions:
REMARK  status: ('A' for Active; 'I' for Inactive)
REMARK    1  A    between atoms: C12_15  and  O2_16 
REMARK    2  A    between atoms: O2_16  and  C13_17 
REMARK    3  A    between atoms: C13_17  and  C14_18 
REMARK    4  A    between atoms: C14_18  and  S1_19 
ROOT
HETATM    1  F1  UNL     1      22.616   4.520  48.789  1.00  0.00    -0.205 F 
HETATM    2  C1  UNL     1      23.238   4.100  49.955  1.00  0.00     0.129 A 
HETATM    3  C2  UNL     1      24.462   3.576  50.147  1.00  0.00     0.073 A 
HETATM    4  C3  UNL     1      24.153   3.493  51.594  1.00  0.00     0.048 A 
HETATM    5  C4  UNL     1      22.937   4.013  51.412  1.00  0.00     0.031 A 
HETATM    6  C5  UNL     1      21.752   4.377  52.250  1.00  0.00     0.220 C 
HETATM    7  O1  UNL     1      20.793   3.401  52.375  1.00  0.00    -0.344 OA
HETATM    8  C6  UNL     1      20.015   2.734  51.498  1.00  0.00     0.099 A 
HETATM    9  C7  UNL     1      19.439   3.429  50.458  1.00  0.00     0.068 A 
HETATM   10 CL1  UNL     1      19.651   5.145  50.195  1.00  0.00    -0.081 Cl
HETATM   11  C8  UNL     1      18.652   2.704  49.588  1.00  0.00     0.026 A 
HETATM   12  C9  UNL     1      18.370   1.361  49.631  1.00  0.00     0.002 A 
HETATM   13  C10 UNL     1      18.943   0.667  50.668  1.00  0.00     0.013 A 
HETATM   14  C11 UNL     1      19.716   1.361  51.528  1.00  0.00     0.007 A 
HETATM   15  C12 UNL     1      20.329   0.512  52.609  1.00  0.00     0.082 C 
HETATM   16  C15 UNL     1      21.344   0.032  53.360  1.00  0.00     0.168 C 
HETATM   17  C16 UNL     1      22.776   0.289  53.374  1.00  0.00     0.048 A 
HETATM   18  C17 UNL     1      23.695   1.272  53.086  1.00  0.00     0.078 A 
HETATM   19  C18 UNL     1      24.983   1.646  53.053  1.00  0.00     0.131 A 
HETATM   20  N1  UNL     1      25.617   0.582  53.494  1.00  0.00    -0.224 NA
HETATM   21  C19 UNL     1      24.957  -0.537  53.851  1.00  0.00     0.235 A 
HETATM   22  N2  UNL     1      23.596  -0.682  53.794  1.00  0.00    -0.246 NA
HETATM   23  N3  UNL     1      25.086   2.967  52.571  1.00  0.00    -0.340 N 
HETATM   24  H15 UNL     1      25.903   3.330  53.066  1.00  0.00     0.167 HD
ENDROOT
BRANCH  15  25
HETATM   25  O2  UNL     1      19.332  -0.250  53.256  1.00  0.00    -0.379 OA
BRANCH  25  26
HETATM   26  C13 UNL     1      19.495  -1.527  53.774  1.00  0.00     0.178 C 
BRANCH  26  27
HETATM   27  C14 UNL     1      18.201  -2.297  53.664  1.00  0.00     0.097 C 
BRANCH  27  28
HETATM   28  S1  UNL     1      16.926  -1.209  52.969  1.00  0.00    -0.180 SA
HETATM   29  H11 UNL     1      15.651  -1.822  53.137  1.00  0.00     0.101 HD
ENDBRANCH  27  28
ENDBRANCH  26  27
ENDBRANCH  25  26
ENDBRANCH  15  25
TORSDOF 4
ENDMDL
MODEL 8
REMARK VINA RESULT:      -7.0      8.806     10.956
REMARK  4 active torsions:
REMARK  status: ('A' for Active; 'I' for Inactive)
REMARK    1  A    between atoms: C12_15  and  O2_16 
REMARK    2  A    between atoms: O2_16  and  C13_17 
REMARK    3  A    between atoms: C13_17  and  C14_18 
REMARK    4  A    between atoms: C14_18  and  S1_19 
ROOT
HETATM    1  F1  UNL     1      30.937  11.699  46.667  1.00  0.00    -0.205 F 
HETATM    2  C1  UNL     1      31.516  10.586  47.256  1.00  0.00     0.129 A 
HETATM    3  C2  UNL     1      32.575   9.850  46.873  1.00  0.00     0.073 A 
HETATM    4  C3  UNL     1      32.364   9.000  48.068  1.00  0.00     0.048 A 
HETATM    5  C4  UNL     1      31.313   9.725  48.456  1.00  0.00     0.031 A 
HETATM    6  C5  UNL     1      30.329   9.731  49.583  1.00  0.00     0.220 C 
HETATM    7  O1  UNL     1      29.162   9.042  49.354  1.00  0.00    -0.344 OA
HETATM    8  C6  UNL     1      28.176   9.145  48.441  1.00  0.00     0.099 A 
HETATM    9  C7  UNL     1      27.721  10.398  48.093  1.00  0.00     0.068 A 
HETATM   10 CL1  UNL     1      28.347  11.885  48.768  1.00  0.00    -0.081 Cl
HETATM   11  C8  UNL     1      26.712  10.454  47.156  1.00  0.00     0.026 A 
HETATM   12  C9  UNL     1      26.097   9.404  46.520  1.00  0.00     0.002 A 
HETATM   13  C10 UNL     1      26.549   8.153  46.865  1.00  0.00     0.013 A 
HETATM   14  C11 UNL     1      27.537   8.082  47.781  1.00  0.00     0.007 A 
HETATM   15  C12 UNL     1      27.991   6.676  48.070  1.00  0.00     0.082 C 
HETATM   16  C15 UNL     1      28.901   5.688  48.208  1.00  0.00     0.168 C 
HETATM   17  C16 UNL     1      30.348   5.645  48.060  1.00  0.00     0.048 A 
HETATM   18  C17 UNL     1      31.465   6.442  48.170  1.00  0.00     0.078 A 
HETATM   19  C18 UNL     1      32.799   6.543  48.077  1.00  0.00     0.131 A 
HETATM   20  N1  UNL     1      33.169   5.332  47.725  1.00  0.00    -0.224 NA
HETATM   21  C19 UNL     1      32.273   4.343  47.545  1.00  0.00     0.235 A 
HETATM   22  N2  UNL     1      30.920   4.489  47.704  1.00  0.00    -0.246 NA
HETATM   23  N3  UNL     1      33.202   7.859  48.382  1.00  0.00    -0.340 N 
HETATM   24  H15 UNL     1      34.120   7.726  48.811  1.00  0.00     0.167 HD
ENDROOT
BRANCH  15  25
HETATM   25  O2  UNL     1      26.883   5.861  48.390  1.00  0.00    -0.379 OA
BRANCH  25  26
HETATM   26  C13 UNL     1      26.063   6.007  49.500  1.00  0.00     0.178 C 
BRANCH  26  27
HETATM   27  C14 UNL     1      25.262   4.745  49.719  1.00  0.00     0.097 C 
BRANCH  27  28
HETATM   28  S1  UNL     1      26.406   3.350  49.920  1.00  0.00    -0.180 SA
HETATM   29  H11 UNL     1      27.550   3.790  50.647  1.00  0.00     0.101 HD
ENDBRANCH  27  28
ENDBRANCH  26  27
ENDBRANCH  25  26
ENDBRANCH  15  25
TORSDOF 4
ENDMDL
MODEL 9
REMARK VINA RESULT:      -6.9      5.610      8.345
REMARK  4 active torsions:
REMARK  status: ('A' for Active; 'I' for Inactive)
REMARK    1  A    between atoms: C12_15  and  O2_16 
REMARK    2  A    between atoms: O2_16  and  C13_17 
REMARK    3  A    between atoms: C13_17  and  C14_18 
REMARK    4  A    between atoms: C14_18  and  S1_19 
ROOT
HETATM    1  F1  UNL     1      22.272   7.558  45.939  1.00  0.00    -0.205 F 
HETATM    2  C1  UNL     1      23.520   7.797  46.494  1.00  0.00     0.129 A 
HETATM    3  C2  UNL     1      24.687   8.118  45.906  1.00  0.00     0.073 A 
HETATM    4  C3  UNL     1      25.309   8.142  47.250  1.00  0.00     0.048 A 
HETATM    5  C4  UNL     1      24.156   7.825  47.842  1.00  0.00     0.031 A 
HETATM    6  C5  UNL     1      23.653   7.590  49.231  1.00  0.00     0.220 C 
HETATM    7  O1  UNL     1      23.679   6.285  49.659  1.00  0.00    -0.344 OA
HETATM    8  C6  UNL     1      23.111   5.143  49.219  1.00  0.00     0.099 A 
HETATM    9  C7  UNL     1      21.800   5.173  48.795  1.00  0.00     0.068 A 
HETATM   10 CL1  UNL     1      20.810   6.614  48.790  1.00  0.00    -0.081 Cl
HETATM   11  C8  UNL     1      21.264   3.982  48.356  1.00  0.00     0.026 A 
HETATM   12  C9  UNL     1      21.880   2.757  48.287  1.00  0.00     0.002 A 
HETATM   13  C10 UNL     1      23.186   2.725  48.709  1.00  0.00     0.013 A 
HETATM   14  C11 UNL     1      23.727   3.882  49.142  1.00  0.00     0.007 A 
HETATM   15  C12 UNL     1      25.170   3.758  49.551  1.00  0.00     0.082 C 
HETATM   16  C15 UNL     1      26.478   4.098  49.544  1.00  0.00     0.168 C 
HETATM   17  C16 UNL     1      27.231   5.127  48.846  1.00  0.00     0.048 A 
HETATM   18  C17 UNL     1      27.089   6.386  48.307  1.00  0.00     0.078 A 
HETATM   19  C18 UNL     1      27.661   7.418  47.668  1.00  0.00     0.131 A 
HETATM   20  N1  UNL     1      28.900   7.015  47.496  1.00  0.00    -0.224 NA
HETATM   21  C19 UNL     1      29.320   5.811  47.929  1.00  0.00     0.235 A 
HETATM   22  N2  UNL     1      28.522   4.903  48.576  1.00  0.00    -0.246 NA
HETATM   23  N3  UNL     1      26.712   8.441  47.465  1.00  0.00    -0.340 N 
HETATM   24  H15 UNL     1      27.277   9.291  47.510  1.00  0.00     0.167 HD
ENDROOT
BRANCH  15  25
HETATM   25  O2  UNL     1      25.328   2.699  50.470  1.00  0.00    -0.379 OA
BRANCH  25  26
HETATM   26  C13 UNL     1      26.396   2.532  51.340  1.00  0.00     0.178 C 
BRANCH  26  27
HETATM   27  C14 UNL     1      26.075   1.458  52.353  1.00  0.00     0.097 C 
BRANCH  27  28
HETATM   28  S1  UNL     1      24.294   1.111  52.296  1.00  0.00    -0.180 SA
HETATM   29  H11 UNL     1      23.944   0.696  50.979  1.00  0.00     0.101 HD
ENDBRANCH  27  28
ENDBRANCH  26  27
ENDBRANCH  25  26
ENDBRANCH  15  25
TORSDOF 4
ENDMDL
