MODEL 1
REMARK VINA RESULT:      -8.6      0.000      0.000
REMARK  5 active torsions:
REMARK  status: ('A' for Active; 'I' for Inactive)
REMARK    1  A    between atoms: C5_5  and  N1_6 
REMARK    2  A    between atoms: N1_6  and  C6_7 
REMARK    3  A    between atoms: C10_14  and  C11_15 
REMARK    4  A    between atoms: C11_15  and  N5_16 
REMARK    5  A    between atoms: C14_19  and  N6_20 
ROOT
HETATM    1  C6  UNL     1      23.572  -0.226  53.470  1.00  0.00     0.159 A 
HETATM    2  N2  UNL     1      23.793  -0.889  54.608  1.00  0.00    -0.220 NA
HETATM    3  C7  UNL     1      22.813  -1.405  55.352  1.00  0.00     0.258 A 
HETATM    4  N3  UNL     1      21.521  -1.264  54.957  1.00  0.00    -0.161 NA
HETATM    5  N4  UNL     1      21.289  -0.600  53.818  1.00  0.00    -0.240 N 
HETATM    6  C8  UNL     1      20.083  -0.364  53.277  1.00  0.00     0.119 A 
HETATM    7  C9  UNL     1      20.318   0.346  52.119  1.00  0.00     0.030 A 
HETATM    8  C10 UNL     1      21.701   0.526  51.986  1.00  0.00    -0.007 A 
HETATM    9  C17 UNL     1      22.267  -0.085  53.075  1.00  0.00     0.112 A 
ENDROOT
BRANCH   8  10
HETATM   10  C11 UNL     1      22.300   1.255  50.849  1.00  0.00     0.158 C 
BRANCH  10  11
HETATM   11  N5  UNL     1      22.225   2.684  50.960  1.00  0.00    -0.408 N 
HETATM   12  C12 UNL     1      22.310   3.407  49.750  1.00  0.00     0.119 C 
HETATM   13  C13 UNL     1      23.710   3.882  49.422  1.00  0.00     0.055 C 
HETATM   14  C14 UNL     1      24.504   4.104  50.698  1.00  0.00     0.221 C 
HETATM   15  C15 UNL     1      23.602   4.431  51.854  1.00  0.00     0.055 C 
HETATM   16  C16 UNL     1      22.735   3.233  52.142  1.00  0.00     0.119 C 
BRANCH  14  17
HETATM   17  N6  UNL     1      25.506   5.123  50.583  1.00  0.00     0.083 N 
HETATM   18  H17 UNL     1      25.875   5.482  51.476  1.00  0.00     0.313 HD
HETATM   19  H18 UNL     1      25.237   5.877  49.899  1.00  0.00     0.313 HD
ENDBRANCH  14  17
ENDBRANCH  10  11
ENDBRANCH   8  10
BRANCH   1  20
HETATM   20  N1  UNL     1      24.663   0.291  52.733  1.00  0.00    -0.339 N 
HETATM   21  H6  UNL     1      24.779   0.915  51.924  1.00  0.00     0.167 HD
BRANCH  20  22
HETATM   22  C5  UNL     1      26.015  -0.029  53.049  1.00  0.00     0.033 A 
HETATM   23  C4  UNL     1      26.579  -1.196  52.547  1.00  0.00     0.030 A 
HETATM   24  C3  UNL     1      27.896  -1.556  52.799  1.00  0.00     0.009 A 
HETATM   25  C2  UNL     1      28.719  -0.771  53.565  1.00  0.00    -0.062 A 
HETATM   26  C1  UNL     1      30.121  -1.115  53.854  1.00  0.00     0.048 C 
HETATM   27  C19 UNL     1      28.206   0.395  54.085  1.00  0.00     0.009 A 
HETATM   28  C18 UNL     1      26.911   0.705  53.811  1.00  0.00     0.030 A 
ENDBRANCH  20  22
ENDBRANCH   1  20
TORSDOF 5
ENDMDL
MODEL 2
REMARK VINA RESULT:      -8.5      2.381      6.014
REMARK  5 active torsions:
REMARK  status: ('A' for Active; 'I' for Inactive)
REMARK    1  A    between atoms: C5_5  and  N1_6 
REMARK    2  A    between atoms: N1_6  and  C6_7 
REMARK    3  A    between atoms: C10_14  and  C11_15 
REMARK    4  A    between atoms: C11_15  and  N5_16 
REMARK    5  A    between atoms: C14_19  and  N6_20 
ROOT
HETATM    1  C6  UNL     1      23.697   2.607  50.110  1.00  0.00     0.159 A 
HETATM    2  N2  UNL     1      23.269   3.004  48.909  1.00  0.00    -0.220 NA
HETATM    3  C7  UNL     1      22.158   2.535  48.339  1.00  0.00     0.258 A 
HETATM    4  N3  UNL     1      21.407   1.608  48.989  1.00  0.00    -0.161 NA
HETATM    5  N4  UNL     1      21.827   1.203  50.194  1.00  0.00    -0.240 N 
HETATM    6  C8  UNL     1      21.216   0.299  50.977  1.00  0.00     0.119 A 
HETATM    7  C9  UNL     1      21.992   0.192  52.111  1.00  0.00     0.030 A 
HETATM    8  C10 UNL     1      23.085   1.060  51.980  1.00  0.00    -0.007 A 
HETATM    9  C17 UNL     1      22.936   1.672  50.762  1.00  0.00     0.112 A 
ENDROOT
BRANCH   8  10
HETATM   10  C11 UNL     1      24.123   1.190  53.024  1.00  0.00     0.158 C 
BRANCH  10  11
HETATM   11  N5  UNL     1      25.044   0.091  53.078  1.00  0.00    -0.408 N 
HETATM   12  C12 UNL     1      25.173  -0.551  54.329  1.00  0.00     0.119 C 
HETATM   13  C13 UNL     1      26.325  -0.032  55.164  1.00  0.00     0.055 C 
HETATM   14  C14 UNL     1      27.434   0.490  54.267  1.00  0.00     0.221 C 
HETATM   15  C15 UNL     1      27.421  -0.191  52.927  1.00  0.00     0.055 C 
HETATM   16  C16 UNL     1      26.143   0.172  52.216  1.00  0.00     0.119 C 
BRANCH  14  17
HETATM   17  N6  UNL     1      28.742   0.371  54.840  1.00  0.00     0.083 N 
HETATM   18  H17 UNL     1      28.987  -0.566  55.192  1.00  0.00     0.313 HD
HETATM   19  H18 UNL     1      28.958   1.150  55.515  1.00  0.00     0.313 HD
ENDBRANCH  14  17
ENDBRANCH  10  11
ENDBRANCH   8  10
BRANCH   1  20
HETATM   20  N1  UNL     1      24.885   3.152  50.650  1.00  0.00    -0.339 N 
HETATM   21  H6  UNL     1      25.435   3.019  51.510  1.00  0.00     0.167 HD
BRANCH  20  22
HETATM   22  C5  UNL     1      25.642   4.151  49.973  1.00  0.00     0.033 A 
HETATM   23  C4  UNL     1      26.840   3.805  49.360  1.00  0.00     0.030 A 
HETATM   24  C3  UNL     1      27.615   4.724  48.666  1.00  0.00     0.009 A 
HETATM   25  C2  UNL     1      27.235   6.037  48.548  1.00  0.00    -0.062 A 
HETATM   26  C1  UNL     1      28.026   7.043  47.819  1.00  0.00     0.048 C 
HETATM   27  C19 UNL     1      26.055   6.428  49.139  1.00  0.00     0.009 A 
HETATM   28  C18 UNL     1      25.331   5.492  49.807  1.00  0.00     0.030 A 
ENDBRANCH  20  22
ENDBRANCH   1  20
TORSDOF 5
ENDMDL
MODEL 3
REMARK VINA RESULT:      -8.2      1.840      6.256
REMARK  5 active torsions:
REMARK  status: ('A' for Active; 'I' for Inactive)
REMARK    1  A    between atoms: C5_5  and  N1_6 
REMARK    2  A    between atoms: N1_6  and  C6_7 
REMARK    3  A    between atoms: C10_14  and  C11_15 
REMARK    4  A    between atoms: C11_15  and  N5_16 
REMARK    5  A    between atoms: C14_19  and  N6_20 
ROOT
HETATM    1  C6  UNL     1      26.654   1.959  53.498  1.00  0.00     0.159 A 
HETATM    2  N2  UNL     1      27.790   2.538  53.893  1.00  0.00    -0.220 NA
HETATM    3  C7  UNL     1      28.938   1.871  54.030  1.00  0.00     0.258 A 
HETATM    4  N3  UNL     1      28.980   0.540  53.763  1.00  0.00    -0.161 NA
HETATM    5  N4  UNL     1      27.846  -0.050  53.367  1.00  0.00    -0.240 N 
HETATM    6  C8  UNL     1      27.700  -1.350  53.062  1.00  0.00     0.119 A 
HETATM    7  C9  UNL     1      26.377  -1.512  52.711  1.00  0.00     0.030 A 
HETATM    8  C10 UNL     1      25.738  -0.269  52.816  1.00  0.00    -0.007 A 
HETATM    9  C17 UNL     1      26.701   0.615  53.230  1.00  0.00     0.112 A 
ENDROOT
BRANCH   8  10
HETATM   10  C11 UNL     1      24.303  -0.088  52.514  1.00  0.00     0.158 C 
BRANCH  10  11
HETATM   11  N5  UNL     1      23.483   0.146  53.668  1.00  0.00    -0.408 N 
HETATM   12  C12 UNL     1      23.458  -0.885  54.633  1.00  0.00     0.119 C 
HETATM   13  C13 UNL     1      22.298  -1.844  54.468  1.00  0.00     0.055 C 
HETATM   14  C14 UNL     1      21.115  -1.137  53.830  1.00  0.00     0.221 C 
HETATM   15  C15 UNL     1      21.136   0.338  54.121  1.00  0.00     0.055 C 
HETATM   16  C16 UNL     1      22.349   0.940  53.462  1.00  0.00     0.119 C 
BRANCH  14  17
HETATM   17  N6  UNL     1      19.844  -1.672  54.221  1.00  0.00     0.083 N 
HETATM   18  H17 UNL     1      19.155  -1.774  53.461  1.00  0.00     0.313 HD
HETATM   19  H18 UNL     1      19.460  -1.209  55.084  1.00  0.00     0.313 HD
ENDBRANCH  14  17
ENDBRANCH  10  11
ENDBRANCH   8  10
BRANCH   1  20
HETATM   20  N1  UNL     1      25.476   2.732  53.374  1.00  0.00    -0.339 N 
HETATM   21  H6  UNL     1      24.750   3.082  54.014  1.00  0.00     0.167 HD
BRANCH  20  22
HETATM   22  C5  UNL     1      25.025   3.236  52.120  1.00  0.00     0.033 A 
HETATM   23  C4  UNL     1      23.842   3.962  52.058  1.00  0.00     0.030 A 
HETATM   24  C3  UNL     1      23.357   4.499  50.872  1.00  0.00     0.009 A 
HETATM   25  C2  UNL     1      24.028   4.338  49.687  1.00  0.00    -0.062 A 
HETATM   26  C1  UNL     1      23.551   4.892  48.409  1.00  0.00     0.048 C 
HETATM   27  C19 UNL     1      25.205   3.625  49.697  1.00  0.00     0.009 A 
HETATM   28  C18 UNL     1      25.639   3.119  50.882  1.00  0.00     0.030 A 
ENDBRANCH  20  22
ENDBRANCH   1  20
TORSDOF 5
ENDMDL
MODEL 4
REMARK VINA RESULT:      -8.1      1.445      4.967
REMARK  5 active torsions:
REMARK  status: ('A' for Active; 'I' for Inactive)
REMARK    1  A    between atoms: C5_5  and  N1_6 
REMARK    2  A    between atoms: N1_6  and  C6_7 
REMARK    3  A    between atoms: C10_14  and  C11_15 
REMARK    4  A    between atoms: C11_15  and  N5_16 
REMARK    5  A    between atoms: C14_19  and  N6_20 
ROOT
HETATM    1  C6  UNL     1      25.636   2.687  51.430  1.00  0.00     0.159 A 
HETATM    2  N2  UNL     1      26.749   3.022  50.771  1.00  0.00    -0.220 NA
HETATM    3  C7  UNL     1      26.740   3.726  49.638  1.00  0.00     0.258 A 
HETATM    4  N3  UNL     1      25.559   4.135  49.107  1.00  0.00    -0.161 NA
HETATM    5  N4  UNL     1      24.438   3.804  49.759  1.00  0.00    -0.240 N 
HETATM    6  C8  UNL     1      23.187   4.120  49.385  1.00  0.00     0.119 A 
HETATM    7  C9  UNL     1      22.355   3.580  50.342  1.00  0.00     0.030 A 
HETATM    8  C10 UNL     1      23.148   2.932  51.299  1.00  0.00    -0.007 A 
HETATM    9  C17 UNL     1      24.446   3.102  50.891  1.00  0.00     0.112 A 
ENDROOT
BRANCH   8  10
HETATM   10  C11 UNL     1      22.570   2.238  52.469  1.00  0.00     0.158 C 
BRANCH  10  11
HETATM   11  N5  UNL     1      22.369   0.831  52.279  1.00  0.00    -0.408 N 
HETATM   12  C12 UNL     1      21.349   0.465  51.373  1.00  0.00     0.119 C 
HETATM   13  C13 UNL     1      20.018   0.183  52.038  1.00  0.00     0.055 C 
HETATM   14  C14 UNL     1      20.231  -0.322  53.454  1.00  0.00     0.221 C 
HETATM   15  C15 UNL     1      21.563  -1.002  53.598  1.00  0.00     0.055 C 
HETATM   16  C16 UNL     1      22.650   0.018  53.383  1.00  0.00     0.119 C 
BRANCH  14  17
HETATM   17  N6  UNL     1      19.201  -1.208  53.911  1.00  0.00     0.083 N 
HETATM   18  H17 UNL     1      18.388  -0.751  54.349  1.00  0.00     0.313 HD
HETATM   19  H18 UNL     1      19.583  -2.018  54.465  1.00  0.00     0.313 HD
ENDBRANCH  14  17
ENDBRANCH  10  11
ENDBRANCH   8  10
BRANCH   1  20
HETATM   20  N1  UNL     1      25.725   1.940  52.628  1.00  0.00    -0.339 N 
HETATM   21  H6  UNL     1      25.147   1.827  53.472  1.00  0.00     0.167 HD
BRANCH  20  22
HETATM   22  C5  UNL     1      26.821   1.075  52.907  1.00  0.00     0.033 A 
HETATM   23  C4  UNL     1      27.946   1.578  53.549  1.00  0.00     0.030 A 
HETATM   24  C3  UNL     1      29.040   0.785  53.869  1.00  0.00     0.009 A 
HETATM   25  C2  UNL     1      29.068  -0.552  53.564  1.00  0.00    -0.062 A 
HETATM   26  C1  UNL     1      30.207  -1.428  53.887  1.00  0.00     0.048 C 
HETATM   27  C19 UNL     1      27.978  -1.096  52.926  1.00  0.00     0.009 A 
HETATM   28  C18 UNL     1      26.930  -0.280  52.634  1.00  0.00     0.030 A 
ENDBRANCH  20  22
ENDBRANCH   1  20
TORSDOF 5
ENDMDL
MODEL 5
REMARK VINA RESULT:      -8.0      2.313      5.697
REMARK  5 active torsions:
REMARK  status: ('A' for Active; 'I' for Inactive)
REMARK    1  A    between atoms: C5_5  and  N1_6 
REMARK    2  A    between atoms: N1_6  and  C6_7 
REMARK    3  A    between atoms: C10_14  and  C11_15 
REMARK    4  A    between atoms: C11_15  and  N5_16 
REMARK    5  A    between atoms: C14_19  and  N6_20 
ROOT
HETATM    1  C6  UNL     1      26.829   1.883  52.191  1.00  0.00     0.159 A 
HETATM    2  N2  UNL     1      27.989   2.505  52.417  1.00  0.00    -0.220 NA
HETATM    3  C7  UNL     1      28.692   2.350  53.540  1.00  0.00     0.258 A 
HETATM    4  N3  UNL     1      28.230   1.527  54.516  1.00  0.00    -0.161 NA
HETATM    5  N4  UNL     1      27.068   0.899  54.300  1.00  0.00    -0.240 N 
HETATM    6  C8  UNL     1      26.460   0.053  55.149  1.00  0.00     0.119 A 
HETATM    7  C9  UNL     1      25.301  -0.350  54.520  1.00  0.00     0.030 A 
HETATM    8  C10 UNL     1      25.236   0.282  53.271  1.00  0.00    -0.007 A 
HETATM    9  C17 UNL     1      26.366   1.053  53.179  1.00  0.00     0.112 A 
ENDROOT
BRANCH   8  10
HETATM   10  C11 UNL     1      24.112   0.073  52.335  1.00  0.00     0.158 C 
BRANCH  10  11
HETATM   11  N5  UNL     1      22.896   0.731  52.718  1.00  0.00    -0.408 N 
HETATM   12  C12 UNL     1      21.701   0.017  52.483  1.00  0.00     0.119 C 
HETATM   13  C13 UNL     1      21.033   0.364  51.169  1.00  0.00     0.055 C 
HETATM   14  C14 UNL     1      21.355   1.795  50.775  1.00  0.00     0.221 C 
HETATM   15  C15 UNL     1      21.649   2.642  51.981  1.00  0.00     0.055 C 
HETATM   16  C16 UNL     1      22.905   2.129  52.635  1.00  0.00     0.119 C 
BRANCH  14  17
HETATM   17  N6  UNL     1      20.327   2.424  49.999  1.00  0.00     0.083 N 
HETATM   18  H17 UNL     1      20.543   3.377  49.671  1.00  0.00     0.313 HD
HETATM   19  H18 UNL     1      19.376   2.331  50.441  1.00  0.00     0.313 HD
ENDBRANCH  14  17
ENDBRANCH  10  11
ENDBRANCH   8  10
BRANCH   1  20
HETATM   20  N1  UNL     1      26.142   2.095  50.973  1.00  0.00    -0.339 N 
HETATM   21  H6  UNL     1      25.558   1.526  50.345  1.00  0.00     0.167 HD
BRANCH  20  22
HETATM   22  C5  UNL     1      26.152   3.352  50.302  1.00  0.00     0.033 A 
HETATM   23  C4  UNL     1      25.178   4.297  50.600  1.00  0.00     0.030 A 
HETATM   24  C3  UNL     1      25.143   5.547  49.998  1.00  0.00     0.009 A 
HETATM   25  C2  UNL     1      26.078   5.920  49.066  1.00  0.00    -0.062 A 
HETATM   26  C1  UNL     1      26.079   7.236  48.406  1.00  0.00     0.048 C 
HETATM   27  C19 UNL     1      27.063   5.017  48.737  1.00  0.00     0.009 A 
HETATM   28  C18 UNL     1      27.056   3.805  49.353  1.00  0.00     0.030 A 
ENDBRANCH  20  22
ENDBRANCH   1  20
TORSDOF 5
ENDMDL
MODEL 6
REMARK VINA RESULT:      -8.0      1.597      2.460
REMARK  5 active torsions:
REMARK  status: ('A' for Active; 'I' for Inactive)
REMARK    1  A    between atoms: C5_5  and  N1_6 
REMARK    2  A    between atoms: N1_6  and  C6_7 
REMARK    3  A    between atoms: C10_14  and  C11_15 
REMARK    4  A    between atoms: C11_15  and  N5_16 
REMARK    5  A    between atoms: C14_19  and  N6_20 
ROOT
HETATM    1  C6  UNL     1      23.526   1.615  52.998  1.00  0.00     0.159 A 
HETATM    2  N2  UNL     1      23.218   0.423  53.516  1.00  0.00    -0.220 NA
HETATM    3  C7  UNL     1      21.965  -0.023  53.622  1.00  0.00     0.258 A 
HETATM    4  N3  UNL     1      20.936   0.750  53.189  1.00  0.00    -0.161 NA
HETATM    5  N4  UNL     1      21.233   1.946  52.668  1.00  0.00    -0.240 N 
HETATM    6  C8  UNL     1      20.350   2.839  52.193  1.00  0.00     0.119 A 
HETATM    7  C9  UNL     1      21.094   3.917  51.762  1.00  0.00     0.030 A 
HETATM    8  C10 UNL     1      22.448   3.639  51.994  1.00  0.00    -0.007 A 
HETATM    9  C17 UNL     1      22.484   2.391  52.563  1.00  0.00     0.112 A 
ENDROOT
BRANCH   8  10
HETATM   10  C11 UNL     1      23.523   4.592  51.650  1.00  0.00     0.158 C 
BRANCH  10  11
HETATM   11  N5  UNL     1      23.829   4.654  50.250  1.00  0.00    -0.408 N 
HETATM   12  C12 UNL     1      24.343   3.472  49.672  1.00  0.00     0.119 C 
HETATM   13  C13 UNL     1      25.855   3.429  49.617  1.00  0.00     0.055 C 
HETATM   14  C14 UNL     1      26.420   4.836  49.518  1.00  0.00     0.221 C 
HETATM   15  C15 UNL     1      25.440   5.774  48.872  1.00  0.00     0.055 C 
HETATM   16  C16 UNL     1      24.236   5.903  49.767  1.00  0.00     0.119 C 
BRANCH  14  17
HETATM   17  N6  UNL     1      27.669   4.907  48.818  1.00  0.00     0.083 N 
HETATM   18  H17 UNL     1      28.511   4.813  49.405  1.00  0.00     0.313 HD
HETATM   19  H18 UNL     1      27.707   5.717  48.146  1.00  0.00     0.313 HD
ENDBRANCH  14  17
ENDBRANCH  10  11
ENDBRANCH   8  10
BRANCH   1  20
HETATM   20  N1  UNL     1      24.879   2.019  52.917  1.00  0.00    -0.339 N 
HETATM   21  H6  UNL     1      25.378   2.902  52.743  1.00  0.00     0.167 HD
BRANCH  20  22
HETATM   22  C5  UNL     1      25.959   1.106  53.091  1.00  0.00     0.033 A 
HETATM   23  C4  UNL     1      26.213   0.150  52.115  1.00  0.00     0.030 A 
HETATM   24  C3  UNL     1      27.261  -0.756  52.214  1.00  0.00     0.009 A 
HETATM   25  C2  UNL     1      28.110  -0.754  53.291  1.00  0.00    -0.062 A 
HETATM   26  C1  UNL     1      29.234  -1.695  53.433  1.00  0.00     0.048 C 
HETATM   27  C19 UNL     1      27.898   0.174  54.284  1.00  0.00     0.009 A 
HETATM   28  C18 UNL     1      26.859   1.040  54.144  1.00  0.00     0.030 A 
ENDBRANCH  20  22
ENDBRANCH   1  20
TORSDOF 5
ENDMDL
MODEL 7
REMARK VINA RESULT:      -8.0      1.664      2.673
REMARK  5 active torsions:
REMARK  status: ('A' for Active; 'I' for Inactive)
REMARK    1  A    between atoms: C5_5  and  N1_6 
REMARK    2  A    between atoms: N1_6  and  C6_7 
REMARK    3  A    between atoms: C10_14  and  C11_15 
REMARK    4  A    between atoms: C11_15  and  N5_16 
REMARK    5  A    between atoms: C14_19  and  N6_20 
ROOT
HETATM    1  C6  UNL     1      23.025   1.308  52.396  1.00  0.00     0.159 A 
HETATM    2  N2  UNL     1      22.397   0.461  53.215  1.00  0.00    -0.220 NA
HETATM    3  C7  UNL     1      21.279  -0.184  52.878  1.00  0.00     0.258 A 
HETATM    4  N3  UNL     1      20.732   0.012  51.650  1.00  0.00    -0.161 NA
HETATM    5  N4  UNL     1      21.353   0.860  50.821  1.00  0.00    -0.240 N 
HETATM    6  C8  UNL     1      20.959   1.175  49.577  1.00  0.00     0.119 A 
HETATM    7  C9  UNL     1      21.888   2.076  49.100  1.00  0.00     0.030 A 
HETATM    8  C10 UNL     1      22.847   2.289  50.100  1.00  0.00    -0.007 A 
HETATM    9  C17 UNL     1      22.470   1.503  51.158  1.00  0.00     0.112 A 
ENDROOT
BRANCH   8  10
HETATM   10  C11 UNL     1      23.990   3.208  49.918  1.00  0.00     0.158 C 
BRANCH  10  11
HETATM   11  N5  UNL     1      23.625   4.593  49.845  1.00  0.00    -0.408 N 
HETATM   12  C12 UNL     1      24.030   5.283  48.681  1.00  0.00     0.119 C 
HETATM   13  C13 UNL     1      25.341   6.023  48.837  1.00  0.00     0.055 C 
HETATM   14  C14 UNL     1      25.542   6.441  50.283  1.00  0.00     0.221 C 
HETATM   15  C15 UNL     1      24.228   6.611  50.992  1.00  0.00     0.055 C 
HETATM   16  C16 UNL     1      23.545   5.270  51.068  1.00  0.00     0.119 C 
BRANCH  14  17
HETATM   17  N6  UNL     1      26.314   7.639  50.435  1.00  0.00     0.083 N 
HETATM   18  H17 UNL     1      26.046   8.419  49.817  1.00  0.00     0.313 HD
HETATM   19  H18 UNL     1      27.350   7.450  50.458  1.00  0.00     0.313 HD
ENDBRANCH  14  17
ENDBRANCH  10  11
ENDBRANCH   8  10
BRANCH   1  20
HETATM   20  N1  UNL     1      24.208   1.954  52.824  1.00  0.00    -0.339 N 
HETATM   21  H6  UNL     1      24.473   2.912  53.089  1.00  0.00     0.167 HD
BRANCH  20  22
HETATM   22  C5  UNL     1      25.441   1.258  52.982  1.00  0.00     0.033 A 
HETATM   23  C4  UNL     1      26.259   1.548  54.067  1.00  0.00     0.030 A 
HETATM   24  C3  UNL     1      27.462   0.892  54.290  1.00  0.00     0.009 A 
HETATM   25  C2  UNL     1      27.913  -0.087  53.441  1.00  0.00    -0.062 A 
HETATM   26  C1  UNL     1      29.180  -0.808  53.643  1.00  0.00     0.048 C 
HETATM   27  C19 UNL     1      27.138  -0.409  52.351  1.00  0.00     0.009 A 
HETATM   28  C18 UNL     1      25.967   0.261  52.175  1.00  0.00     0.030 A 
ENDBRANCH  20  22
ENDBRANCH   1  20
TORSDOF 5
ENDMDL
MODEL 8
REMARK VINA RESULT:      -7.8      2.368      6.122
REMARK  5 active torsions:
REMARK  status: ('A' for Active; 'I' for Inactive)
REMARK    1  A    between atoms: C5_5  and  N1_6 
REMARK    2  A    between atoms: N1_6  and  C6_7 
REMARK    3  A    between atoms: C10_14  and  C11_15 
REMARK    4  A    between atoms: C11_15  and  N5_16 
REMARK    5  A    between atoms: C14_19  and  N6_20 
ROOT
HETATM    1  C6  UNL     1      22.944   4.464  51.044  1.00  0.00     0.159 A 
HETATM    2  N2  UNL     1      22.125   5.484  50.778  1.00  0.00    -0.220 NA
HETATM    3  C7  UNL     1      20.848   5.320  50.429  1.00  0.00     0.258 A 
HETATM    4  N3  UNL     1      20.330   4.068  50.333  1.00  0.00    -0.161 NA
HETATM    5  N4  UNL     1      21.144   3.038  50.598  1.00  0.00    -0.240 N 
HETATM    6  C8  UNL     1      20.809   1.738  50.553  1.00  0.00     0.119 A 
HETATM    7  C9  UNL     1      21.947   1.040  50.894  1.00  0.00     0.030 A 
HETATM    8  C10 UNL     1      22.971   1.963  51.144  1.00  0.00    -0.007 A 
HETATM    9  C17 UNL     1      22.419   3.202  50.946  1.00  0.00     0.112 A 
ENDROOT
BRANCH   8  10
HETATM   10  C11 UNL     1      24.335   1.547  51.533  1.00  0.00     0.158 C 
BRANCH  10  11
HETATM   11  N5  UNL     1      24.512   1.352  52.943  1.00  0.00    -0.408 N 
HETATM   12  C12 UNL     1      25.412   2.231  53.584  1.00  0.00     0.119 C 
HETATM   13  C13 UNL     1      26.815   1.678  53.713  1.00  0.00     0.055 C 
HETATM   14  C14 UNL     1      26.780   0.161  53.792  1.00  0.00     0.221 C 
HETATM   15  C15 UNL     1      25.476  -0.327  54.357  1.00  0.00     0.055 C 
HETATM   16  C16 UNL     1      24.370   0.037  53.401  1.00  0.00     0.119 C 
BRANCH  14  17
HETATM   17  N6  UNL     1      27.858  -0.402  54.548  1.00  0.00     0.083 N 
HETATM   18  H17 UNL     1      27.632  -0.652  55.522  1.00  0.00     0.313 HD
HETATM   19  H18 UNL     1      28.751   0.146  54.445  1.00  0.00     0.313 HD
ENDBRANCH  14  17
ENDBRANCH  10  11
ENDBRANCH   8  10
BRANCH   1  20
HETATM   20  N1  UNL     1      24.287   4.717  51.410  1.00  0.00    -0.339 N 
HETATM   21  H6  UNL     1      24.836   4.677  52.280  1.00  0.00     0.167 HD
BRANCH  20  22
HETATM   22  C5  UNL     1      25.266   5.144  50.468  1.00  0.00     0.033 A 
HETATM   23  C4  UNL     1      25.429   6.500  50.214  1.00  0.00     0.030 A 
HETATM   24  C3  UNL     1      26.378   6.984  49.323  1.00  0.00     0.009 A 
HETATM   25  C2  UNL     1      27.214   6.138  48.639  1.00  0.00    -0.062 A 
HETATM   26  C1  UNL     1      28.235   6.610  47.689  1.00  0.00     0.048 C 
HETATM   27  C19 UNL     1      27.091   4.786  48.857  1.00  0.00     0.009 A 
HETATM   28  C18 UNL     1      26.147   4.360  49.738  1.00  0.00     0.030 A 
ENDBRANCH  20  22
ENDBRANCH   1  20
TORSDOF 5
ENDMDL
MODEL 9
REMARK VINA RESULT:      -7.6      1.837      6.768
REMARK  5 active torsions:
REMARK  status: ('A' for Active; 'I' for Inactive)
REMARK    1  A    between atoms: C5_5  and  N1_6 
REMARK    2  A    between atoms: N1_6  and  C6_7 
REMARK    3  A    between atoms: C10_14  and  C11_15 
REMARK    4  A    between atoms: C11_15  and  N5_16 
REMARK    5  A    between atoms: C14_19  and  N6_20 
ROOT
HETATM    1  C6  UNL     1      23.185   2.592  51.532  1.00  0.00     0.159 A 
HETATM    2  N2  UNL     1      22.406   2.884  50.487  1.00  0.00    -0.220 NA
HETATM    3  C7  UNL     1      22.890   3.211  49.288  1.00  0.00     0.258 A 
HETATM    4  N3  UNL     1      24.233   3.257  49.092  1.00  0.00    -0.161 NA
HETATM    5  N4  UNL     1      25.022   2.966  50.133  1.00  0.00    -0.240 N 
HETATM    6  C8  UNL     1      26.366   2.961  50.126  1.00  0.00     0.119 A 
HETATM    7  C9  UNL     1      26.752   2.609  51.401  1.00  0.00     0.030 A 
HETATM    8  C10 UNL     1      25.598   2.405  52.170  1.00  0.00    -0.007 A 
HETATM    9  C17 UNL     1      24.540   2.640  51.331  1.00  0.00     0.112 A 
ENDROOT
BRANCH   8  10
HETATM   10  C11 UNL     1      25.654   2.019  53.595  1.00  0.00     0.158 C 
BRANCH  10  11
HETATM   11  N5  UNL     1      25.829   0.612  53.817  1.00  0.00    -0.408 N 
HETATM   12  C12 UNL     1      26.522   0.250  54.993  1.00  0.00     0.119 C 
HETATM   13  C13 UNL     1      28.003   0.019  54.780  1.00  0.00     0.055 C 
HETATM   14  C14 UNL     1      28.265  -0.457  53.361  1.00  0.00     0.221 C 
HETATM   15  C15 UNL     1      27.068  -1.167  52.793  1.00  0.00     0.055 C 
HETATM   16  C16 UNL     1      25.937  -0.180  52.668  1.00  0.00     0.119 C 
BRANCH  14  17
HETATM   17  N6  UNL     1      29.414  -1.304  53.239  1.00  0.00     0.083 N 
HETATM   18  H17 UNL     1      29.587  -1.682  52.296  1.00  0.00     0.313 HD
HETATM   19  H18 UNL     1      29.463  -2.027  54.003  1.00  0.00     0.313 HD
ENDBRANCH  14  17
ENDBRANCH  10  11
ENDBRANCH   8  10
BRANCH   1  20
HETATM   20  N1  UNL     1      22.598   2.252  52.774  1.00  0.00    -0.339 N 
HETATM   21  H6  UNL     1      22.737   2.525  53.756  1.00  0.00     0.167 HD
BRANCH  20  22
HETATM   22  C5  UNL     1      21.537   1.308  52.881  1.00  0.00     0.033 A 
HETATM   23  C4  UNL     1      21.686   0.199  53.706  1.00  0.00     0.030 A 
HETATM   24  C3  UNL     1      20.684  -0.747  53.872  1.00  0.00     0.009 A 
HETATM   25  C2  UNL     1      19.480  -0.637  53.223  1.00  0.00    -0.062 A 
HETATM   26  C1  UNL     1      18.391  -1.616  53.373  1.00  0.00     0.048 C 
HETATM   27  C19 UNL     1      19.285   0.444  52.395  1.00  0.00     0.009 A 
HETATM   28  C18 UNL     1      20.296   1.345  52.264  1.00  0.00     0.030 A 
ENDBRANCH  20  22
ENDBRANCH   1  20
TORSDOF 5
ENDMDL
