MODEL 1
REMARK VINA RESULT:      -8.4      0.000      0.000
REMARK  4 active torsions:
REMARK  status: ('A' for Active; 'I' for Inactive)
REMARK    1  A    between atoms: C4_4  and  N1_5 
REMARK    2  A    between atoms: N1_5  and  C5_6 
REMARK    3  A    between atoms: C10_13  and  N4_14 
REMARK       I    between atoms: N4_14  and  C11_15 
REMARK    4  A    between atoms: C11_15  and  C12_17 
ROOT
HETATM    1  C12 UNL     1      28.628   0.185  54.927  1.00  0.00     0.226 C 
HETATM    2  C13 UNL     1      29.273  -0.710  53.966  1.00  0.00     0.068 C 
HETATM    3  N5  UNL     1      29.779  -1.415  53.182  1.00  0.00    -0.197 NA
ENDROOT
BRANCH   1   4
HETATM    4  C11 UNL     1      27.273   0.512  54.376  1.00  0.00     0.235 C 
HETATM    5  N4  UNL     1      26.730  -0.026  53.188  1.00  0.00    -0.326 N 
HETATM    6  H10 UNL     1      27.328  -0.712  52.648  1.00  0.00     0.169 HD
HETATM    7  O1  UNL     1      26.531   1.325  54.986  1.00  0.00    -0.272 OA
BRANCH   5   8
HETATM    8  C10 UNL     1      25.418   0.506  52.963  1.00  0.00     0.035 A 
HETATM    9  C9  UNL     1      24.329  -0.249  53.348  1.00  0.00     0.032 A 
HETATM   10  C8  UNL     1      23.057   0.287  53.121  1.00  0.00     0.035 A 
HETATM   11  C7  UNL     1      22.931   1.537  52.529  1.00  0.00     0.072 A 
HETATM   12  N3  UNL     1      21.685   2.042  52.316  1.00  0.00    -0.241 NA
HETATM   13  C15 UNL     1      24.038   2.263  52.158  1.00  0.00     0.041 A 
HETATM   14  C6  UNL     1      21.568   3.252  51.741  1.00  0.00     0.235 A 
HETATM   15  N2  UNL     1      22.666   3.941  51.389  1.00  0.00    -0.224 NA
HETATM   16  C5  UNL     1      23.912   3.490  51.575  1.00  0.00     0.138 A 
HETATM   17  C14 UNL     1      25.272   1.746  52.376  1.00  0.00     0.047 A 
BRANCH  16  18
HETATM   18  N1  UNL     1      24.998   4.309  51.160  1.00  0.00    -0.366 N 
HETATM   19  H6  UNL     1      25.562   4.962  51.742  1.00  0.00     0.161 HD
BRANCH  18  20
HETATM   20  C4  UNL     1      25.391   4.247  49.756  1.00  0.00     0.110 A 
HETATM   21  C3  UNL     1      26.004   5.437  49.209  1.00  0.00     0.001 A 
HETATM   22  C2  UNL     1      27.117   4.843  48.940  1.00  0.00    -0.083 A 
HETATM   23  C1  UNL     1      28.399   5.305  48.329  1.00  0.00     0.043 C 
HETATM   24  C16 UNL     1      26.651   3.557  49.455  1.00  0.00     0.062 A 
ENDBRANCH  18  20
ENDBRANCH  16  18
ENDBRANCH   5   8
ENDBRANCH   1   4
TORSDOF 4
ENDMDL
MODEL 2
REMARK VINA RESULT:      -7.9      1.671      2.512
REMARK  4 active torsions:
REMARK  status: ('A' for Active; 'I' for Inactive)
REMARK    1  A    between atoms: C4_4  and  N1_5 
REMARK    2  A    between atoms: N1_5  and  C5_6 
REMARK    3  A    between atoms: C10_13  and  N4_14 
REMARK       I    between atoms: N4_14  and  C11_15 
REMARK    4  A    between atoms: C11_15  and  C12_17 
ROOT
HETATM    1  C12 UNL     1      28.647  -0.116  54.282  1.00  0.00     0.226 C 
HETATM    2  C13 UNL     1      29.078   1.271  54.469  1.00  0.00     0.068 C 
HETATM    3  N5  UNL     1      29.406   2.381  54.630  1.00  0.00    -0.197 NA
ENDROOT
BRANCH   1   4
HETATM    4  C11 UNL     1      27.149  -0.107  54.265  1.00  0.00     0.235 C 
HETATM    5  N4  UNL     1      26.337  -1.171  53.811  1.00  0.00    -0.326 N 
HETATM    6  H10 UNL     1      26.828  -2.039  53.457  1.00  0.00     0.169 HD
HETATM    7  O1  UNL     1      26.526   0.906  54.677  1.00  0.00    -0.272 OA
BRANCH   5   8
HETATM    8  C10 UNL     1      24.953  -0.820  53.938  1.00  0.00     0.035 A 
HETATM    9  C9  UNL     1      24.274  -1.227  55.068  1.00  0.00     0.032 A 
HETATM   10  C8  UNL     1      22.924  -0.875  55.174  1.00  0.00     0.035 A 
HETATM   11  C7  UNL     1      22.321  -0.142  54.160  1.00  0.00     0.072 A 
HETATM   12  N3  UNL     1      21.007   0.191  54.281  1.00  0.00    -0.241 NA
HETATM   13  C15 UNL     1      23.027   0.246  53.047  1.00  0.00     0.041 A 
HETATM   14  C6  UNL     1      20.427   0.899  53.296  1.00  0.00     0.235 A 
HETATM   15  N2  UNL     1      21.141   1.267  52.219  1.00  0.00    -0.224 NA
HETATM   16  C5  UNL     1      22.433   0.966  52.051  1.00  0.00     0.138 A 
HETATM   17  C14 UNL     1      24.336  -0.093  52.941  1.00  0.00     0.047 A 
BRANCH  16  18
HETATM   18  N1  UNL     1      23.085   1.409  50.868  1.00  0.00    -0.366 N 
HETATM   19  H6  UNL     1      23.240   0.875  49.988  1.00  0.00     0.161 HD
BRANCH  18  20
HETATM   20  C4  UNL     1      23.608   2.771  50.856  1.00  0.00     0.110 A 
HETATM   21  C3  UNL     1      25.011   2.922  51.170  1.00  0.00     0.001 A 
HETATM   22  C2  UNL     1      25.303   3.425  50.019  1.00  0.00    -0.083 A 
HETATM   23  C1  UNL     1      26.577   3.908  49.410  1.00  0.00     0.043 C 
HETATM   24  C16 UNL     1      23.924   3.344  49.541  1.00  0.00     0.062 A 
ENDBRANCH  18  20
ENDBRANCH  16  18
ENDBRANCH   5   8
ENDBRANCH   1   4
TORSDOF 4
ENDMDL
MODEL 3
REMARK VINA RESULT:      -7.5      3.196      3.897
REMARK  4 active torsions:
REMARK  status: ('A' for Active; 'I' for Inactive)
REMARK    1  A    between atoms: C4_4  and  N1_5 
REMARK    2  A    between atoms: N1_5  and  C5_6 
REMARK    3  A    between atoms: C10_13  and  N4_14 
REMARK       I    between atoms: N4_14  and  C11_15 
REMARK    4  A    between atoms: C11_15  and  C12_17 
ROOT
HETATM    1  C12 UNL     1      28.715  -0.495  53.472  1.00  0.00     0.226 C 
HETATM    2  C13 UNL     1      29.131   0.756  54.107  1.00  0.00     0.068 C 
HETATM    3  N5  UNL     1      29.450   1.752  54.630  1.00  0.00    -0.197 NA
ENDROOT
BRANCH   1   4
HETATM    4  C11 UNL     1      27.249  -0.654  53.742  1.00  0.00     0.235 C 
HETATM    5  N4  UNL     1      26.537   0.012  54.764  1.00  0.00    -0.326 N 
HETATM    6  H10 UNL     1      27.082   0.673  55.385  1.00  0.00     0.169 HD
HETATM    7  O1  UNL     1      26.564  -1.431  53.028  1.00  0.00    -0.272 OA
BRANCH   5   8
HETATM    8  C10 UNL     1      25.157  -0.376  54.733  1.00  0.00     0.035 A 
HETATM    9  C9  UNL     1      24.691  -1.221  55.720  1.00  0.00     0.032 A 
HETATM   10  C8  UNL     1      23.342  -1.588  55.673  1.00  0.00     0.035 A 
HETATM   11  C7  UNL     1      22.530  -1.102  54.657  1.00  0.00     0.072 A 
HETATM   12  N3  UNL     1      21.219  -1.470  54.628  1.00  0.00    -0.241 NA
HETATM   13  C15 UNL     1      23.027  -0.262  53.690  1.00  0.00     0.041 A 
HETATM   14  C6  UNL     1      20.438  -0.998  53.642  1.00  0.00     0.235 A 
HETATM   15  N2  UNL     1      20.949  -0.177  52.709  1.00  0.00    -0.224 NA
HETATM   16  C5  UNL     1      22.228   0.215  52.691  1.00  0.00     0.138 A 
HETATM   17  C14 UNL     1      24.335   0.096  53.732  1.00  0.00     0.047 A 
BRANCH  16  18
HETATM   18  N1  UNL     1      22.656   1.086  51.652  1.00  0.00    -0.366 N 
HETATM   19  H6  UNL     1      23.617   1.442  51.475  1.00  0.00     0.161 HD
BRANCH  18  20
HETATM   20  C4  UNL     1      21.648   1.551  50.705  1.00  0.00     0.110 A 
HETATM   21  C3  UNL     1      21.968   2.753  49.967  1.00  0.00     0.001 A 
HETATM   22  C2  UNL     1      21.927   2.162  48.821  1.00  0.00    -0.083 A 
HETATM   23  C1  UNL     1      22.140   2.635  47.421  1.00  0.00     0.043 C 
HETATM   24  C16 UNL     1      21.597   0.865  49.408  1.00  0.00     0.062 A 
ENDBRANCH  18  20
ENDBRANCH  16  18
ENDBRANCH   5   8
ENDBRANCH   1   4
TORSDOF 4
ENDMDL
MODEL 4
REMARK VINA RESULT:      -7.5      2.254      5.765
REMARK  4 active torsions:
REMARK  status: ('A' for Active; 'I' for Inactive)
REMARK    1  A    between atoms: C4_4  and  N1_5 
REMARK    2  A    between atoms: N1_5  and  C5_6 
REMARK    3  A    between atoms: C10_13  and  N4_14 
REMARK       I    between atoms: N4_14  and  C11_15 
REMARK    4  A    between atoms: C11_15  and  C12_17 
ROOT
HETATM    1  C12 UNL     1      25.951   6.629  49.477  1.00  0.00     0.226 C 
HETATM    2  C13 UNL     1      27.156   6.195  48.769  1.00  0.00     0.068 C 
HETATM    3  N5  UNL     1      28.108   5.832  48.196  1.00  0.00    -0.197 NA
ENDROOT
BRANCH   1   4
HETATM    4  C11 UNL     1      25.225   5.389  49.901  1.00  0.00     0.235 C 
HETATM    5  N4  UNL     1      25.515   4.084  49.444  1.00  0.00    -0.326 N 
HETATM    6  H10 UNL     1      26.306   3.977  48.750  1.00  0.00     0.169 HD
HETATM    7  O1  UNL     1      24.276   5.472  50.724  1.00  0.00    -0.272 OA
BRANCH   5   8
HETATM    8  C10 UNL     1      24.624   3.141  50.055  1.00  0.00     0.035 A 
HETATM    9  C9  UNL     1      23.403   2.908  49.455  1.00  0.00     0.032 A 
HETATM   10  C8  UNL     1      22.548   1.985  50.066  1.00  0.00     0.035 A 
HETATM   11  C7  UNL     1      22.945   1.344  51.232  1.00  0.00     0.072 A 
HETATM   12  N3  UNL     1      22.098   0.448  51.812  1.00  0.00    -0.241 NA
HETATM   13  C15 UNL     1      24.168   1.600  51.803  1.00  0.00     0.041 A 
HETATM   14  C6  UNL     1      22.487  -0.168  52.941  1.00  0.00     0.235 A 
HETATM   15  N2  UNL     1      23.688   0.100  53.478  1.00  0.00    -0.224 NA
HETATM   16  C5  UNL     1      24.556   0.970  52.950  1.00  0.00     0.138 A 
HETATM   17  C14 UNL     1      25.000   2.495  51.214  1.00  0.00     0.047 A 
BRANCH  16  18
HETATM   18  N1  UNL     1      25.800   1.172  53.609  1.00  0.00    -0.366 N 
HETATM   19  H6  UNL     1      26.271   2.077  53.816  1.00  0.00     0.161 HD
BRANCH  18  20
HETATM   20  C4  UNL     1      26.525  -0.011  54.059  1.00  0.00     0.110 A 
HETATM   21  C3  UNL     1      27.329  -0.687  53.066  1.00  0.00     0.001 A 
HETATM   22  C2  UNL     1      28.434  -0.488  53.702  1.00  0.00    -0.083 A 
HETATM   23  C1  UNL     1      29.854  -0.851  53.419  1.00  0.00     0.043 C 
HETATM   24  C16 UNL     1      27.773   0.222  54.795  1.00  0.00     0.062 A 
ENDBRANCH  18  20
ENDBRANCH  16  18
ENDBRANCH   5   8
ENDBRANCH   1   4
TORSDOF 4
ENDMDL
MODEL 5
REMARK VINA RESULT:      -7.4      2.311      5.667
REMARK  4 active torsions:
REMARK  status: ('A' for Active; 'I' for Inactive)
REMARK    1  A    between atoms: C4_4  and  N1_5 
REMARK    2  A    between atoms: N1_5  and  C5_6 
REMARK    3  A    between atoms: C10_13  and  N4_14 
REMARK       I    between atoms: N4_14  and  C11_15 
REMARK    4  A    between atoms: C11_15  and  C12_17 
ROOT
HETATM    1  C12 UNL     1      18.856   1.401  50.771  1.00  0.00     0.226 C 
HETATM    2  C13 UNL     1      18.378   2.625  51.415  1.00  0.00     0.068 C 
HETATM    3  N5  UNL     1      18.015   3.609  51.932  1.00  0.00    -0.197 NA
ENDROOT
BRANCH   1   4
HETATM    4  C11 UNL     1      20.136   1.023  51.452  1.00  0.00     0.235 C 
HETATM    5  N4  UNL     1      20.526   1.452  52.741  1.00  0.00    -0.326 N 
HETATM    6  H10 UNL     1      19.861   2.089  53.263  1.00  0.00     0.169 HD
HETATM    7  O1  UNL     1      20.956   0.268  50.867  1.00  0.00    -0.272 OA
BRANCH   5   8
HETATM    8  C10 UNL     1      21.806   0.900  53.076  1.00  0.00     0.035 A 
HETATM    9  C9  UNL     1      21.849  -0.344  53.672  1.00  0.00     0.032 A 
HETATM   10  C8  UNL     1      23.107  -0.866  53.990  1.00  0.00     0.035 A 
HETATM   11  C7  UNL     1      24.251  -0.132  53.703  1.00  0.00     0.072 A 
HETATM   12  N3  UNL     1      25.466  -0.657  54.020  1.00  0.00    -0.241 NA
HETATM   13  C15 UNL     1      24.172   1.104  53.109  1.00  0.00     0.041 A 
HETATM   14  C6  UNL     1      26.570   0.057  53.741  1.00  0.00     0.235 A 
HETATM   15  N2  UNL     1      26.465   1.264  53.159  1.00  0.00    -0.224 NA
HETATM   16  C5  UNL     1      25.296   1.824  52.828  1.00  0.00     0.138 A 
HETATM   17  C14 UNL     1      22.953   1.613  52.798  1.00  0.00     0.047 A 
BRANCH  16  18
HETATM   18  N1  UNL     1      25.310   3.108  52.216  1.00  0.00    -0.366 N 
HETATM   19  H6  UNL     1      25.333   4.036  52.685  1.00  0.00     0.161 HD
BRANCH  18  20
HETATM   20  C4  UNL     1      25.289   3.160  50.758  1.00  0.00     0.110 A 
HETATM   21  C3  UNL     1      25.203   4.476  50.165  1.00  0.00     0.001 A 
HETATM   22  C2  UNL     1      26.338   4.371  49.561  1.00  0.00    -0.083 A 
HETATM   23  C1  UNL     1      27.108   5.288  48.669  1.00  0.00     0.043 C 
HETATM   24  C16 UNL     1      26.582   3.025  50.076  1.00  0.00     0.062 A 
ENDBRANCH  18  20
ENDBRANCH  16  18
ENDBRANCH   5   8
ENDBRANCH   1   4
TORSDOF 4
ENDMDL
MODEL 6
REMARK VINA RESULT:      -7.3      2.621      5.150
REMARK  4 active torsions:
REMARK  status: ('A' for Active; 'I' for Inactive)
REMARK    1  A    between atoms: C4_4  and  N1_5 
REMARK    2  A    between atoms: N1_5  and  C5_6 
REMARK    3  A    between atoms: C10_13  and  N4_14 
REMARK       I    between atoms: N4_14  and  C11_15 
REMARK    4  A    between atoms: C11_15  and  C12_17 
ROOT
HETATM    1  C12 UNL     1      20.417  -0.608  53.788  1.00  0.00     0.226 C 
HETATM    2  C13 UNL     1      21.472  -1.134  54.655  1.00  0.00     0.068 C 
HETATM    3  N5  UNL     1      22.324  -1.537  55.346  1.00  0.00    -0.197 NA
ENDROOT
BRANCH   1   4
HETATM    4  C11 UNL     1      21.081   0.294  52.792  1.00  0.00     0.235 C 
HETATM    5  N4  UNL     1      21.733  -0.139  51.616  1.00  0.00    -0.326 N 
HETATM    6  H10 UNL     1      21.752  -1.179  51.425  1.00  0.00     0.169 HD
HETATM    7  O1  UNL     1      21.083   1.538  52.981  1.00  0.00    -0.272 OA
BRANCH   5   8
HETATM    8  C10 UNL     1      22.254   0.989  50.901  1.00  0.00     0.035 A 
HETATM    9  C9  UNL     1      21.576   1.427  49.781  1.00  0.00     0.032 A 
HETATM   10  C8  UNL     1      22.100   2.529  49.097  1.00  0.00     0.035 A 
HETATM   11  C7  UNL     1      23.261   3.137  49.556  1.00  0.00     0.072 A 
HETATM   12  N3  UNL     1      23.755   4.209  48.877  1.00  0.00    -0.241 NA
HETATM   13  C15 UNL     1      23.912   2.675  50.675  1.00  0.00     0.041 A 
HETATM   14  C6  UNL     1      24.881   4.793  49.324  1.00  0.00     0.235 A 
HETATM   15  N2  UNL     1      25.496   4.322  50.421  1.00  0.00    -0.224 NA
HETATM   16  C5  UNL     1      25.053   3.273  51.124  1.00  0.00     0.138 A 
HETATM   17  C14 UNL     1      23.407   1.606  51.340  1.00  0.00     0.047 A 
BRANCH  16  18
HETATM   18  N1  UNL     1      25.790   2.864  52.269  1.00  0.00    -0.366 N 
HETATM   19  H6  UNL     1      25.553   3.023  53.269  1.00  0.00     0.161 HD
BRANCH  18  20
HETATM   20  C4  UNL     1      27.032   2.131  52.045  1.00  0.00     0.110 A 
HETATM   21  C3  UNL     1      28.004   2.173  53.114  1.00  0.00     0.001 A 
HETATM   22  C2  UNL     1      27.972   0.898  53.309  1.00  0.00    -0.083 A 
HETATM   23  C1  UNL     1      28.682  -0.007  54.260  1.00  0.00     0.043 C 
HETATM   24  C16 UNL     1      26.986   0.678  52.253  1.00  0.00     0.062 A 
ENDBRANCH  18  20
ENDBRANCH  16  18
ENDBRANCH   5   8
ENDBRANCH   1   4
TORSDOF 4
ENDMDL
MODEL 7
REMARK VINA RESULT:      -7.0      2.892      6.392
REMARK  4 active torsions:
REMARK  status: ('A' for Active; 'I' for Inactive)
REMARK    1  A    between atoms: C4_4  and  N1_5 
REMARK    2  A    between atoms: N1_5  and  C5_6 
REMARK    3  A    between atoms: C10_13  and  N4_14 
REMARK       I    between atoms: N4_14  and  C11_15 
REMARK    4  A    between atoms: C11_15  and  C12_17 
ROOT
HETATM    1  C12 UNL     1      23.283   4.984  48.996  1.00  0.00     0.226 C 
HETATM    2  C13 UNL     1      22.039   5.526  48.448  1.00  0.00     0.068 C 
HETATM    3  N5  UNL     1      21.036   5.954  48.028  1.00  0.00    -0.197 NA
ENDROOT
BRANCH   1   4
HETATM    4  C11 UNL     1      22.909   3.800  49.836  1.00  0.00     0.235 C 
HETATM    5  N4  UNL     1      22.951   2.455  49.405  1.00  0.00    -0.326 N 
HETATM    6  H10 UNL     1      23.272   2.273  48.414  1.00  0.00     0.169 HD
HETATM    7  O1  UNL     1      22.521   3.973  51.021  1.00  0.00    -0.272 OA
BRANCH   5   8
HETATM    8  C10 UNL     1      22.526   1.588  50.465  1.00  0.00     0.035 A 
HETATM    9  C9  UNL     1      21.227   1.123  50.451  1.00  0.00     0.032 A 
HETATM   10  C8  UNL     1      20.832   0.277  51.493  1.00  0.00     0.035 A 
HETATM   11  C7  UNL     1      21.740  -0.062  52.488  1.00  0.00     0.072 A 
HETATM   12  N3  UNL     1      21.336  -0.887  53.494  1.00  0.00    -0.241 NA
HETATM   13  C15 UNL     1      23.026   0.419  52.471  1.00  0.00     0.041 A 
HETATM   14  C6  UNL     1      22.218  -1.211  54.455  1.00  0.00     0.235 A 
HETATM   15  N2  UNL     1      23.471  -0.727  54.414  1.00  0.00    -0.224 NA
HETATM   16  C5  UNL     1      23.917   0.085  53.449  1.00  0.00     0.138 A 
HETATM   17  C14 UNL     1      23.413   1.239  51.462  1.00  0.00     0.047 A 
BRANCH  16  18
HETATM   18  N1  UNL     1      25.264   0.535  53.511  1.00  0.00    -0.366 N 
HETATM   19  H6  UNL     1      25.638   1.466  53.236  1.00  0.00     0.161 HD
BRANCH  18  20
HETATM   20  C4  UNL     1      26.264  -0.399  54.018  1.00  0.00     0.110 A 
HETATM   21  C3  UNL     1      27.263  -0.845  53.073  1.00  0.00     0.001 A 
HETATM   22  C2  UNL     1      28.245  -0.342  53.742  1.00  0.00    -0.083 A 
HETATM   23  C1  UNL     1      29.720  -0.309  53.520  1.00  0.00     0.043 C 
HETATM   24  C16 UNL     1      27.371   0.177  54.792  1.00  0.00     0.062 A 
ENDBRANCH  18  20
ENDBRANCH  16  18
ENDBRANCH   5   8
ENDBRANCH   1   4
TORSDOF 4
ENDMDL
MODEL 8
REMARK VINA RESULT:      -6.8      6.067     10.305
REMARK  4 active torsions:
REMARK  status: ('A' for Active; 'I' for Inactive)
REMARK    1  A    between atoms: C4_4  and  N1_5 
REMARK    2  A    between atoms: N1_5  and  C5_6 
REMARK    3  A    between atoms: C10_13  and  N4_14 
REMARK       I    between atoms: N4_14  and  C11_15 
REMARK    4  A    between atoms: C11_15  and  C12_17 
ROOT
HETATM    1  C12 UNL     1      26.878   6.449  48.277  1.00  0.00     0.226 C 
HETATM    2  C13 UNL     1      27.002   5.081  48.782  1.00  0.00     0.068 C 
HETATM    3  N5  UNL     1      27.117   3.994  49.197  1.00  0.00    -0.197 NA
ENDROOT
BRANCH   1   4
HETATM    4  C11 UNL     1      28.267   7.003  48.175  1.00  0.00     0.235 C 
HETATM    5  N4  UNL     1      28.942   7.693  49.208  1.00  0.00    -0.326 N 
HETATM    6  H10 UNL     1      28.425   7.826  50.121  1.00  0.00     0.169 HD
HETATM    7  O1  UNL     1      28.917   6.867  47.106  1.00  0.00    -0.272 OA
BRANCH   5   8
HETATM    8  C10 UNL     1      30.249   8.080  48.765  1.00  0.00     0.035 A 
HETATM    9  C9  UNL     1      30.475   9.409  48.471  1.00  0.00     0.032 A 
HETATM   10  C8  UNL     1      31.757   9.768  48.041  1.00  0.00     0.035 A 
HETATM   11  C7  UNL     1      32.743   8.797  47.926  1.00  0.00     0.072 A 
HETATM   12  N3  UNL     1      33.985   9.166  47.507  1.00  0.00    -0.241 NA
HETATM   13  C15 UNL     1      32.483   7.482  48.228  1.00  0.00     0.041 A 
HETATM   14  C6  UNL     1      34.935   8.221  47.396  1.00  0.00     0.235 A 
HETATM   15  N2  UNL     1      34.655   6.942  47.698  1.00  0.00    -0.224 NA
HETATM   16  C5  UNL     1      33.453   6.528  48.114  1.00  0.00     0.138 A 
HETATM   17  C14 UNL     1      31.242   7.130  48.645  1.00  0.00     0.047 A 
BRANCH  16  18
HETATM   18  N1  UNL     1      33.275   5.147  48.403  1.00  0.00    -0.366 N 
HETATM   19  H6  UNL     1      32.983   4.718  49.305  1.00  0.00     0.161 HD
BRANCH  18  20
HETATM   20  C4  UNL     1      33.523   4.195  47.326  1.00  0.00     0.110 A 
HETATM   21  C3  UNL     1      33.876   2.852  47.727  1.00  0.00     0.001 A 
HETATM   22  C2  UNL     1      32.842   2.321  47.167  1.00  0.00    -0.083 A 
HETATM   23  C1  UNL     1      32.349   0.917  47.058  1.00  0.00     0.043 C 
HETATM   24  C16 UNL     1      32.342   3.606  46.682  1.00  0.00     0.062 A 
ENDBRANCH  18  20
ENDBRANCH  16  18
ENDBRANCH   5   8
ENDBRANCH   1   4
TORSDOF 4
ENDMDL
MODEL 9
REMARK VINA RESULT:      -6.8      2.338      5.358
REMARK  4 active torsions:
REMARK  status: ('A' for Active; 'I' for Inactive)
REMARK    1  A    between atoms: C4_4  and  N1_5 
REMARK    2  A    between atoms: N1_5  and  C5_6 
REMARK    3  A    between atoms: C10_13  and  N4_14 
REMARK       I    between atoms: N4_14  and  C11_15 
REMARK    4  A    between atoms: C11_15  and  C12_17 
ROOT
HETATM    1  C12 UNL     1      27.201   4.954  48.663  1.00  0.00     0.226 C 
HETATM    2  C13 UNL     1      26.633   6.236  49.081  1.00  0.00     0.068 C 
HETATM    3  N5  UNL     1      26.180   7.254  49.434  1.00  0.00    -0.197 NA
ENDROOT
BRANCH   1   4
HETATM    4  C11 UNL     1      26.659   3.913  49.595  1.00  0.00     0.235 C 
HETATM    5  N4  UNL     1      26.024   4.181  50.828  1.00  0.00    -0.326 N 
HETATM    6  H10 UNL     1      25.924   5.196  51.113  1.00  0.00     0.169 HD
HETATM    7  O1  UNL     1      26.758   2.694  49.295  1.00  0.00    -0.272 OA
BRANCH   5   8
HETATM    8  C10 UNL     1      25.633   2.953  51.456  1.00  0.00     0.035 A 
HETATM    9  C9  UNL     1      26.621   2.081  51.864  1.00  0.00     0.032 A 
HETATM   10  C8  UNL     1      26.220   0.888  52.475  1.00  0.00     0.035 A 
HETATM   11  C7  UNL     1      24.868   0.623  52.649  1.00  0.00     0.072 A 
HETATM   12  N3  UNL     1      24.497  -0.543  53.246  1.00  0.00    -0.241 NA
HETATM   13  C15 UNL     1      23.910   1.514  52.230  1.00  0.00     0.041 A 
HETATM   14  C6  UNL     1      23.187  -0.795  53.410  1.00  0.00     0.235 A 
HETATM   15  N2  UNL     1      22.270   0.093  52.992  1.00  0.00    -0.224 NA
HETATM   16  C5  UNL     1      22.581   1.252  52.401  1.00  0.00     0.138 A 
HETATM   17  C14 UNL     1      24.295   2.672  51.637  1.00  0.00     0.047 A 
BRANCH  16  18
HETATM   18  N1  UNL     1      21.524   2.114  52.000  1.00  0.00    -0.366 N 
HETATM   19  H6  UNL     1      21.122   2.917  52.526  1.00  0.00     0.161 HD
BRANCH  18  20
HETATM   20  C4  UNL     1      20.908   1.866  50.700  1.00  0.00     0.110 A 
HETATM   21  C3  UNL     1      21.198   2.827  49.660  1.00  0.00     0.001 A 
HETATM   22  C2  UNL     1      21.772   1.958  48.898  1.00  0.00    -0.083 A 
HETATM   23  C1  UNL     1      22.414   2.045  47.554  1.00  0.00     0.043 C 
HETATM   24  C16 UNL     1      21.557   0.865  49.844  1.00  0.00     0.062 A 
ENDBRANCH  18  20
ENDBRANCH  16  18
ENDBRANCH   5   8
ENDBRANCH   1   4
TORSDOF 4
ENDMDL
