MODEL 1
REMARK VINA RESULT:      -7.9      0.000      0.000
REMARK  7 active torsions:
REMARK  status: ('A' for Active; 'I' for Inactive)
REMARK    1  A    between atoms: C7_7  and  N1_8 
REMARK    2  A    between atoms: N1_8  and  C8_9 
REMARK    3  A    between atoms: C11_13  and  N3_14 
REMARK    4  A    between atoms: N3_14  and  C12_15 
REMARK       I    between atoms: N3_14  and  C13_17 
REMARK    5  A    between atoms: C13_17  and  C14_19 
REMARK    6  A    between atoms: C15_20  and  C16_21 
REMARK    7  A    between atoms: C16_21  and  N4_22 
ROOT
HETATM    1  C8  UNL     1      25.794   1.749  52.536  1.00  0.00     0.122 A 
HETATM    2  N2  UNL     1      24.621   1.733  53.102  1.00  0.00    -0.232 NA
HETATM    3  C9  UNL     1      23.537   2.308  52.366  1.00  0.00     0.083 A 
HETATM    4  C10 UNL     1      22.267   2.454  52.635  1.00  0.00     0.036 A 
HETATM    5  C11 UNL     1      21.523   3.136  51.511  1.00  0.00     0.140 A 
HETATM    6  C19 UNL     1      22.615   3.360  50.536  1.00  0.00     0.034 A 
HETATM    7  C20 UNL     1      23.744   2.886  51.036  1.00  0.00     0.055 A 
HETATM    8  N5  UNL     1      25.073   2.824  50.559  1.00  0.00    -0.381 N 
HETATM    9  C21 UNL     1      26.238   2.273  51.222  1.00  0.00     0.198 A 
HETATM   10  H24 UNL     1      25.273   3.215  49.613  1.00  0.00     0.160 HD
ENDROOT
BRANCH   5  11
HETATM   11  N3  UNL     1      20.570   2.181  50.924  1.00  0.00    -0.311 N 
HETATM   12  C13 UNL     1      19.209   2.186  51.333  1.00  0.00     0.245 C 
HETATM   13  O1  UNL     1      19.137   3.103  52.180  1.00  0.00    -0.268 OA
BRANCH  11  14
HETATM   14  C12 UNL     1      21.056   1.248  49.909  1.00  0.00     0.351 C 
HETATM   15  F1  UNL     1      21.426   0.037  50.439  1.00  0.00    -0.234 F 
ENDBRANCH  11  14
BRANCH  12  16
HETATM   16  C14 UNL     1      18.273   1.242  50.760  1.00  0.00     0.072 C 
HETATM   17  C15 UNL     1      17.957   0.054  51.227  1.00  0.00     0.008 C 
BRANCH  17  18
HETATM   18  C16 UNL     1      18.486  -0.612  52.466  1.00  0.00     0.299 C 
BRANCH  18  19
HETATM   19  N4  UNL     1      17.460  -1.307  53.176  1.00  0.00     0.083 N 
HETATM   20  C17 UNL     1      16.221  -1.359  52.446  1.00  0.00     0.309 C 
HETATM   21  C18 UNL     1      17.840  -2.602  53.675  1.00  0.00     0.309 C 
ENDBRANCH  18  19
ENDBRANCH  17  18
ENDBRANCH  12  16
ENDBRANCH   5  11
BRANCH   1  22
HETATM   22  N1  UNL     1      26.771   1.142  53.383  1.00  0.00    -0.343 N 
HETATM   23  H8  UNL     1      27.146   1.645  54.243  1.00  0.00     0.167 HD
BRANCH  22  24
HETATM   24  C7  UNL     1      27.348  -0.173  53.199  1.00  0.00     0.039 A 
HETATM   25  C2  UNL     1      28.686  -0.190  53.584  1.00  0.00    -0.035 A 
HETATM   26  C1  UNL     1      29.430   1.007  54.103  1.00  0.00     0.050 C 
HETATM   27  C3  UNL     1      29.456  -1.345  53.508  1.00  0.00     0.009 A 
HETATM   28  C4  UNL     1      28.832  -2.495  53.028  1.00  0.00     0.001 A 
HETATM   29  C5  UNL     1      27.515  -2.454  52.654  1.00  0.00     0.002 A 
HETATM   30  C6  UNL     1      26.739  -1.310  52.726  1.00  0.00     0.030 A 
ENDBRANCH  22  24
ENDBRANCH   1  22
TORSDOF 7
ENDMDL
MODEL 2
REMARK VINA RESULT:      -7.6      4.395      7.622
REMARK  7 active torsions:
REMARK  status: ('A' for Active; 'I' for Inactive)
REMARK    1  A    between atoms: C7_7  and  N1_8 
REMARK    2  A    between atoms: N1_8  and  C8_9 
REMARK    3  A    between atoms: C11_13  and  N3_14 
REMARK    4  A    between atoms: N3_14  and  C12_15 
REMARK       I    between atoms: N3_14  and  C13_17 
REMARK    5  A    between atoms: C13_17  and  C14_19 
REMARK    6  A    between atoms: C15_20  and  C16_21 
REMARK    7  A    between atoms: C16_21  and  N4_22 
ROOT
HETATM    1  C8  UNL     1      25.694   1.470  52.477  1.00  0.00     0.122 A 
HETATM    2  N2  UNL     1      26.422   2.386  51.902  1.00  0.00    -0.232 NA
HETATM    3  C9  UNL     1      25.800   3.149  50.863  1.00  0.00     0.083 A 
HETATM    4  C10 UNL     1      26.235   4.117  50.100  1.00  0.00     0.036 A 
HETATM    5  C11 UNL     1      25.174   4.601  49.139  1.00  0.00     0.140 A 
HETATM    6  C19 UNL     1      24.038   3.720  49.495  1.00  0.00     0.034 A 
HETATM    7  C20 UNL     1      24.410   2.908  50.470  1.00  0.00     0.055 A 
HETATM    8  N5  UNL     1      23.756   1.883  51.190  1.00  0.00    -0.381 N 
HETATM    9  C21 UNL     1      24.291   1.051  52.250  1.00  0.00     0.198 A 
HETATM   10  H24 UNL     1      22.762   1.677  50.955  1.00  0.00     0.160 HD
ENDROOT
BRANCH   5  11
HETATM   11  N3  UNL     1      24.813   5.984  49.489  1.00  0.00    -0.311 N 
HETATM   12  C13 UNL     1      25.472   7.076  48.863  1.00  0.00     0.245 C 
HETATM   13  O1  UNL     1      26.285   6.544  48.076  1.00  0.00    -0.268 OA
BRANCH  11  14
HETATM   14  C12 UNL     1      23.756   6.198  50.478  1.00  0.00     0.351 C 
HETATM   15  F1  UNL     1      24.249   6.376  51.746  1.00  0.00    -0.234 F 
ENDBRANCH  11  14
BRANCH  12  16
HETATM   16  C14 UNL     1      25.121   8.436  49.213  1.00  0.00     0.072 C 
HETATM   17  C15 UNL     1      25.897   9.338  49.770  1.00  0.00     0.008 C 
BRANCH  17  18
HETATM   18  C16 UNL     1      27.335   9.183  50.177  1.00  0.00     0.299 C 
BRANCH  18  19
HETATM   19  N4  UNL     1      28.230   9.611  49.149  1.00  0.00     0.083 N 
HETATM   20  C17 UNL     1      28.098  11.012  48.852  1.00  0.00     0.309 C 
HETATM   21  C18 UNL     1      29.604   9.234  49.348  1.00  0.00     0.309 C 
ENDBRANCH  18  19
ENDBRANCH  17  18
ENDBRANCH  12  16
ENDBRANCH   5  11
BRANCH   1  22
HETATM   22  N1  UNL     1      26.442   0.796  53.491  1.00  0.00    -0.343 N 
HETATM   23  H8  UNL     1      26.439   1.139  54.500  1.00  0.00     0.167 HD
BRANCH  22  24
HETATM   24  C7  UNL     1      27.256  -0.385  53.295  1.00  0.00     0.039 A 
HETATM   25  C2  UNL     1      28.567  -0.161  53.707  1.00  0.00    -0.035 A 
HETATM   26  C1  UNL     1      29.067   1.142  54.262  1.00  0.00     0.050 C 
HETATM   27  C3  UNL     1      29.539  -1.152  53.626  1.00  0.00     0.009 A 
HETATM   28  C4  UNL     1      29.149  -2.387  53.113  1.00  0.00     0.001 A 
HETATM   29  C5  UNL     1      27.853  -2.583  52.713  1.00  0.00     0.002 A 
HETATM   30  C6  UNL     1      26.877  -1.604  52.790  1.00  0.00     0.030 A 
ENDBRANCH  22  24
ENDBRANCH   1  22
TORSDOF 7
ENDMDL
MODEL 3
REMARK VINA RESULT:      -7.6      5.625      9.449
REMARK  7 active torsions:
REMARK  status: ('A' for Active; 'I' for Inactive)
REMARK    1  A    between atoms: C7_7  and  N1_8 
REMARK    2  A    between atoms: N1_8  and  C8_9 
REMARK    3  A    between atoms: C11_13  and  N3_14 
REMARK    4  A    between atoms: N3_14  and  C12_15 
REMARK       I    between atoms: N3_14  and  C13_17 
REMARK    5  A    between atoms: C13_17  and  C14_19 
REMARK    6  A    between atoms: C15_20  and  C16_21 
REMARK    7  A    between atoms: C16_21  and  N4_22 
ROOT
HETATM    1  C8  UNL     1      25.951   2.792  51.105  1.00  0.00     0.122 A 
HETATM    2  N2  UNL     1      26.804   3.248  50.233  1.00  0.00    -0.232 NA
HETATM    3  C9  UNL     1      26.514   4.521  49.647  1.00  0.00     0.083 A 
HETATM    4  C10 UNL     1      27.143   5.248  48.761  1.00  0.00     0.036 A 
HETATM    5  C11 UNL     1      26.415   6.539  48.467  1.00  0.00     0.140 A 
HETATM    6  C19 UNL     1      25.239   6.416  49.358  1.00  0.00     0.034 A 
HETATM    7  C20 UNL     1      25.312   5.272  50.016  1.00  0.00     0.055 A 
HETATM    8  N5  UNL     1      24.488   4.643  50.977  1.00  0.00    -0.381 N 
HETATM    9  C21 UNL     1      24.685   3.361  51.625  1.00  0.00     0.198 A 
HETATM   10  H24 UNL     1      23.623   5.140  51.281  1.00  0.00     0.160 HD
ENDROOT
BRANCH   5  11
HETATM   11  N3  UNL     1      27.237   7.665  48.941  1.00  0.00    -0.311 N 
HETATM   12  C13 UNL     1      28.453   7.990  48.282  1.00  0.00     0.245 C 
HETATM   13  O1  UNL     1      28.541   7.157  47.354  1.00  0.00    -0.268 OA
BRANCH  11  14
HETATM   14  C12 UNL     1      26.762   8.438  50.088  1.00  0.00     0.351 C 
HETATM   15  F1  UNL     1      26.147   9.607  49.717  1.00  0.00    -0.234 F 
ENDBRANCH  11  14
BRANCH  12  16
HETATM   16  C14 UNL     1      29.264   9.092  48.753  1.00  0.00     0.072 C 
HETATM   17  C15 UNL     1      30.501   9.037  49.194  1.00  0.00     0.008 C 
BRANCH  17  18
HETATM   18  C16 UNL     1      31.375   7.821  49.316  1.00  0.00     0.299 C 
BRANCH  18  19
HETATM   19  N4  UNL     1      32.260   7.686  48.202  1.00  0.00     0.083 N 
HETATM   20  C17 UNL     1      33.642   7.827  48.575  1.00  0.00     0.309 C 
HETATM   21  C18 UNL     1      32.041   6.516  47.393  1.00  0.00     0.309 C 
ENDBRANCH  18  19
ENDBRANCH  17  18
ENDBRANCH  12  16
ENDBRANCH   5  11
BRANCH   1  22
HETATM   22  N1  UNL     1      26.371   1.521  51.605  1.00  0.00    -0.343 N 
HETATM   23  H8  UNL     1      25.941   0.616  51.243  1.00  0.00     0.167 HD
BRANCH  22  24
HETATM   24  C7  UNL     1      27.389   1.304  52.610  1.00  0.00     0.039 A 
HETATM   25  C2  UNL     1      27.523  -0.052  52.900  1.00  0.00    -0.035 A 
HETATM   26  C1  UNL     1      26.702  -1.137  52.264  1.00  0.00     0.050 C 
HETATM   27  C3  UNL     1      28.446  -0.514  53.832  1.00  0.00     0.009 A 
HETATM   28  C4  UNL     1      29.239   0.438  54.469  1.00  0.00     0.001 A 
HETATM   29  C5  UNL     1      29.089   1.766  54.167  1.00  0.00     0.002 A 
HETATM   30  C6  UNL     1      28.174   2.237  53.241  1.00  0.00     0.030 A 
ENDBRANCH  22  24
ENDBRANCH   1  22
TORSDOF 7
ENDMDL
MODEL 4
REMARK VINA RESULT:      -7.6      3.300      6.413
REMARK  7 active torsions:
REMARK  status: ('A' for Active; 'I' for Inactive)
REMARK    1  A    between atoms: C7_7  and  N1_8 
REMARK    2  A    between atoms: N1_8  and  C8_9 
REMARK    3  A    between atoms: C11_13  and  N3_14 
REMARK    4  A    between atoms: N3_14  and  C12_15 
REMARK       I    between atoms: N3_14  and  C13_17 
REMARK    5  A    between atoms: C13_17  and  C14_19 
REMARK    6  A    between atoms: C15_20  and  C16_21 
REMARK    7  A    between atoms: C16_21  and  N4_22 
ROOT
HETATM    1  C8  UNL     1      24.433  -0.091  53.294  1.00  0.00     0.122 A 
HETATM    2  N2  UNL     1      24.922   0.767  52.444  1.00  0.00    -0.232 NA
HETATM    3  C9  UNL     1      23.988   1.620  51.774  1.00  0.00     0.083 A 
HETATM    4  C10 UNL     1      24.138   2.565  50.884  1.00  0.00     0.036 A 
HETATM    5  C11 UNL     1      22.817   3.180  50.482  1.00  0.00     0.140 A 
HETATM    6  C19 UNL     1      21.871   2.402  51.314  1.00  0.00     0.034 A 
HETATM    7  C20 UNL     1      22.550   1.527  52.037  1.00  0.00     0.055 A 
HETATM    8  N5  UNL     1      22.179   0.548  52.986  1.00  0.00    -0.381 N 
HETATM    9  C21 UNL     1      23.038  -0.366  53.713  1.00  0.00     0.198 A 
HETATM   10  H24 UNL     1      21.167   0.446  53.215  1.00  0.00     0.160 HD
ENDROOT
BRANCH   5  11
HETATM   11  N3  UNL     1      22.788   4.579  50.936  1.00  0.00    -0.311 N 
HETATM   12  C13 UNL     1      23.015   5.636  50.013  1.00  0.00     0.245 C 
HETATM   13  O1  UNL     1      23.201   5.063  48.917  1.00  0.00    -0.268 OA
BRANCH  11  14
HETATM   14  C12 UNL     1      22.506   4.847  52.346  1.00  0.00     0.351 C 
HETATM   15  F1  UNL     1      23.646   4.928  53.106  1.00  0.00    -0.234 F 
ENDBRANCH  11  14
BRANCH  12  16
HETATM   16  C14 UNL     1      22.993   7.011  50.462  1.00  0.00     0.072 C 
HETATM   17  C15 UNL     1      24.026   7.800  50.658  1.00  0.00     0.008 C 
BRANCH  17  18
HETATM   18  C16 UNL     1      25.479   7.469  50.465  1.00  0.00     0.299 C 
BRANCH  18  19
HETATM   19  N4  UNL     1      26.107   8.350  49.531  1.00  0.00     0.083 N 
HETATM   20  C17 UNL     1      27.231   9.046  50.098  1.00  0.00     0.309 C 
HETATM   21  C18 UNL     1      26.432   7.754  48.262  1.00  0.00     0.309 C 
ENDBRANCH  18  19
ENDBRANCH  17  18
ENDBRANCH  12  16
ENDBRANCH   5  11
BRANCH   1  22
HETATM   22  N1  UNL     1      25.478  -0.867  53.884  1.00  0.00    -0.343 N 
HETATM   23  H8  UNL     1      25.284  -1.829  54.299  1.00  0.00     0.167 HD
BRANCH  22  24
HETATM   24  C7  UNL     1      26.866  -0.473  53.987  1.00  0.00     0.039 A 
HETATM   25  C2  UNL     1      27.680  -1.310  53.228  1.00  0.00    -0.035 A 
HETATM   26  C1  UNL     1      27.178  -2.478  52.427  1.00  0.00     0.050 C 
HETATM   27  C3  UNL     1      29.057  -1.129  53.159  1.00  0.00     0.009 A 
HETATM   28  C4  UNL     1      29.596  -0.068  53.884  1.00  0.00     0.001 A 
HETATM   29  C5  UNL     1      28.775   0.742  54.624  1.00  0.00     0.002 A 
HETATM   30  C6  UNL     1      27.404   0.571  54.699  1.00  0.00     0.030 A 
ENDBRANCH  22  24
ENDBRANCH   1  22
TORSDOF 7
ENDMDL
MODEL 5
REMARK VINA RESULT:      -7.5      4.660      8.331
REMARK  7 active torsions:
REMARK  status: ('A' for Active; 'I' for Inactive)
REMARK    1  A    between atoms: C7_7  and  N1_8 
REMARK    2  A    between atoms: N1_8  and  C8_9 
REMARK    3  A    between atoms: C11_13  and  N3_14 
REMARK    4  A    between atoms: N3_14  and  C12_15 
REMARK       I    between atoms: N3_14  and  C13_17 
REMARK    5  A    between atoms: C13_17  and  C14_19 
REMARK    6  A    between atoms: C15_20  and  C16_21 
REMARK    7  A    between atoms: C16_21  and  N4_22 
ROOT
HETATM    1  C8  UNL     1      25.259   1.129  52.174  1.00  0.00     0.122 A 
HETATM    2  N2  UNL     1      26.210   1.833  51.629  1.00  0.00    -0.232 NA
HETATM    3  C9  UNL     1      25.813   2.857  50.712  1.00  0.00     0.083 A 
HETATM    4  C10 UNL     1      26.494   3.722  50.006  1.00  0.00     0.036 A 
HETATM    5  C11 UNL     1      25.595   4.608  49.175  1.00  0.00     0.140 A 
HETATM    6  C19 UNL     1      24.258   4.085  49.537  1.00  0.00     0.034 A 
HETATM    7  C20 UNL     1      24.401   3.098  50.406  1.00  0.00     0.055 A 
HETATM    8  N5  UNL     1      23.492   2.252  51.080  1.00  0.00    -0.381 N 
HETATM    9  C21 UNL     1      23.787   1.186  52.018  1.00  0.00     0.198 A 
HETATM   10  H24 UNL     1      22.473   2.387  50.904  1.00  0.00     0.160 HD
ENDROOT
BRANCH   5  11
HETATM   11  N3  UNL     1      25.700   5.989  49.673  1.00  0.00    -0.311 N 
HETATM   12  C13 UNL     1      26.674   6.872  49.133  1.00  0.00     0.245 C 
HETATM   13  O1  UNL     1      27.269   6.194  48.267  1.00  0.00    -0.268 OA
BRANCH  11  14
HETATM   14  C12 UNL     1      24.773   6.425  50.717  1.00  0.00     0.351 C 
HETATM   15  F1  UNL     1      23.782   7.242  50.234  1.00  0.00    -0.234 F 
ENDBRANCH  11  14
BRANCH  12  16
HETATM   16  C14 UNL     1      26.781   8.228  49.627  1.00  0.00     0.072 C 
HETATM   17  C15 UNL     1      27.791   9.054  49.467  1.00  0.00     0.008 C 
BRANCH  17  18
HETATM   18  C16 UNL     1      29.076   8.797  48.732  1.00  0.00     0.299 C 
BRANCH  18  19
HETATM   19  N4  UNL     1      30.211   9.258  49.467  1.00  0.00     0.083 N 
HETATM   20  C17 UNL     1      31.315   8.337  49.413  1.00  0.00     0.309 C 
HETATM   21  C18 UNL     1      30.623  10.603  49.162  1.00  0.00     0.309 C 
ENDBRANCH  18  19
ENDBRANCH  17  18
ENDBRANCH  12  16
ENDBRANCH   5  11
BRANCH   1  22
HETATM   22  N1  UNL     1      25.804   0.152  53.065  1.00  0.00    -0.343 N 
HETATM   23  H8  UNL     1      25.179  -0.561  53.551  1.00  0.00     0.167 HD
BRANCH  22  24
HETATM   24  C7  UNL     1      27.203   0.005  53.403  1.00  0.00     0.039 A 
HETATM   25  C2  UNL     1      27.696  -1.221  52.964  1.00  0.00    -0.035 A 
HETATM   26  C1  UNL     1      26.873  -2.257  52.252  1.00  0.00     0.050 C 
HETATM   27  C3  UNL     1      29.021  -1.593  53.165  1.00  0.00     0.009 A 
HETATM   28  C4  UNL     1      29.844  -0.684  53.826  1.00  0.00     0.001 A 
HETATM   29  C5  UNL     1      29.336   0.517  54.250  1.00  0.00     0.002 A 
HETATM   30  C6  UNL     1      28.019   0.897  54.055  1.00  0.00     0.030 A 
ENDBRANCH  22  24
ENDBRANCH   1  22
TORSDOF 7
ENDMDL
MODEL 6
REMARK VINA RESULT:      -7.4      5.032      8.633
REMARK  7 active torsions:
REMARK  status: ('A' for Active; 'I' for Inactive)
REMARK    1  A    between atoms: C7_7  and  N1_8 
REMARK    2  A    between atoms: N1_8  and  C8_9 
REMARK    3  A    between atoms: C11_13  and  N3_14 
REMARK    4  A    between atoms: N3_14  and  C12_15 
REMARK       I    between atoms: N3_14  and  C13_17 
REMARK    5  A    between atoms: C13_17  and  C14_19 
REMARK    6  A    between atoms: C15_20  and  C16_21 
REMARK    7  A    between atoms: C16_21  and  N4_22 
ROOT
HETATM    1  C8  UNL     1      23.680   2.639  51.487  1.00  0.00     0.122 A 
HETATM    2  N2  UNL     1      23.689   2.963  50.225  1.00  0.00    -0.232 NA
HETATM    3  C9  UNL     1      23.950   4.335  49.911  1.00  0.00     0.083 A 
HETATM    4  C10 UNL     1      24.027   4.981  48.777  1.00  0.00     0.036 A 
HETATM    5  C11 UNL     1      24.330   6.447  48.980  1.00  0.00     0.140 A 
HETATM    6  C19 UNL     1      24.410   6.524  50.456  1.00  0.00     0.034 A 
HETATM    7  C20 UNL     1      24.193   5.323  50.965  1.00  0.00     0.055 A 
HETATM    8  N5  UNL     1      24.151   4.813  52.282  1.00  0.00    -0.381 N 
HETATM    9  C21 UNL     1      23.892   3.452  52.708  1.00  0.00     0.198 A 
HETATM   10  H24 UNL     1      24.326   5.474  53.069  1.00  0.00     0.160 HD
ENDROOT
BRANCH   5  11
HETATM   11  N3  UNL     1      25.664   6.736  48.430  1.00  0.00    -0.311 N 
HETATM   12  C13 UNL     1      25.816   7.683  47.381  1.00  0.00     0.245 C 
HETATM   13  O1  UNL     1      24.656   8.093  47.156  1.00  0.00    -0.268 OA
BRANCH  11  14
HETATM   14  C12 UNL     1      26.817   6.039  48.998  1.00  0.00     0.351 C 
HETATM   15  F1  UNL     1      27.224   4.978  48.229  1.00  0.00    -0.234 F 
ENDBRANCH  11  14
BRANCH  12  16
HETATM   16  C14 UNL     1      27.127   7.962  46.836  1.00  0.00     0.072 C 
HETATM   17  C15 UNL     1      27.902   8.986  47.117  1.00  0.00     0.008 C 
BRANCH  17  18
HETATM   18  C16 UNL     1      27.621  10.113  48.070  1.00  0.00     0.299 C 
BRANCH  18  19
HETATM   19  N4  UNL     1      28.272   9.923  49.327  1.00  0.00     0.083 N 
HETATM   20  C17 UNL     1      27.402   9.348  50.318  1.00  0.00     0.309 C 
HETATM   21  C18 UNL     1      29.532   9.233  49.257  1.00  0.00     0.309 C 
ENDBRANCH  18  19
ENDBRANCH  17  18
ENDBRANCH  12  16
ENDBRANCH   5  11
BRANCH   1  22
HETATM   22  N1  UNL     1      23.412   1.244  51.646  1.00  0.00    -0.343 N 
HETATM   23  H8  UNL     1      23.786   0.527  50.953  1.00  0.00     0.167 HD
BRANCH  22  24
HETATM   24  C7  UNL     1      22.642   0.649  52.718  1.00  0.00     0.039 A 
HETATM   25  C2  UNL     1      23.430  -0.210  53.481  1.00  0.00    -0.035 A 
HETATM   26  C1  UNL     1      24.880  -0.491  53.209  1.00  0.00     0.050 C 
HETATM   27  C3  UNL     1      22.917  -0.896  54.576  1.00  0.00     0.009 A 
HETATM   28  C4  UNL     1      21.574  -0.690  54.884  1.00  0.00     0.001 A 
HETATM   29  C5  UNL     1      20.818   0.160  54.119  1.00  0.00     0.002 A 
HETATM   30  C6  UNL     1      21.319   0.848  53.027  1.00  0.00     0.030 A 
ENDBRANCH  22  24
ENDBRANCH   1  22
TORSDOF 7
ENDMDL
MODEL 7
REMARK VINA RESULT:      -7.3      2.109      2.789
REMARK  7 active torsions:
REMARK  status: ('A' for Active; 'I' for Inactive)
REMARK    1  A    between atoms: C7_7  and  N1_8 
REMARK    2  A    between atoms: N1_8  and  C8_9 
REMARK    3  A    between atoms: C11_13  and  N3_14 
REMARK    4  A    between atoms: N3_14  and  C12_15 
REMARK       I    between atoms: N3_14  and  C13_17 
REMARK    5  A    between atoms: C13_17  and  C14_19 
REMARK    6  A    between atoms: C15_20  and  C16_21 
REMARK    7  A    between atoms: C16_21  and  N4_22 
ROOT
HETATM    1  C8  UNL     1      24.951   0.873  52.624  1.00  0.00     0.122 A 
HETATM    2  N2  UNL     1      24.437   1.493  51.599  1.00  0.00    -0.232 NA
HETATM    3  C9  UNL     1      23.049   1.267  51.335  1.00  0.00     0.083 A 
HETATM    4  C10 UNL     1      22.242   1.718  50.411  1.00  0.00     0.036 A 
HETATM    5  C11 UNL     1      20.842   1.172  50.564  1.00  0.00     0.140 A 
HETATM    6  C19 UNL     1      20.997   0.313  51.760  1.00  0.00     0.034 A 
HETATM    7  C20 UNL     1      22.248   0.379  52.181  1.00  0.00     0.055 A 
HETATM    8  N5  UNL     1      22.951  -0.216  53.253  1.00  0.00    -0.381 N 
HETATM    9  C21 UNL     1      24.349  -0.061  53.604  1.00  0.00     0.198 A 
HETATM   10  H24 UNL     1      22.425  -0.851  53.891  1.00  0.00     0.160 HD
ENDROOT
BRANCH   5  11
HETATM   11  N3  UNL     1      19.936   2.280  50.907  1.00  0.00    -0.311 N 
HETATM   12  C13 UNL     1      19.045   2.805  49.932  1.00  0.00     0.245 C 
HETATM   13  O1  UNL     1      19.264   2.122  48.907  1.00  0.00    -0.268 OA
BRANCH  11  14
HETATM   14  C12 UNL     1      19.968   2.809  52.270  1.00  0.00     0.351 C 
HETATM   15  F1  UNL     1      20.784   3.906  52.391  1.00  0.00    -0.234 F 
ENDBRANCH  11  14
BRANCH  12  16
HETATM   16  C14 UNL     1      18.160   3.898  50.268  1.00  0.00     0.072 C 
HETATM   17  C15 UNL     1      16.872   3.828  50.524  1.00  0.00     0.008 C 
BRANCH  17  18
HETATM   18  C16 UNL     1      16.007   2.599  50.532  1.00  0.00     0.299 C 
BRANCH  18  19
HETATM   19  N4  UNL     1      16.040   1.932  51.794  1.00  0.00     0.083 N 
HETATM   20  C17 UNL     1      14.810   2.075  52.527  1.00  0.00     0.309 C 
HETATM   21  C18 UNL     1      16.475   0.561  51.743  1.00  0.00     0.309 C 
ENDBRANCH  18  19
ENDBRANCH  17  18
ENDBRANCH  12  16
ENDBRANCH   5  11
BRANCH   1  22
HETATM   22  N1  UNL     1      26.336   1.196  52.765  1.00  0.00    -0.343 N 
HETATM   23  H8  UNL     1      26.673   2.206  52.729  1.00  0.00     0.167 HD
BRANCH  22  24
HETATM   24  C7  UNL     1      27.407   0.246  52.971  1.00  0.00     0.039 A 
HETATM   25  C2  UNL     1      28.559   0.884  53.427  1.00  0.00    -0.035 A 
HETATM   26  C1  UNL     1      28.671   2.364  53.654  1.00  0.00     0.050 C 
HETATM   27  C3  UNL     1      29.725   0.179  53.706  1.00  0.00     0.009 A 
HETATM   28  C4  UNL     1      29.697  -1.200  53.512  1.00  0.00     0.001 A 
HETATM   29  C5  UNL     1      28.552  -1.805  53.062  1.00  0.00     0.002 A 
HETATM   30  C6  UNL     1      27.387  -1.114  52.782  1.00  0.00     0.030 A 
ENDBRANCH  22  24
ENDBRANCH   1  22
TORSDOF 7
ENDMDL
MODEL 8
REMARK VINA RESULT:      -7.3      2.083      2.743
REMARK  7 active torsions:
REMARK  status: ('A' for Active; 'I' for Inactive)
REMARK    1  A    between atoms: C7_7  and  N1_8 
REMARK    2  A    between atoms: N1_8  and  C8_9 
REMARK    3  A    between atoms: C11_13  and  N3_14 
REMARK    4  A    between atoms: N3_14  and  C12_15 
REMARK       I    between atoms: N3_14  and  C13_17 
REMARK    5  A    between atoms: C13_17  and  C14_19 
REMARK    6  A    between atoms: C15_20  and  C16_21 
REMARK    7  A    between atoms: C16_21  and  N4_22 
ROOT
HETATM    1  C8  UNL     1      24.613   0.627  52.572  1.00  0.00     0.122 A 
HETATM    2  N2  UNL     1      23.467   0.340  53.123  1.00  0.00    -0.232 NA
HETATM    3  C9  UNL     1      22.374   1.219  52.841  1.00  0.00     0.083 A 
HETATM    4  C10 UNL     1      21.124   1.222  53.223  1.00  0.00     0.036 A 
HETATM    5  C11 UNL     1      20.356   2.387  52.641  1.00  0.00     0.140 A 
HETATM    6  C19 UNL     1      21.410   3.060  51.848  1.00  0.00     0.034 A 
HETATM    7  C20 UNL     1      22.542   2.386  51.972  1.00  0.00     0.055 A 
HETATM    8  N5  UNL     1      23.843   2.559  51.450  1.00  0.00    -0.381 N 
HETATM    9  C21 UNL     1      25.016   1.737  51.676  1.00  0.00     0.198 A 
HETATM   10  H24 UNL     1      24.015   3.371  50.819  1.00  0.00     0.160 HD
ENDROOT
BRANCH   5  11
HETATM   11  N3  UNL     1      19.340   1.868  51.711  1.00  0.00    -0.311 N 
HETATM   12  C13 UNL     1      18.179   2.633  51.421  1.00  0.00     0.245 C 
HETATM   13  O1  UNL     1      18.315   3.680  52.092  1.00  0.00    -0.268 OA
BRANCH  11  14
HETATM   14  C12 UNL     1      19.566   0.563  51.092  1.00  0.00     0.351 C 
HETATM   15  F1  UNL     1      18.798  -0.427  51.652  1.00  0.00    -0.234 F 
ENDBRANCH  11  14
BRANCH  12  16
HETATM   16  C14 UNL     1      17.177   2.120  50.512  1.00  0.00     0.072 C 
HETATM   17  C15 UNL     1      16.016   1.588  50.827  1.00  0.00     0.008 C 
BRANCH  17  18
HETATM   18  C16 UNL     1      15.447   1.385  52.203  1.00  0.00     0.299 C 
BRANCH  18  19
HETATM   19  N4  UNL     1      14.388   2.303  52.482  1.00  0.00     0.083 N 
HETATM   20  C17 UNL     1      13.336   1.711  53.265  1.00  0.00     0.309 C 
HETATM   21  C18 UNL     1      14.810   3.567  53.023  1.00  0.00     0.309 C 
ENDBRANCH  18  19
ENDBRANCH  17  18
ENDBRANCH  12  16
ENDBRANCH   5  11
BRANCH   1  22
HETATM   22  N1  UNL     1      25.603  -0.335  52.938  1.00  0.00    -0.343 N 
HETATM   23  H8  UNL     1      25.381  -1.377  52.957  1.00  0.00     0.167 HD
BRANCH  22  24
HETATM   24  C7  UNL     1      26.971  -0.040  53.307  1.00  0.00     0.039 A 
HETATM   25  C2  UNL     1      27.800  -1.134  53.069  1.00  0.00    -0.035 A 
HETATM   26  C1  UNL     1      27.325  -2.449  52.519  1.00  0.00     0.050 C 
HETATM   27  C3  UNL     1      29.163  -1.092  53.337  1.00  0.00     0.009 A 
HETATM   28  C4  UNL     1      29.674   0.095  53.856  1.00  0.00     0.001 A 
HETATM   29  C5  UNL     1      28.839   1.158  54.083  1.00  0.00     0.002 A 
HETATM   30  C6  UNL     1      27.480   1.128  53.819  1.00  0.00     0.030 A 
ENDBRANCH  22  24
ENDBRANCH   1  22
TORSDOF 7
ENDMDL
MODEL 9
REMARK VINA RESULT:      -7.2      3.135      4.302
REMARK  7 active torsions:
REMARK  status: ('A' for Active; 'I' for Inactive)
REMARK    1  A    between atoms: C7_7  and  N1_8 
REMARK    2  A    between atoms: N1_8  and  C8_9 
REMARK    3  A    between atoms: C11_13  and  N3_14 
REMARK    4  A    between atoms: N3_14  and  C12_15 
REMARK       I    between atoms: N3_14  and  C13_17 
REMARK    5  A    between atoms: C13_17  and  C14_19 
REMARK    6  A    between atoms: C15_20  and  C16_21 
REMARK    7  A    between atoms: C16_21  and  N4_22 
ROOT
HETATM    1  C8  UNL     1      23.212  -0.694  53.852  1.00  0.00     0.122 A 
HETATM    2  N2  UNL     1      22.934  -0.220  52.671  1.00  0.00    -0.232 NA
HETATM    3  C9  UNL     1      21.554   0.024  52.379  1.00  0.00     0.083 A 
HETATM    4  C10 UNL     1      20.945   0.483  51.317  1.00  0.00     0.036 A 
HETATM    5  C11 UNL     1      19.448   0.556  51.509  1.00  0.00     0.140 A 
HETATM    6  C19 UNL     1      19.310   0.046  52.893  1.00  0.00     0.034 A 
HETATM    7  C20 UNL     1      20.508  -0.249  53.367  1.00  0.00     0.055 A 
HETATM    8  N5  UNL     1      20.972  -0.758  54.601  1.00  0.00    -0.381 N 
HETATM    9  C21 UNL     1      22.337  -1.046  54.995  1.00  0.00     0.198 A 
HETATM   10  H24 UNL     1      20.268  -0.962  55.343  1.00  0.00     0.160 HD
ENDROOT
BRANCH   5  11
HETATM   11  N3  UNL     1      19.037   1.969  51.495  1.00  0.00    -0.311 N 
HETATM   12  C13 UNL     1      17.672   2.315  51.304  1.00  0.00     0.245 C 
HETATM   13  O1  UNL     1      17.082   1.218  51.186  1.00  0.00    -0.268 OA
BRANCH  11  14
HETATM   14  C12 UNL     1      20.061   2.993  51.697  1.00  0.00     0.351 C 
HETATM   15  F1  UNL     1      20.347   3.199  53.023  1.00  0.00    -0.234 F 
ENDBRANCH  11  14
BRANCH  12  16
HETATM   16  C14 UNL     1      17.269   3.704  51.283  1.00  0.00     0.072 C 
HETATM   17  C15 UNL     1      16.249   4.245  51.912  1.00  0.00     0.008 C 
BRANCH  17  18
HETATM   18  C16 UNL     1      15.255   3.556  52.804  1.00  0.00     0.299 C 
BRANCH  18  19
HETATM   19  N4  UNL     1      13.933   4.066  52.623  1.00  0.00     0.083 N 
HETATM   20  C17 UNL     1      13.186   3.328  51.639  1.00  0.00     0.309 C 
HETATM   21  C18 UNL     1      13.182   4.248  53.837  1.00  0.00     0.309 C 
ENDBRANCH  18  19
ENDBRANCH  17  18
ENDBRANCH  12  16
ENDBRANCH   5  11
BRANCH   1  22
HETATM   22  N1  UNL     1      24.621  -0.882  54.000  1.00  0.00    -0.343 N 
HETATM   23  H8  UNL     1      25.020  -1.803  54.358  1.00  0.00     0.167 HD
BRANCH  22  24
HETATM   24  C7  UNL     1      25.640   0.098  53.695  1.00  0.00     0.039 A 
HETATM   25  C2  UNL     1      26.682  -0.474  52.970  1.00  0.00    -0.035 A 
HETATM   26  C1  UNL     1      26.742  -1.923  52.577  1.00  0.00     0.050 C 
HETATM   27  C3  UNL     1      27.779   0.271  52.552  1.00  0.00     0.009 A 
HETATM   28  C4  UNL     1      27.796   1.623  52.887  1.00  0.00     0.001 A 
HETATM   29  C5  UNL     1      26.759   2.164  53.602  1.00  0.00     0.002 A 
HETATM   30  C6  UNL     1      25.663   1.432  54.023  1.00  0.00     0.030 A 
ENDBRANCH  22  24
ENDBRANCH   1  22
TORSDOF 7
ENDMDL
