MODEL 1
REMARK VINA RESULT:      -8.1      0.000      0.000
REMARK  2 active torsions:
REMARK  status: ('A' for Active; 'I' for Inactive)
REMARK    1  A    between atoms: C2_2  and  O1_3 
REMARK    2  A    between atoms: O1_3  and  C3_4 
ROOT
HETATM    1  C3  UNL     1      25.645   2.852  51.858  1.00  0.00     0.106 C 
HETATM    2  C4  UNL     1      24.532   3.455  51.981  1.00  0.00     0.071 C 
HETATM    3  C5  UNL     1      23.473   4.351  51.750  1.00  0.00     0.082 A 
HETATM    4  N1  UNL     1      23.789   5.485  51.253  1.00  0.00    -0.243 NA
HETATM    5  C6  UNL     1      22.548   6.217  51.109  1.00  0.00     0.230 A 
HETATM    6  N2  UNL     1      21.555   5.514  51.514  1.00  0.00    -0.251 NA
HETATM    7  C7  UNL     1      22.024   4.247  51.970  1.00  0.00     0.262 A 
HETATM    8  N3  UNL     1      21.524   3.108  51.240  1.00  0.00    -0.356 N 
HETATM    9  C8  UNL     1      21.352   1.889  51.995  1.00  0.00     0.125 C 
HETATM   10  C9  UNL     1      21.732   0.696  51.501  1.00  0.00     0.089 C 
HETATM   11  C10 UNL     1      21.529   0.587  50.060  1.00  0.00     0.036 C 
HETATM   12  C11 UNL     1      21.021   1.618  49.431  1.00  0.00    -0.004 C 
HETATM   13  C12 UNL     1      21.175   3.030  49.859  1.00  0.00     0.152 C 
HETATM   14  O2  UNL     1      22.246  -0.209  52.440  1.00  0.00    -0.321 OA
HETATM   15  C13 UNL     1      23.374   0.181  53.207  1.00  0.00     0.145 C 
HETATM   16  C14 UNL     1      24.623   0.347  52.816  1.00  0.00     0.064 C 
HETATM   17  C15 UNL     1      26.045   0.645  52.873  1.00  0.00     0.106 C 
HETATM   18  C16 UNL     1      26.442   1.818  52.414  1.00  0.00     0.135 C 
HETATM   19  O3  UNL     1      27.806   2.027  52.505  1.00  0.00    -0.344 OA
HETATM   20  C17 UNL     1      28.585   1.395  53.509  1.00  0.00     0.202 C 
HETATM   21  C18 UNL     1      28.318  -0.090  53.424  1.00  0.00     0.202 C 
HETATM   22  O4  UNL     1      26.916  -0.285  53.393  1.00  0.00    -0.346 OA
ENDROOT
BRANCH   1  23
HETATM   23  O1  UNL     1      25.973   3.625  50.802  1.00  0.00    -0.348 OA
BRANCH  23  24
HETATM   24  C2  UNL     1      26.433   3.197  49.547  1.00  0.00     0.171 C 
HETATM   25  C1  UNL     1      27.184   4.372  48.937  1.00  0.00     0.034 C 
ENDBRANCH  23  24
ENDBRANCH   1  23
TORSDOF 2
ENDMDL
MODEL 2
REMARK VINA RESULT:      -7.8      1.577      4.428
REMARK  2 active torsions:
REMARK  status: ('A' for Active; 'I' for Inactive)
REMARK    1  A    between atoms: C2_2  and  O1_3 
REMARK    2  A    between atoms: O1_3  and  C3_4 
ROOT
HETATM    1  C3  UNL     1      25.164   0.417  53.152  1.00  0.00     0.106 C 
HETATM    2  C4  UNL     1      24.184   0.546  52.351  1.00  0.00     0.071 C 
HETATM    3  C5  UNL     1      22.869   0.578  51.854  1.00  0.00     0.082 A 
HETATM    4  N1  UNL     1      22.033  -0.213  52.411  1.00  0.00    -0.243 NA
HETATM    5  C6  UNL     1      20.771   0.004  51.737  1.00  0.00     0.230 A 
HETATM    6  N2  UNL     1      20.888   0.895  50.822  1.00  0.00    -0.251 NA
HETATM    7  C7  UNL     1      22.234   1.364  50.787  1.00  0.00     0.262 A 
HETATM    8  N3  UNL     1      22.404   2.766  51.080  1.00  0.00    -0.356 N 
HETATM    9  C8  UNL     1      23.497   3.432  50.412  1.00  0.00     0.125 C 
HETATM   10  C9  UNL     1      24.304   4.289  51.065  1.00  0.00     0.089 C 
HETATM   11  C10 UNL     1      23.599   5.074  52.073  1.00  0.00     0.036 C 
HETATM   12  C11 UNL     1      22.314   4.869  52.226  1.00  0.00    -0.004 C 
HETATM   13  C12 UNL     1      21.624   3.585  51.949  1.00  0.00     0.152 C 
HETATM   14  O2  UNL     1      25.648   4.272  50.669  1.00  0.00    -0.321 OA
HETATM   15  C13 UNL     1      26.363   3.049  50.756  1.00  0.00     0.145 C 
HETATM   16  C14 UNL     1      26.764   2.399  51.832  1.00  0.00     0.064 C 
HETATM   17  C15 UNL     1      27.377   1.374  52.660  1.00  0.00     0.106 C 
HETATM   18  C16 UNL     1      26.578   0.495  53.236  1.00  0.00     0.135 C 
HETATM   19  O3  UNL     1      27.236  -0.448  54.004  1.00  0.00    -0.344 OA
HETATM   20  C17 UNL     1      28.570  -0.836  53.714  1.00  0.00     0.202 C 
HETATM   21  C18 UNL     1      29.406   0.422  53.654  1.00  0.00     0.202 C 
HETATM   22  O4  UNL     1      28.744   1.351  52.815  1.00  0.00    -0.346 OA
ENDROOT
BRANCH   1  23
HETATM   23  O1  UNL     1      24.325   0.112  54.165  1.00  0.00    -0.348 OA
BRANCH  23  24
HETATM   24  C2  UNL     1      24.395  -0.996  55.021  1.00  0.00     0.171 C 
HETATM   25  C1  UNL     1      22.964  -1.332  55.414  1.00  0.00     0.034 C 
ENDBRANCH  23  24
ENDBRANCH   1  23
TORSDOF 2
ENDMDL
MODEL 3
REMARK VINA RESULT:      -7.0      2.017      3.669
REMARK  2 active torsions:
REMARK  status: ('A' for Active; 'I' for Inactive)
REMARK    1  A    between atoms: C2_2  and  O1_3 
REMARK    2  A    between atoms: O1_3  and  C3_4 
ROOT
HETATM    1  C3  UNL     1      23.126   1.620  52.714  1.00  0.00     0.106 C 
HETATM    2  C4  UNL     1      22.803   2.757  52.244  1.00  0.00     0.071 C 
HETATM    3  C5  UNL     1      22.909   4.049  51.699  1.00  0.00     0.082 A 
HETATM    4  N1  UNL     1      23.947   4.718  52.028  1.00  0.00    -0.243 NA
HETATM    5  C6  UNL     1      23.830   5.992  51.350  1.00  0.00     0.230 A 
HETATM    6  N2  UNL     1      22.753   6.043  50.656  1.00  0.00    -0.251 NA
HETATM    7  C7  UNL     1      22.040   4.816  50.796  1.00  0.00     0.262 A 
HETATM    8  N3  UNL     1      21.862   4.067  49.577  1.00  0.00    -0.356 N 
HETATM    9  C8  UNL     1      20.652   3.286  49.477  1.00  0.00     0.125 C 
HETATM   10  C9  UNL     1      20.663   2.029  48.992  1.00  0.00     0.089 C 
HETATM   11  C10 UNL     1      21.631   1.845  47.916  1.00  0.00     0.036 C 
HETATM   12  C11 UNL     1      22.353   2.877  47.555  1.00  0.00    -0.004 C 
HETATM   13  C12 UNL     1      22.732   3.999  48.448  1.00  0.00     0.152 C 
HETATM   14  O2  UNL     1      19.762   1.142  49.597  1.00  0.00    -0.321 OA
HETATM   15  C13 UNL     1      19.856   0.933  50.997  1.00  0.00     0.145 C 
HETATM   16  C14 UNL     1      20.795   0.305  51.679  1.00  0.00     0.064 C 
HETATM   17  C15 UNL     1      21.527  -0.249  52.807  1.00  0.00     0.106 C 
HETATM   18  C16 UNL     1      22.589   0.412  53.229  1.00  0.00     0.135 C 
HETATM   19  O3  UNL     1      23.228  -0.176  54.305  1.00  0.00    -0.344 OA
HETATM   20  C17 UNL     1      22.520  -0.983  55.234  1.00  0.00     0.202 C 
HETATM   21  C18 UNL     1      21.794  -2.050  54.448  1.00  0.00     0.202 C 
HETATM   22  O4  UNL     1      21.098  -1.420  53.389  1.00  0.00    -0.346 OA
ENDROOT
BRANCH   1  23
HETATM   23  O1  UNL     1      24.437   1.907  52.569  1.00  0.00    -0.348 OA
BRANCH  23  24
HETATM   24  C2  UNL     1      25.416   1.117  51.949  1.00  0.00     0.171 C 
HETATM   25  C1  UNL     1      26.416   2.078  51.323  1.00  0.00     0.034 C 
ENDBRANCH  23  24
ENDBRANCH   1  23
TORSDOF 2
ENDMDL
MODEL 4
REMARK VINA RESULT:      -6.9      9.399     11.998
REMARK  2 active torsions:
REMARK  status: ('A' for Active; 'I' for Inactive)
REMARK    1  A    between atoms: C2_2  and  O1_3 
REMARK    2  A    between atoms: O1_3  and  C3_4 
ROOT
HETATM    1  C3  UNL     1      32.856   8.127  46.473  1.00  0.00     0.106 C 
HETATM    2  C4  UNL     1      32.986   7.279  45.533  1.00  0.00     0.071 C 
HETATM    3  C5  UNL     1      33.539   6.563  44.456  1.00  0.00     0.082 A 
HETATM    4  N1  UNL     1      34.332   7.211  43.692  1.00  0.00    -0.243 NA
HETATM    5  C6  UNL     1      34.762   6.273  42.677  1.00  0.00     0.230 A 
HETATM    6  N2  UNL     1      34.226   5.123  42.862  1.00  0.00    -0.251 NA
HETATM    7  C7  UNL     1      33.385   5.171  44.012  1.00  0.00     0.262 A 
HETATM    8  N3  UNL     1      33.769   4.295  45.092  1.00  0.00    -0.356 N 
HETATM    9  C8  UNL     1      32.697   3.765  45.900  1.00  0.00     0.125 C 
HETATM   10  C9  UNL     1      32.787   3.712  47.242  1.00  0.00     0.089 C 
HETATM   11  C10 UNL     1      34.139   3.423  47.709  1.00  0.00     0.036 C 
HETATM   12  C11 UNL     1      35.077   3.253  46.809  1.00  0.00    -0.004 C 
HETATM   13  C12 UNL     1      35.083   3.880  45.465  1.00  0.00     0.152 C 
HETATM   14  O2  UNL     1      31.591   3.941  47.937  1.00  0.00    -0.321 OA
HETATM   15  C13 UNL     1      30.910   5.167  47.722  1.00  0.00     0.145 C 
HETATM   16  C14 UNL     1      31.256   6.384  48.097  1.00  0.00     0.064 C 
HETATM   17  C15 UNL     1      31.206   7.826  48.274  1.00  0.00     0.106 C 
HETATM   18  C16 UNL     1      31.970   8.565  47.490  1.00  0.00     0.135 C 
HETATM   19  O3  UNL     1      31.864   9.924  47.718  1.00  0.00    -0.344 OA
HETATM   20  C17 UNL     1      30.672  10.496  48.235  1.00  0.00     0.202 C 
HETATM   21  C18 UNL     1      30.325   9.754  49.505  1.00  0.00     0.202 C 
HETATM   22  O4  UNL     1      30.381   8.366  49.233  1.00  0.00    -0.346 OA
ENDROOT
BRANCH   1  23
HETATM   23  O1  UNL     1      34.074   8.644  46.206  1.00  0.00    -0.348 OA
BRANCH  23  24
HETATM   24  C2  UNL     1      35.040   9.063  47.132  1.00  0.00     0.171 C 
HETATM   25  C1  UNL     1      35.291   7.885  48.061  1.00  0.00     0.034 C 
ENDBRANCH  23  24
ENDBRANCH   1  23
TORSDOF 2
ENDMDL
MODEL 5
REMARK VINA RESULT:      -6.9      7.138     11.050
REMARK  2 active torsions:
REMARK  status: ('A' for Active; 'I' for Inactive)
REMARK    1  A    between atoms: C2_2  and  O1_3 
REMARK    2  A    between atoms: O1_3  and  C3_4 
ROOT
HETATM    1  C3  UNL     1      30.027   7.919  47.566  1.00  0.00     0.106 C 
HETATM    2  C4  UNL     1      30.975   8.127  46.743  1.00  0.00     0.071 C 
HETATM    3  C5  UNL     1      32.009   8.773  46.042  1.00  0.00     0.082 A 
HETATM    4  N1  UNL     1      31.888  10.036  45.893  1.00  0.00    -0.243 NA
HETATM    5  C6  UNL     1      33.058  10.463  45.154  1.00  0.00     0.230 A 
HETATM    6  N2  UNL     1      33.821   9.466  44.891  1.00  0.00    -0.251 NA
HETATM    7  C7  UNL     1      33.245   8.275  45.423  1.00  0.00     0.262 A 
HETATM    8  N3  UNL     1      34.033   7.608  46.431  1.00  0.00    -0.356 N 
HETATM    9  C8  UNL     1      33.919   6.170  46.484  1.00  0.00     0.125 C 
HETATM   10  C9  UNL     1      33.809   5.516  47.656  1.00  0.00     0.089 C 
HETATM   11  C10 UNL     1      34.585   6.134  48.726  1.00  0.00     0.036 C 
HETATM   12  C11 UNL     1      35.274   7.212  48.442  1.00  0.00    -0.004 C 
HETATM   13  C12 UNL     1      34.917   8.192  47.387  1.00  0.00     0.152 C 
HETATM   14  O2  UNL     1      32.985   4.382  47.638  1.00  0.00    -0.321 OA
HETATM   15  C13 UNL     1      31.631   4.538  47.243  1.00  0.00     0.145 C 
HETATM   16  C14 UNL     1      30.644   5.135  47.885  1.00  0.00     0.064 C 
HETATM   17  C15 UNL     1      29.315   5.644  48.178  1.00  0.00     0.106 C 
HETATM   18  C16 UNL     1      29.104   6.936  48.007  1.00  0.00     0.135 C 
HETATM   19  O3  UNL     1      27.816   7.342  48.305  1.00  0.00    -0.344 OA
HETATM   20  C17 UNL     1      26.715   6.455  48.179  1.00  0.00     0.202 C 
HETATM   21  C18 UNL     1      27.038   5.214  48.979  1.00  0.00     0.202 C 
HETATM   22  O4  UNL     1      28.336   4.782  48.616  1.00  0.00    -0.346 OA
ENDROOT
BRANCH   1  23
HETATM   23  O1  UNL     1      30.135   9.177  48.043  1.00  0.00    -0.348 OA
BRANCH  23  24
HETATM   24  C2  UNL     1      30.516   9.565  49.335  1.00  0.00     0.171 C 
HETATM   25  C1  UNL     1      30.600  11.084  49.326  1.00  0.00     0.034 C 
ENDBRANCH  23  24
ENDBRANCH   1  23
TORSDOF 2
ENDMDL
MODEL 6
REMARK VINA RESULT:      -6.5      2.275      3.076
REMARK  2 active torsions:
REMARK  status: ('A' for Active; 'I' for Inactive)
REMARK    1  A    between atoms: C2_2  and  O1_3 
REMARK    2  A    between atoms: O1_3  and  C3_4 
ROOT
HETATM    1  C3  UNL     1      24.897   3.937  50.859  1.00  0.00     0.106 C 
HETATM    2  C4  UNL     1      24.127   4.891  50.517  1.00  0.00     0.071 C 
HETATM    3  C5  UNL     1      23.672   6.091  49.943  1.00  0.00     0.082 A 
HETATM    4  N1  UNL     1      24.531   7.032  49.843  1.00  0.00    -0.243 NA
HETATM    5  C6  UNL     1      23.834   8.143  49.230  1.00  0.00     0.230 A 
HETATM    6  N2  UNL     1      22.612   7.839  48.989  1.00  0.00    -0.251 NA
HETATM    7  C7  UNL     1      22.364   6.501  49.414  1.00  0.00     0.262 A 
HETATM    8  N3  UNL     1      21.979   5.585  48.368  1.00  0.00    -0.356 N 
HETATM    9  C8  UNL     1      21.079   4.522  48.747  1.00  0.00     0.125 C 
HETATM   10  C9  UNL     1      21.265   3.258  48.322  1.00  0.00     0.089 C 
HETATM   11  C10 UNL     1      21.800   3.187  46.966  1.00  0.00     0.036 C 
HETATM   12  C11 UNL     1      22.031   4.313  46.337  1.00  0.00    -0.004 C 
HETATM   13  C12 UNL     1      22.376   5.596  46.997  1.00  0.00     0.152 C 
HETATM   14  O2  UNL     1      20.919   2.256  49.240  1.00  0.00    -0.321 OA
HETATM   15  C13 UNL     1      21.557   2.253  50.508  1.00  0.00     0.145 C 
HETATM   16  C14 UNL     1      22.811   1.967  50.803  1.00  0.00     0.064 C 
HETATM   17  C15 UNL     1      24.017   1.757  51.587  1.00  0.00     0.106 C 
HETATM   18  C16 UNL     1      24.933   2.707  51.565  1.00  0.00     0.135 C 
HETATM   19  O3  UNL     1      26.048   2.434  52.336  1.00  0.00    -0.344 OA
HETATM   20  C17 UNL     1      25.967   1.599  53.481  1.00  0.00     0.202 C 
HETATM   21  C18 UNL     1      25.335   0.296  53.049  1.00  0.00     0.202 C 
HETATM   22  O4  UNL     1      24.164   0.597  52.313  1.00  0.00    -0.346 OA
ENDROOT
BRANCH   1  23
HETATM   23  O1  UNL     1      25.937   4.520  50.227  1.00  0.00    -0.348 OA
BRANCH  23  24
HETATM   24  C2  UNL     1      26.808   3.928  49.301  1.00  0.00     0.171 C 
HETATM   25  C1  UNL     1      27.553   5.064  48.617  1.00  0.00     0.034 C 
ENDBRANCH  23  24
ENDBRANCH   1  23
TORSDOF 2
ENDMDL
MODEL 7
REMARK VINA RESULT:      -6.5      8.484     10.545
REMARK  2 active torsions:
REMARK  status: ('A' for Active; 'I' for Inactive)
REMARK    1  A    between atoms: C2_2  and  O1_3 
REMARK    2  A    between atoms: O1_3  and  C3_4 
ROOT
HETATM    1  C3  UNL     1      33.307   6.844  46.954  1.00  0.00     0.106 C 
HETATM    2  C4  UNL     1      32.851   7.971  47.331  1.00  0.00     0.071 C 
HETATM    3  C5  UNL     1      32.606   9.354  47.386  1.00  0.00     0.082 A 
HETATM    4  N1  UNL     1      33.549  10.113  46.977  1.00  0.00    -0.243 NA
HETATM    5  C6  UNL     1      33.064  11.468  47.130  1.00  0.00     0.230 A 
HETATM    6  N2  UNL     1      31.876  11.476  47.614  1.00  0.00    -0.251 NA
HETATM    7  C7  UNL     1      31.445  10.136  47.835  1.00  0.00     0.262 A 
HETATM    8  N3  UNL     1      30.290   9.728  47.074  1.00  0.00    -0.356 N 
HETATM    9  C8  UNL     1      29.417   8.765  47.702  1.00  0.00     0.125 C 
HETATM   10  C9  UNL     1      28.912   7.721  47.017  1.00  0.00     0.089 C 
HETATM   11  C10 UNL     1      28.605   8.048  45.629  1.00  0.00     0.036 C 
HETATM   12  C11 UNL     1      28.845   9.269  45.217  1.00  0.00    -0.004 C 
HETATM   13  C12 UNL     1      29.895  10.158  45.772  1.00  0.00     0.152 C 
HETATM   14  O2  UNL     1      28.774   6.531  47.746  1.00  0.00    -0.321 OA
HETATM   15  C13 UNL     1      29.930   5.973  48.351  1.00  0.00     0.145 C 
HETATM   16  C14 UNL     1      30.969   5.397  47.777  1.00  0.00     0.064 C 
HETATM   17  C15 UNL     1      32.250   4.726  47.626  1.00  0.00     0.106 C 
HETATM   18  C16 UNL     1      33.281   5.456  47.245  1.00  0.00     0.135 C 
HETATM   19  O3  UNL     1      34.462   4.747  47.127  1.00  0.00    -0.344 OA
HETATM   20  C17 UNL     1      34.707   3.585  47.906  1.00  0.00     0.202 C 
HETATM   21  C18 UNL     1      33.543   2.644  47.697  1.00  0.00     0.202 C 
HETATM   22  O4  UNL     1      32.346   3.377  47.881  1.00  0.00    -0.346 OA
ENDROOT
BRANCH   1  23
HETATM   23  O1  UNL     1      33.994   7.432  45.953  1.00  0.00    -0.348 OA
BRANCH  23  24
HETATM   24  C2  UNL     1      33.889   7.167  44.579  1.00  0.00     0.171 C 
HETATM   25  C1  UNL     1      34.527   8.345  43.859  1.00  0.00     0.034 C 
ENDBRANCH  23  24
ENDBRANCH   1  23
TORSDOF 2
ENDMDL
MODEL 8
REMARK VINA RESULT:      -6.4      7.398      9.238
REMARK  2 active torsions:
REMARK  status: ('A' for Active; 'I' for Inactive)
REMARK    1  A    between atoms: C2_2  and  O1_3 
REMARK    2  A    between atoms: O1_3  and  C3_4 
ROOT
HETATM    1  C3  UNL     1      31.017   8.463  47.935  1.00  0.00     0.106 C 
HETATM    2  C4  UNL     1      30.211   9.321  48.418  1.00  0.00     0.071 C 
HETATM    3  C5  UNL     1      29.578  10.549  48.682  1.00  0.00     0.082 A 
HETATM    4  N1  UNL     1      30.316  11.591  48.622  1.00  0.00    -0.243 NA
HETATM    5  C6  UNL     1      29.449  12.710  48.926  1.00  0.00     0.230 A 
HETATM    6  N2  UNL     1      28.252  12.311  49.153  1.00  0.00    -0.251 NA
HETATM    7  C7  UNL     1      28.192  10.892  49.027  1.00  0.00     0.262 A 
HETATM    8  N3  UNL     1      27.321  10.404  47.986  1.00  0.00    -0.356 N 
HETATM    9  C8  UNL     1      26.677   9.136  48.232  1.00  0.00     0.125 C 
HETATM   10  C9  UNL     1      26.592   8.192  47.276  1.00  0.00     0.089 C 
HETATM   11  C10 UNL     1      26.408   8.752  45.941  1.00  0.00     0.036 C 
HETATM   12  C11 UNL     1      26.347  10.056  45.823  1.00  0.00    -0.004 C 
HETATM   13  C12 UNL     1      27.011  11.019  46.736  1.00  0.00     0.152 C 
HETATM   14  O2  UNL     1      26.695   6.868  47.724  1.00  0.00    -0.321 OA
HETATM   15  C13 UNL     1      27.863   6.484  48.433  1.00  0.00     0.145 C 
HETATM   16  C14 UNL     1      29.094   6.334  47.982  1.00  0.00     0.064 C 
HETATM   17  C15 UNL     1      30.520   6.053  47.969  1.00  0.00     0.106 C 
HETATM   18  C16 UNL     1      31.345   7.083  47.948  1.00  0.00     0.135 C 
HETATM   19  O3  UNL     1      32.683   6.734  47.939  1.00  0.00    -0.344 OA
HETATM   20  C17 UNL     1      33.134   5.519  48.518  1.00  0.00     0.202 C 
HETATM   21  C18 UNL     1      32.327   4.397  47.906  1.00  0.00     0.202 C 
HETATM   22  O4  UNL     1      30.958   4.748  47.979  1.00  0.00    -0.346 OA
ENDROOT
BRANCH   1  23
HETATM   23  O1  UNL     1      31.646   9.421  47.222  1.00  0.00    -0.348 OA
BRANCH  23  24
HETATM   24  C2  UNL     1      31.795   9.483  45.829  1.00  0.00     0.171 C 
HETATM   25  C1  UNL     1      32.212  10.908  45.499  1.00  0.00     0.034 C 
ENDBRANCH  23  24
ENDBRANCH   1  23
TORSDOF 2
ENDMDL
MODEL 9
REMARK VINA RESULT:      -6.2      2.735      5.881
REMARK  2 active torsions:
REMARK  status: ('A' for Active; 'I' for Inactive)
REMARK    1  A    between atoms: C2_2  and  O1_3 
REMARK    2  A    between atoms: O1_3  and  C3_4 
ROOT
HETATM    1  C3  UNL     1      25.861   4.667  49.312  1.00  0.00     0.106 C 
HETATM    2  C4  UNL     1      24.665   4.326  49.044  1.00  0.00     0.071 C 
HETATM    3  C5  UNL     1      23.398   3.726  49.153  1.00  0.00     0.082 A 
HETATM    4  N1  UNL     1      23.351   2.609  49.772  1.00  0.00    -0.243 NA
HETATM    5  C6  UNL     1      21.963   2.200  49.753  1.00  0.00     0.230 A 
HETATM    6  N2  UNL     1      21.241   3.064  49.138  1.00  0.00    -0.251 NA
HETATM    7  C7  UNL     1      22.066   4.134  48.683  1.00  0.00     0.262 A 
HETATM    8  N3  UNL     1      21.756   5.429  49.238  1.00  0.00    -0.356 N 
HETATM    9  C8  UNL     1      21.999   6.567  48.384  1.00  0.00     0.125 C 
HETATM   10  C9  UNL     1      22.581   7.687  48.853  1.00  0.00     0.089 C 
HETATM   11  C10 UNL     1      22.198   7.992  50.227  1.00  0.00     0.036 C 
HETATM   12  C11 UNL     1      21.367   7.178  50.830  1.00  0.00    -0.004 C 
HETATM   13  C12 UNL     1      21.235   5.731  50.532  1.00  0.00     0.152 C 
HETATM   14  O2  UNL     1      23.433   8.345  47.955  1.00  0.00    -0.321 OA
HETATM   15  C13 UNL     1      24.533   7.628  47.419  1.00  0.00     0.145 C 
HETATM   16  C14 UNL     1      25.632   7.223  48.026  1.00  0.00     0.064 C 
HETATM   17  C15 UNL     1      26.931   6.603  48.232  1.00  0.00     0.106 C 
HETATM   18  C16 UNL     1      26.958   5.426  48.830  1.00  0.00     0.135 C 
HETATM   19  O3  UNL     1      28.228   4.902  48.987  1.00  0.00    -0.344 OA
HETATM   20  C17 UNL     1      29.278   5.228  48.089  1.00  0.00     0.202 C 
HETATM   21  C18 UNL     1      29.370   6.736  48.026  1.00  0.00     0.202 C 
HETATM   22  O4  UNL     1      28.069   7.248  47.806  1.00  0.00    -0.346 OA
ENDROOT
BRANCH   1  23
HETATM   23  O1  UNL     1      25.830   3.957  50.459  1.00  0.00    -0.348 OA
BRANCH  23  24
HETATM   24  C2  UNL     1      26.627   2.853  50.797  1.00  0.00     0.171 C 
HETATM   25  C1  UNL     1      26.056   2.284  52.086  1.00  0.00     0.034 C 
ENDBRANCH  23  24
ENDBRANCH   1  23
TORSDOF 2
ENDMDL
