MODEL 1
REMARK VINA RESULT:      -6.2      0.000      0.000
REMARK  11 active torsions:
REMARK  status: ('A' for Active; 'I' for Inactive)
REMARK    1  A    between atoms: C2_2  and  C3_3 
REMARK    2  A    between atoms: C3_3  and  O1_4 
REMARK    3  A    between atoms: C8_11  and  O2_12 
REMARK    4  A    between atoms: O2_12  and  C9_13 
REMARK    5  A    between atoms: C9_13  and  C10_14 
REMARK    6  A    between atoms: C10_14  and  C11_15 
REMARK    7  A    between atoms: C11_15  and  C12_16 
REMARK    8  A    between atoms: C12_16  and  C13_17 
REMARK    9  A    between atoms: C13_17  and  N3_18 
REMARK       I    between atoms: N3_18  and  C14_19 
REMARK   10  A    between atoms: C14_19  and  O4_21 
REMARK   11  A    between atoms: O4_21  and  C15_22 
ROOT
HETATM    1  O2  UNL     1      23.969   1.211  52.908  1.00  0.00    -0.333 OA
ENDROOT
BRANCH   1   2
HETATM    2  C8  UNL     1      23.063   0.299  53.365  1.00  0.00     0.155 C 
HETATM    3  N2  UNL     1      23.561  -0.385  54.337  1.00  0.00    -0.221 NA
HETATM    4  C7  UNL     1      22.802  -1.368  55.030  1.00  0.00     0.235 C 
HETATM    5  N1  UNL     1      21.570  -1.517  54.714  1.00  0.00    -0.246 NA
HETATM    6  C6  UNL     1      20.832  -0.781  53.764  1.00  0.00     0.050 C 
HETATM    7  C5  UNL     1      19.836  -0.381  52.995  1.00  0.00     0.040 C 
HETATM    8  C17 UNL     1      21.751  -0.025  52.929  1.00  0.00     0.153 C 
HETATM    9  C3  UNL     1      20.653   0.727  52.438  1.00  0.00     0.100 C 
BRANCH   9  10
HETATM   10  C2  UNL     1      20.461   0.828  50.938  1.00  0.00     0.033 C 
HETATM   11  C1  UNL     1      21.185   0.843  49.827  1.00  0.00     0.009 C 
ENDBRANCH   9  10
BRANCH   9  12
HETATM   12  O1  UNL     1      20.289   1.915  53.087  1.00  0.00    -0.379 OA
HETATM   13  C4  UNL     1      20.191   2.962  52.161  1.00  0.00     0.203 C 
ENDBRANCH   9  12
ENDBRANCH   1   2
BRANCH   1  14
HETATM   14  C9  UNL     1      23.773   2.615  53.003  1.00  0.00     0.204 C 
BRANCH  14  15
HETATM   15  C10 UNL     1      24.065   3.300  51.730  1.00  0.00    -0.004 C 
BRANCH  15  16
HETATM   16  C11 UNL     1      24.278   3.069  50.412  1.00  0.00    -0.027 C 
BRANCH  16  17
HETATM   17  C12 UNL     1      25.629   2.713  50.020  1.00  0.00     0.046 C 
BRANCH  17  18
HETATM   18  C13 UNL     1      26.663   2.851  51.090  1.00  0.00     0.128 C 
BRANCH  18  19
HETATM   19  N3  UNL     1      26.988   1.712  51.854  1.00  0.00    -0.337 N 
HETATM   20  C14 UNL     1      27.353   1.405  53.174  1.00  0.00     0.360 C 
HETATM   21  O3  UNL     1      27.447   2.354  53.962  1.00  0.00    -0.239 OA
HETATM   22  H17 UNL     1      26.954   0.809  51.289  1.00  0.00     0.164 HD
BRANCH  20  23
HETATM   23  O4  UNL     1      27.618   0.147  53.683  1.00  0.00    -0.304 OA
BRANCH  23  24
HETATM   24  C15 UNL     1      28.766  -0.127  54.437  1.00  0.00     0.176 C 
HETATM   25  C16 UNL     1      29.903  -0.658  53.580  1.00  0.00     0.034 C 
ENDBRANCH  23  24
ENDBRANCH  20  23
ENDBRANCH  18  19
ENDBRANCH  17  18
ENDBRANCH  16  17
ENDBRANCH  15  16
ENDBRANCH  14  15
ENDBRANCH   1  14
TORSDOF 11
ENDMDL
MODEL 2
REMARK VINA RESULT:      -6.1      4.094      5.658
REMARK  11 active torsions:
REMARK  status: ('A' for Active; 'I' for Inactive)
REMARK    1  A    between atoms: C2_2  and  C3_3 
REMARK    2  A    between atoms: C3_3  and  O1_4 
REMARK    3  A    between atoms: C8_11  and  O2_12 
REMARK    4  A    between atoms: O2_12  and  C9_13 
REMARK    5  A    between atoms: C9_13  and  C10_14 
REMARK    6  A    between atoms: C10_14  and  C11_15 
REMARK    7  A    between atoms: C11_15  and  C12_16 
REMARK    8  A    between atoms: C12_16  and  C13_17 
REMARK    9  A    between atoms: C13_17  and  N3_18 
REMARK       I    between atoms: N3_18  and  C14_19 
REMARK   10  A    between atoms: C14_19  and  O4_21 
REMARK   11  A    between atoms: O4_21  and  C15_22 
ROOT
HETATM    1  O2  UNL     1      27.138   2.469  51.367  1.00  0.00    -0.333 OA
ENDROOT
BRANCH   1   2
HETATM    2  C8  UNL     1      26.746   1.430  52.162  1.00  0.00     0.155 C 
HETATM    3  N2  UNL     1      27.765   0.900  52.746  1.00  0.00    -0.221 NA
HETATM    4  C7  UNL     1      27.626  -0.167  53.676  1.00  0.00     0.235 C 
HETATM    5  N1  UNL     1      26.445  -0.557  53.981  1.00  0.00    -0.246 NA
HETATM    6  C6  UNL     1      25.221  -0.018  53.532  1.00  0.00     0.050 C 
HETATM    7  C5  UNL     1      23.924   0.151  53.350  1.00  0.00     0.040 C 
HETATM    8  C17 UNL     1      25.472   0.849  52.392  1.00  0.00     0.153 C 
HETATM    9  C3  UNL     1      24.155   1.360  52.519  1.00  0.00     0.100 C 
BRANCH   9  10
HETATM   10  C2  UNL     1      23.256   1.346  51.299  1.00  0.00     0.033 C 
HETATM   11  C1  UNL     1      22.028   0.979  50.955  1.00  0.00     0.009 C 
ENDBRANCH   9  10
BRANCH   9  12
HETATM   12  O1  UNL     1      23.931   2.493  53.314  1.00  0.00    -0.379 OA
HETATM   13  C4  UNL     1      23.737   3.621  52.505  1.00  0.00     0.203 C 
ENDBRANCH   9  12
ENDBRANCH   1   2
BRANCH   1  14
HETATM   14  C9  UNL     1      26.484   2.806  50.153  1.00  0.00     0.204 C 
BRANCH  14  15
HETATM   15  C10 UNL     1      26.956   4.094  49.611  1.00  0.00    -0.004 C 
BRANCH  15  16
HETATM   16  C11 UNL     1      26.534   5.197  48.947  1.00  0.00    -0.027 C 
BRANCH  16  17
HETATM   17  C12 UNL     1      25.394   5.900  49.502  1.00  0.00     0.046 C 
BRANCH  17  18
HETATM   18  C13 UNL     1      25.693   7.244  50.084  1.00  0.00     0.128 C 
BRANCH  18  19
HETATM   19  N3  UNL     1      26.964   7.806  49.846  1.00  0.00    -0.337 N 
HETATM   20  C14 UNL     1      27.605   9.045  49.994  1.00  0.00     0.360 C 
HETATM   21  O3  UNL     1      26.928   9.973  50.453  1.00  0.00    -0.239 OA
HETATM   22  H17 UNL     1      27.657   7.108  49.436  1.00  0.00     0.164 HD
BRANCH  20  23
HETATM   23  O4  UNL     1      28.920   9.334  49.677  1.00  0.00    -0.304 OA
BRANCH  23  24
HETATM   24  C15 UNL     1      29.595   8.694  48.630  1.00  0.00     0.176 C 
HETATM   25  C16 UNL     1      30.851   7.984  49.104  1.00  0.00     0.034 C 
ENDBRANCH  23  24
ENDBRANCH  20  23
ENDBRANCH  18  19
ENDBRANCH  17  18
ENDBRANCH  16  17
ENDBRANCH  15  16
ENDBRANCH  14  15
ENDBRANCH   1  14
TORSDOF 11
ENDMDL
MODEL 3
REMARK VINA RESULT:      -6.0      4.512      5.837
REMARK  11 active torsions:
REMARK  status: ('A' for Active; 'I' for Inactive)
REMARK    1  A    between atoms: C2_2  and  C3_3 
REMARK    2  A    between atoms: C3_3  and  O1_4 
REMARK    3  A    between atoms: C8_11  and  O2_12 
REMARK    4  A    between atoms: O2_12  and  C9_13 
REMARK    5  A    between atoms: C9_13  and  C10_14 
REMARK    6  A    between atoms: C10_14  and  C11_15 
REMARK    7  A    between atoms: C11_15  and  C12_16 
REMARK    8  A    between atoms: C12_16  and  C13_17 
REMARK    9  A    between atoms: C13_17  and  N3_18 
REMARK       I    between atoms: N3_18  and  C14_19 
REMARK   10  A    between atoms: C14_19  and  O4_21 
REMARK   11  A    between atoms: O4_21  and  C15_22 
ROOT
HETATM    1  O2  UNL     1      27.039   3.143  51.054  1.00  0.00    -0.333 OA
ENDROOT
BRANCH   1   2
HETATM    2  C8  UNL     1      26.803   2.076  51.871  1.00  0.00     0.155 C 
HETATM    3  N2  UNL     1      27.897   1.689  52.434  1.00  0.00    -0.221 NA
HETATM    4  C7  UNL     1      27.919   0.626  53.380  1.00  0.00     0.235 C 
HETATM    5  N1  UNL     1      26.805   0.095  53.722  1.00  0.00    -0.246 NA
HETATM    6  C6  UNL     1      25.511   0.467  53.301  1.00  0.00     0.050 C 
HETATM    7  C5  UNL     1      24.199   0.468  53.153  1.00  0.00     0.040 C 
HETATM    8  C17 UNL     1      25.620   1.341  52.144  1.00  0.00     0.153 C 
HETATM    9  C3  UNL     1      24.252   1.683  52.301  1.00  0.00     0.100 C 
BRANCH   9  10
HETATM   10  C2  UNL     1      23.330   1.536  51.107  1.00  0.00     0.033 C 
HETATM   11  C1  UNL     1      22.077   1.195  50.836  1.00  0.00     0.009 C 
ENDBRANCH   9  10
BRANCH   9  12
HETATM   12  O1  UNL     1      23.907   2.791  53.088  1.00  0.00    -0.379 OA
HETATM   13  C4  UNL     1      23.613   3.892  52.272  1.00  0.00     0.203 C 
ENDBRANCH   9  12
ENDBRANCH   1   2
BRANCH   1  14
HETATM   14  C9  UNL     1      26.372   3.333  49.814  1.00  0.00     0.204 C 
BRANCH  14  15
HETATM   15  C10 UNL     1      27.020   4.372  48.992  1.00  0.00    -0.004 C 
BRANCH  15  16
HETATM   16  C11 UNL     1      26.972   5.694  48.702  1.00  0.00    -0.027 C 
BRANCH  16  17
HETATM   17  C12 UNL     1      28.209   6.316  48.269  1.00  0.00     0.046 C 
BRANCH  17  18
HETATM   18  C13 UNL     1      29.394   5.407  48.209  1.00  0.00     0.128 C 
BRANCH  18  19
HETATM   19  N3  UNL     1      30.656   5.932  48.558  1.00  0.00    -0.337 N 
HETATM   20  C14 UNL     1      31.981   5.485  48.672  1.00  0.00     0.360 C 
HETATM   21  O3  UNL     1      32.192   4.293  48.417  1.00  0.00    -0.239 OA
HETATM   22  H17 UNL     1      30.620   6.966  48.813  1.00  0.00     0.164 HD
BRANCH  20  23
HETATM   23  O4  UNL     1      33.077   6.244  49.041  1.00  0.00    -0.304 OA
BRANCH  23  24
HETATM   24  C15 UNL     1      33.541   7.313  48.265  1.00  0.00     0.176 C 
HETATM   25  C16 UNL     1      35.047   7.486  48.367  1.00  0.00     0.034 C 
ENDBRANCH  23  24
ENDBRANCH  20  23
ENDBRANCH  18  19
ENDBRANCH  17  18
ENDBRANCH  16  17
ENDBRANCH  15  16
ENDBRANCH  14  15
ENDBRANCH   1  14
TORSDOF 11
ENDMDL
MODEL 4
REMARK VINA RESULT:      -5.9      2.120      3.210
REMARK  11 active torsions:
REMARK  status: ('A' for Active; 'I' for Inactive)
REMARK    1  A    between atoms: C2_2  and  C3_3 
REMARK    2  A    between atoms: C3_3  and  O1_4 
REMARK    3  A    between atoms: C8_11  and  O2_12 
REMARK    4  A    between atoms: O2_12  and  C9_13 
REMARK    5  A    between atoms: C9_13  and  C10_14 
REMARK    6  A    between atoms: C10_14  and  C11_15 
REMARK    7  A    between atoms: C11_15  and  C12_16 
REMARK    8  A    between atoms: C12_16  and  C13_17 
REMARK    9  A    between atoms: C13_17  and  N3_18 
REMARK       I    between atoms: N3_18  and  C14_19 
REMARK   10  A    between atoms: C14_19  and  O4_21 
REMARK   11  A    between atoms: O4_21  and  C15_22 
ROOT
HETATM    1  O2  UNL     1      21.332   0.863  53.194  1.00  0.00    -0.333 OA
ENDROOT
BRANCH   1   2
HETATM    2  C8  UNL     1      20.192   0.295  52.702  1.00  0.00     0.155 C 
HETATM    3  N2  UNL     1      19.665  -0.490  53.579  1.00  0.00    -0.221 NA
HETATM    4  C7  UNL     1      18.436  -1.165  53.339  1.00  0.00     0.235 C 
HETATM    5  N1  UNL     1      17.814  -0.924  52.247  1.00  0.00    -0.246 NA
HETATM    6  C6  UNL     1      18.179  -0.013  51.233  1.00  0.00     0.050 C 
HETATM    7  C5  UNL     1      18.166   0.665  50.100  1.00  0.00     0.040 C 
HETATM    8  C17 UNL     1      19.561   0.394  51.435  1.00  0.00     0.153 C 
HETATM    9  C3  UNL     1      19.365   1.444  50.502  1.00  0.00     0.100 C 
BRANCH   9  10
HETATM   10  C2  UNL     1      20.332   1.567  49.341  1.00  0.00     0.033 C 
HETATM   11  C1  UNL     1      21.466   1.029  48.911  1.00  0.00     0.009 C 
ENDBRANCH   9  10
BRANCH   9  12
HETATM   12  O1  UNL     1      18.943   2.700  50.959  1.00  0.00    -0.379 OA
HETATM   13  C4  UNL     1      19.656   3.717  50.308  1.00  0.00     0.203 C 
ENDBRANCH   9  12
ENDBRANCH   1   2
BRANCH   1  14
HETATM   14  C9  UNL     1      22.040   1.891  52.517  1.00  0.00     0.204 C 
BRANCH  14  15
HETATM   15  C10 UNL     1      23.476   1.581  52.390  1.00  0.00    -0.004 C 
BRANCH  15  16
HETATM   16  C11 UNL     1      24.521   1.045  53.065  1.00  0.00    -0.027 C 
BRANCH  16  17
HETATM   17  C12 UNL     1      24.425  -0.360  53.414  1.00  0.00     0.046 C 
BRANCH  17  18
HETATM   18  C13 UNL     1      25.201  -0.773  54.622  1.00  0.00     0.128 C 
BRANCH  18  19
HETATM   19  N3  UNL     1      26.351  -0.031  54.963  1.00  0.00    -0.337 N 
HETATM   20  C14 UNL     1      27.735  -0.085  54.741  1.00  0.00     0.360 C 
HETATM   21  O3  UNL     1      28.157  -1.032  54.066  1.00  0.00    -0.239 OA
HETATM   22  H17 UNL     1      26.132   0.824  55.560  1.00  0.00     0.164 HD
BRANCH  20  23
HETATM   23  O4  UNL     1      28.678   0.816  55.203  1.00  0.00    -0.304 OA
BRANCH  23  24
HETATM   24  C15 UNL     1      29.370   1.680  54.344  1.00  0.00     0.176 C 
HETATM   25  C16 UNL     1      28.431   2.499  53.474  1.00  0.00     0.034 C 
ENDBRANCH  23  24
ENDBRANCH  20  23
ENDBRANCH  18  19
ENDBRANCH  17  18
ENDBRANCH  16  17
ENDBRANCH  15  16
ENDBRANCH  14  15
ENDBRANCH   1  14
TORSDOF 11
ENDMDL
MODEL 5
REMARK VINA RESULT:      -5.8      1.431      1.843
REMARK  11 active torsions:
REMARK  status: ('A' for Active; 'I' for Inactive)
REMARK    1  A    between atoms: C2_2  and  C3_3 
REMARK    2  A    between atoms: C3_3  and  O1_4 
REMARK    3  A    between atoms: C8_11  and  O2_12 
REMARK    4  A    between atoms: O2_12  and  C9_13 
REMARK    5  A    between atoms: C9_13  and  C10_14 
REMARK    6  A    between atoms: C10_14  and  C11_15 
REMARK    7  A    between atoms: C11_15  and  C12_16 
REMARK    8  A    between atoms: C12_16  and  C13_17 
REMARK    9  A    between atoms: C13_17  and  N3_18 
REMARK       I    between atoms: N3_18  and  C14_19 
REMARK   10  A    between atoms: C14_19  and  O4_21 
REMARK   11  A    between atoms: O4_21  and  C15_22 
ROOT
HETATM    1  O2  UNL     1      23.464   1.879  51.242  1.00  0.00    -0.333 OA
ENDROOT
BRANCH   1   2
HETATM    2  C8  UNL     1      23.032   0.968  52.162  1.00  0.00     0.155 C 
HETATM    3  N2  UNL     1      24.025   0.515  52.847  1.00  0.00    -0.221 NA
HETATM    4  C7  UNL     1      23.842  -0.410  53.913  1.00  0.00     0.235 C 
HETATM    5  N1  UNL     1      22.646  -0.738  54.233  1.00  0.00    -0.246 NA
HETATM    6  C6  UNL     1      21.444  -0.255  53.674  1.00  0.00     0.050 C 
HETATM    7  C5  UNL     1      20.156  -0.097  53.430  1.00  0.00     0.040 C 
HETATM    8  C17 UNL     1      21.742   0.440  52.432  1.00  0.00     0.153 C 
HETATM    9  C3  UNL     1      20.431   0.979  52.445  1.00  0.00     0.100 C 
BRANCH   9  10
HETATM   10  C2  UNL     1      19.568   0.804  51.211  1.00  0.00     0.033 C 
HETATM   11  C1  UNL     1      18.358   0.370  50.879  1.00  0.00     0.009 C 
ENDBRANCH   9  10
BRANCH   9  12
HETATM   12  O1  UNL     1      20.202   2.216  53.064  1.00  0.00    -0.379 OA
HETATM   13  C4  UNL     1      20.047   3.220  52.099  1.00  0.00     0.203 C 
ENDBRANCH   9  12
ENDBRANCH   1   2
BRANCH   1  14
HETATM   14  C9  UNL     1      22.826   2.077  49.989  1.00  0.00     0.204 C 
BRANCH  14  15
HETATM   15  C10 UNL     1      23.575   3.014  49.130  1.00  0.00    -0.004 C 
BRANCH  15  16
HETATM   16  C11 UNL     1      23.936   4.316  49.024  1.00  0.00    -0.027 C 
BRANCH  16  17
HETATM   17  C12 UNL     1      25.128   4.726  49.742  1.00  0.00     0.046 C 
BRANCH  17  18
HETATM   18  C13 UNL     1      26.189   3.681  49.869  1.00  0.00     0.128 C 
BRANCH  18  19
HETATM   19  N3  UNL     1      26.650   3.352  51.160  1.00  0.00    -0.337 N 
HETATM   20  C14 UNL     1      26.964   2.201  51.898  1.00  0.00     0.360 C 
HETATM   21  O3  UNL     1      26.813   1.113  51.327  1.00  0.00    -0.239 OA
HETATM   22  H17 UNL     1      26.817   4.208  51.773  1.00  0.00     0.164 HD
BRANCH  20  23
HETATM   23  O4  UNL     1      27.425   2.159  53.201  1.00  0.00    -0.304 OA
BRANCH  23  24
HETATM   24  C15 UNL     1      28.367   1.216  53.631  1.00  0.00     0.176 C 
HETATM   25  C16 UNL     1      27.790   0.250  54.652  1.00  0.00     0.034 C 
ENDBRANCH  23  24
ENDBRANCH  20  23
ENDBRANCH  18  19
ENDBRANCH  17  18
ENDBRANCH  16  17
ENDBRANCH  15  16
ENDBRANCH  14  15
ENDBRANCH   1  14
TORSDOF 11
ENDMDL
MODEL 6
REMARK VINA RESULT:      -5.8      2.909      5.210
REMARK  11 active torsions:
REMARK  status: ('A' for Active; 'I' for Inactive)
REMARK    1  A    between atoms: C2_2  and  C3_3 
REMARK    2  A    between atoms: C3_3  and  O1_4 
REMARK    3  A    between atoms: C8_11  and  O2_12 
REMARK    4  A    between atoms: O2_12  and  C9_13 
REMARK    5  A    between atoms: C9_13  and  C10_14 
REMARK    6  A    between atoms: C10_14  and  C11_15 
REMARK    7  A    between atoms: C11_15  and  C12_16 
REMARK    8  A    between atoms: C12_16  and  C13_17 
REMARK    9  A    between atoms: C13_17  and  N3_18 
REMARK       I    between atoms: N3_18  and  C14_19 
REMARK   10  A    between atoms: C14_19  and  O4_21 
REMARK   11  A    between atoms: O4_21  and  C15_22 
ROOT
HETATM    1  O2  UNL     1      22.370   1.353  50.113  1.00  0.00    -0.333 OA
ENDROOT
BRANCH   1   2
HETATM    2  C8  UNL     1      22.323   2.293  49.125  1.00  0.00     0.155 C 
HETATM    3  N2  UNL     1      21.385   2.018  48.285  1.00  0.00    -0.221 NA
HETATM    4  C7  UNL     1      21.085   2.873  47.188  1.00  0.00     0.235 C 
HETATM    5  N1  UNL     1      21.728   3.975  47.084  1.00  0.00    -0.246 NA
HETATM    6  C6  UNL     1      22.699   4.490  47.969  1.00  0.00     0.050 C 
HETATM    7  C5  UNL     1      23.620   5.281  48.487  1.00  0.00     0.040 C 
HETATM    8  C17 UNL     1      23.130   3.433  48.869  1.00  0.00     0.153 C 
HETATM    9  C3  UNL     1      23.753   4.412  49.684  1.00  0.00     0.100 C 
BRANCH   9  10
HETATM   10  C2  UNL     1      25.213   4.226  50.047  1.00  0.00     0.033 C 
HETATM   11  C1  UNL     1      26.234   3.432  49.747  1.00  0.00     0.009 C 
ENDBRANCH   9  10
BRANCH   9  12
HETATM   12  O1  UNL     1      23.030   4.993  50.736  1.00  0.00    -0.379 OA
HETATM   13  C4  UNL     1      23.833   5.092  51.880  1.00  0.00     0.203 C 
ENDBRANCH   9  12
ENDBRANCH   1   2
BRANCH   1  14
HETATM   14  C9  UNL     1      21.728   1.514  51.369  1.00  0.00     0.204 C 
BRANCH  14  15
HETATM   15  C10 UNL     1      22.694   1.758  52.456  1.00  0.00    -0.004 C 
BRANCH  15  16
HETATM   16  C11 UNL     1      23.808   1.249  53.035  1.00  0.00    -0.027 C 
BRANCH  16  17
HETATM   17  C12 UNL     1      23.864  -0.192  53.194  1.00  0.00     0.046 C 
BRANCH  17  18
HETATM   18  C13 UNL     1      24.416  -0.670  54.498  1.00  0.00     0.128 C 
BRANCH  18  19
HETATM   19  N3  UNL     1      25.815  -0.794  54.624  1.00  0.00    -0.337 N 
HETATM   20  C14 UNL     1      26.926   0.039  54.827  1.00  0.00     0.360 C 
HETATM   21  O3  UNL     1      26.703   1.252  54.927  1.00  0.00    -0.239 OA
HETATM   22  H17 UNL     1      26.152  -1.802  54.548  1.00  0.00     0.164 HD
BRANCH  20  23
HETATM   23  O4  UNL     1      28.246  -0.361  54.926  1.00  0.00    -0.304 OA
BRANCH  23  24
HETATM   24  C15 UNL     1      28.949  -0.894  53.838  1.00  0.00     0.176 C 
HETATM   25  C16 UNL     1      30.144  -0.040  53.451  1.00  0.00     0.034 C 
ENDBRANCH  23  24
ENDBRANCH  20  23
ENDBRANCH  18  19
ENDBRANCH  17  18
ENDBRANCH  16  17
ENDBRANCH  15  16
ENDBRANCH  14  15
ENDBRANCH   1  14
TORSDOF 11
ENDMDL
MODEL 7
REMARK VINA RESULT:      -5.7      2.660      5.922
REMARK  11 active torsions:
REMARK  status: ('A' for Active; 'I' for Inactive)
REMARK    1  A    between atoms: C2_2  and  C3_3 
REMARK    2  A    between atoms: C3_3  and  O1_4 
REMARK    3  A    between atoms: C8_11  and  O2_12 
REMARK    4  A    between atoms: O2_12  and  C9_13 
REMARK    5  A    between atoms: C9_13  and  C10_14 
REMARK    6  A    between atoms: C10_14  and  C11_15 
REMARK    7  A    between atoms: C11_15  and  C12_16 
REMARK    8  A    between atoms: C12_16  and  C13_17 
REMARK    9  A    between atoms: C13_17  and  N3_18 
REMARK       I    between atoms: N3_18  and  C14_19 
REMARK   10  A    between atoms: C14_19  and  O4_21 
REMARK   11  A    between atoms: O4_21  and  C15_22 
ROOT
HETATM    1  O2  UNL     1      25.700   2.874  51.756  1.00  0.00    -0.333 OA
ENDROOT
BRANCH   1   2
HETATM    2  C8  UNL     1      24.808   2.072  52.407  1.00  0.00     0.155 C 
HETATM    3  N2  UNL     1      23.600   2.430  52.137  1.00  0.00    -0.221 NA
HETATM    4  C7  UNL     1      22.475   1.721  52.645  1.00  0.00     0.235 C 
HETATM    5  N1  UNL     1      22.686   0.661  53.331  1.00  0.00    -0.246 NA
HETATM    6  C6  UNL     1      23.928   0.060  53.624  1.00  0.00     0.050 C 
HETATM    7  C5  UNL     1      24.827  -0.767  54.125  1.00  0.00     0.040 C 
HETATM    8  C17 UNL     1      24.995   0.999  53.318  1.00  0.00     0.153 C 
HETATM    9  C3  UNL     1      25.930  -0.062  53.424  1.00  0.00     0.100 C 
BRANCH   9  10
HETATM   10  C2  UNL     1      27.120   0.115  54.347  1.00  0.00     0.033 C 
HETATM   11  C1  UNL     1      28.222   0.848  54.444  1.00  0.00     0.009 C 
ENDBRANCH   9  10
BRANCH   9  12
HETATM   12  O1  UNL     1      26.269  -0.797  52.280  1.00  0.00    -0.379 OA
HETATM   13  C4  UNL     1      27.151  -1.834  52.614  1.00  0.00     0.203 C 
ENDBRANCH   9  12
ENDBRANCH   1   2
BRANCH   1  14
HETATM   14  C9  UNL     1      26.589   2.395  50.757  1.00  0.00     0.204 C 
BRANCH  14  15
HETATM   15  C10 UNL     1      26.584   3.252  49.557  1.00  0.00    -0.004 C 
BRANCH  15  16
HETATM   16  C11 UNL     1      26.678   4.545  49.163  1.00  0.00    -0.027 C 
BRANCH  16  17
HETATM   17  C12 UNL     1      25.438   5.290  49.060  1.00  0.00     0.046 C 
BRANCH  17  18
HETATM   18  C13 UNL     1      24.951   5.901  50.334  1.00  0.00     0.128 C 
BRANCH  18  19
HETATM   19  N3  UNL     1      23.788   5.369  50.927  1.00  0.00    -0.337 N 
HETATM   20  C14 UNL     1      22.444   5.731  51.103  1.00  0.00     0.360 C 
HETATM   21  O3  UNL     1      22.094   6.824  50.641  1.00  0.00    -0.239 OA
HETATM   22  H17 UNL     1      23.949   4.418  51.378  1.00  0.00     0.164 HD
BRANCH  20  23
HETATM   23  O4  UNL     1      21.469   4.987  51.744  1.00  0.00    -0.304 OA
BRANCH  23  24
HETATM   24  C15 UNL     1      20.328   4.521  51.080  1.00  0.00     0.176 C 
HETATM   25  C16 UNL     1      20.673   3.603  49.919  1.00  0.00     0.034 C 
ENDBRANCH  23  24
ENDBRANCH  20  23
ENDBRANCH  18  19
ENDBRANCH  17  18
ENDBRANCH  16  17
ENDBRANCH  15  16
ENDBRANCH  14  15
ENDBRANCH   1  14
TORSDOF 11
ENDMDL
MODEL 8
REMARK VINA RESULT:      -5.6      2.677      4.329
REMARK  11 active torsions:
REMARK  status: ('A' for Active; 'I' for Inactive)
REMARK    1  A    between atoms: C2_2  and  C3_3 
REMARK    2  A    between atoms: C3_3  and  O1_4 
REMARK    3  A    between atoms: C8_11  and  O2_12 
REMARK    4  A    between atoms: O2_12  and  C9_13 
REMARK    5  A    between atoms: C9_13  and  C10_14 
REMARK    6  A    between atoms: C10_14  and  C11_15 
REMARK    7  A    between atoms: C11_15  and  C12_16 
REMARK    8  A    between atoms: C12_16  and  C13_17 
REMARK    9  A    between atoms: C13_17  and  N3_18 
REMARK       I    between atoms: N3_18  and  C14_19 
REMARK   10  A    between atoms: C14_19  and  O4_21 
REMARK   11  A    between atoms: O4_21  and  C15_22 
ROOT
HETATM    1  O2  UNL     1      24.450   0.520  53.621  1.00  0.00    -0.333 OA
ENDROOT
BRANCH   1   2
HETATM    2  C8  UNL     1      23.178   0.044  53.480  1.00  0.00     0.155 C 
HETATM    3  N2  UNL     1      22.900  -0.786  54.426  1.00  0.00    -0.221 NA
HETATM    4  C7  UNL     1      21.616  -1.386  54.545  1.00  0.00     0.235 C 
HETATM    5  N1  UNL     1      20.701  -1.030  53.723  1.00  0.00    -0.246 NA
HETATM    6  C6  UNL     1      20.792  -0.056  52.706  1.00  0.00     0.050 C 
HETATM    7  C5  UNL     1      20.471   0.711  51.681  1.00  0.00     0.040 C 
HETATM    8  C17 UNL     1      22.191   0.272  52.486  1.00  0.00     0.153 C 
HETATM    9  C3  UNL     1      21.785   1.402  51.731  1.00  0.00     0.100 C 
BRANCH   9  10
HETATM   10  C2  UNL     1      22.347   1.577  50.335  1.00  0.00     0.033 C 
HETATM   11  C1  UNL     1      21.966   1.452  49.070  1.00  0.00     0.009 C 
ENDBRANCH   9  10
BRANCH   9  12
HETATM   12  O1  UNL     1      21.612   2.634  52.378  1.00  0.00    -0.379 OA
HETATM   13  C4  UNL     1      22.619   3.529  51.991  1.00  0.00     0.203 C 
ENDBRANCH   9  12
ENDBRANCH   1   2
BRANCH   1  14
HETATM   14  C9  UNL     1      25.560  -0.012  52.912  1.00  0.00     0.204 C 
BRANCH  14  15
HETATM   15  C10 UNL     1      25.976   0.865  51.801  1.00  0.00    -0.004 C 
BRANCH  15  16
HETATM   16  C11 UNL     1      26.065   2.167  51.439  1.00  0.00    -0.027 C 
BRANCH  16  17
HETATM   17  C12 UNL     1      26.514   2.443  50.087  1.00  0.00     0.046 C 
BRANCH  17  18
HETATM   18  C13 UNL     1      26.584   3.889  49.719  1.00  0.00     0.128 C 
BRANCH  18  19
HETATM   19  N3  UNL     1      25.790   4.802  50.444  1.00  0.00    -0.337 N 
HETATM   20  C14 UNL     1      25.014   5.944  50.193  1.00  0.00     0.360 C 
HETATM   21  O3  UNL     1      24.964   6.339  49.021  1.00  0.00    -0.239 OA
HETATM   22  H17 UNL     1      25.751   4.582  51.486  1.00  0.00     0.164 HD
BRANCH  20  23
HETATM   23  O4  UNL     1      24.300   6.674  51.125  1.00  0.00    -0.304 OA
BRANCH  23  24
HETATM   24  C15 UNL     1      23.483   7.752  50.763  1.00  0.00     0.176 C 
HETATM   25  C16 UNL     1      22.012   7.371  50.725  1.00  0.00     0.034 C 
ENDBRANCH  23  24
ENDBRANCH  20  23
ENDBRANCH  18  19
ENDBRANCH  17  18
ENDBRANCH  16  17
ENDBRANCH  15  16
ENDBRANCH  14  15
ENDBRANCH   1  14
TORSDOF 11
ENDMDL
MODEL 9
REMARK VINA RESULT:      -5.6      3.339      5.857
REMARK  11 active torsions:
REMARK  status: ('A' for Active; 'I' for Inactive)
REMARK    1  A    between atoms: C2_2  and  C3_3 
REMARK    2  A    between atoms: C3_3  and  O1_4 
REMARK    3  A    between atoms: C8_11  and  O2_12 
REMARK    4  A    between atoms: O2_12  and  C9_13 
REMARK    5  A    between atoms: C9_13  and  C10_14 
REMARK    6  A    between atoms: C10_14  and  C11_15 
REMARK    7  A    between atoms: C11_15  and  C12_16 
REMARK    8  A    between atoms: C12_16  and  C13_17 
REMARK    9  A    between atoms: C13_17  and  N3_18 
REMARK       I    between atoms: N3_18  and  C14_19 
REMARK   10  A    between atoms: C14_19  and  O4_21 
REMARK   11  A    between atoms: O4_21  and  C15_22 
ROOT
HETATM    1  O2  UNL     1      27.155   2.942  51.107  1.00  0.00    -0.333 OA
ENDROOT
BRANCH   1   2
HETATM    2  C8  UNL     1      26.889   1.938  51.993  1.00  0.00     0.155 C 
HETATM    3  N2  UNL     1      27.974   1.545  52.567  1.00  0.00    -0.221 NA
HETATM    4  C7  UNL     1      27.969   0.544  53.578  1.00  0.00     0.235 C 
HETATM    5  N1  UNL     1      26.840   0.079  53.965  1.00  0.00    -0.246 NA
HETATM    6  C6  UNL     1      25.556   0.473  53.535  1.00  0.00     0.050 C 
HETATM    7  C5  UNL     1      24.243   0.516  53.402  1.00  0.00     0.040 C 
HETATM    8  C17 UNL     1      25.682   1.268  52.325  1.00  0.00     0.153 C 
HETATM    9  C3  UNL     1      24.331   1.672  52.474  1.00  0.00     0.100 C 
BRANCH   9  10
HETATM   10  C2  UNL     1      23.389   1.487  51.302  1.00  0.00     0.033 C 
HETATM   11  C1  UNL     1      22.135   1.122  51.063  1.00  0.00     0.009 C 
ENDBRANCH   9  10
BRANCH   9  12
HETATM   12  O1  UNL     1      24.039   2.840  53.193  1.00  0.00    -0.379 OA
HETATM   13  C4  UNL     1      23.749   3.891  52.312  1.00  0.00     0.203 C 
ENDBRANCH   9  12
ENDBRANCH   1   2
BRANCH   1  14
HETATM   14  C9  UNL     1      26.473   3.083  49.868  1.00  0.00     0.204 C 
BRANCH  14  15
HETATM   15  C10 UNL     1      26.871   4.313  49.157  1.00  0.00    -0.004 C 
BRANCH  15  16
HETATM   16  C11 UNL     1      26.468   5.580  48.900  1.00  0.00    -0.027 C 
BRANCH  16  17
HETATM   17  C12 UNL     1      25.633   6.218  49.900  1.00  0.00     0.046 C 
BRANCH  17  18
HETATM   18  C13 UNL     1      24.220   6.472  49.484  1.00  0.00     0.128 C 
BRANCH  18  19
HETATM   19  N3  UNL     1      23.599   5.541  48.627  1.00  0.00    -0.337 N 
HETATM   20  C14 UNL     1      22.742   5.551  47.516  1.00  0.00     0.360 C 
HETATM   21  O3  UNL     1      22.367   6.658  47.108  1.00  0.00    -0.239 OA
HETATM   22  H17 UNL     1      23.832   4.531  48.871  1.00  0.00     0.164 HD
BRANCH  20  23
HETATM   23  O4  UNL     1      22.273   4.445  46.829  1.00  0.00    -0.304 OA
BRANCH  23  24
HETATM   24  C15 UNL     1      21.654   3.370  47.477  1.00  0.00     0.176 C 
HETATM   25  C16 UNL     1      22.567   2.159  47.582  1.00  0.00     0.034 C 
ENDBRANCH  23  24
ENDBRANCH  20  23
ENDBRANCH  18  19
ENDBRANCH  17  18
ENDBRANCH  16  17
ENDBRANCH  15  16
ENDBRANCH  14  15
ENDBRANCH   1  14
TORSDOF 11
ENDMDL
