MODEL 1
REMARK VINA RESULT:      -8.1      0.000      0.000
REMARK  2 active torsions:
REMARK  status: ('A' for Active; 'I' for Inactive)
REMARK    1  A    between atoms: C3_3  and  C4_4 
REMARK    2  A    between atoms: C10_13  and  N4_14 
ROOT
HETATM    1  C4  UNL     1      25.682   4.695  49.273  1.00  0.00     0.006 C 
HETATM    2  C5  UNL     1      25.410   3.519  49.861  1.00  0.00    -0.038 C 
HETATM    3  C6  UNL     1      26.573   2.633  50.131  1.00  0.00     0.156 C 
HETATM    4  N1  UNL     1      26.543   2.059  51.463  1.00  0.00    -0.379 N 
HETATM    5  C7  UNL     1      25.452   1.387  52.055  1.00  0.00     0.129 A 
HETATM    6  C8  UNL     1      24.124   1.440  51.715  1.00  0.00     0.197 A 
HETATM    7  N2  UNL     1      23.179   0.723  52.393  1.00  0.00    -0.216 NA
HETATM    8  C9  UNL     1      23.578  -0.062  53.435  1.00  0.00     0.238 A 
HETATM    9  N3  UNL     1      24.880  -0.130  53.788  1.00  0.00    -0.221 NA
HETATM   10  C10 UNL     1      25.833   0.573  53.127  1.00  0.00     0.167 A 
HETATM   11  O1  UNL     1      23.575   2.178  50.700  1.00  0.00    -0.328 OA
HETATM   12  C16 UNL     1      23.959   3.388  50.108  1.00  0.00     0.213 C 
HETATM   13  H9  UNL     1      27.412   2.137  52.071  1.00  0.00     0.160 HD
ENDROOT
BRANCH  10  14
HETATM   14  N4  UNL     1      27.190   0.514  53.480  1.00  0.00    -0.298 N 
HETATM   15  C11 UNL     1      28.016   1.475  54.138  1.00  0.00     0.099 A 
HETATM   16  C12 UNL     1      29.283   1.139  54.340  1.00  0.00     0.019 A 
HETATM   17  C13 UNL     1      29.772  -0.161  53.896  1.00  0.00     0.016 A 
HETATM   18  C14 UNL     1      29.048  -1.020  53.240  1.00  0.00     0.012 A 
HETATM   19  C15 UNL     1      27.778  -0.742  53.083  1.00  0.00     0.099 A 
HETATM   20 BR1  UNL     1      26.819  -2.189  52.276  1.00  0.00    -0.030 Br
ENDBRANCH  10  14
BRANCH   1  21
HETATM   21  C3  UNL     1      24.746   5.763  48.889  1.00  0.00    -0.004 C 
HETATM   22  C2  UNL     1      25.110   6.900  48.292  1.00  0.00    -0.031 C 
HETATM   23  C1  UNL     1      26.567   7.027  48.028  1.00  0.00     0.036 C 
ENDBRANCH   1  21
TORSDOF 2
ENDMDL
MODEL 2
REMARK VINA RESULT:      -8.1      2.700      3.855
REMARK  2 active torsions:
REMARK  status: ('A' for Active; 'I' for Inactive)
REMARK    1  A    between atoms: C3_3  and  C4_4 
REMARK    2  A    between atoms: C10_13  and  N4_14 
ROOT
HETATM    1  C4  UNL     1      27.971   5.085  48.536  1.00  0.00     0.006 C 
HETATM    2  C5  UNL     1      26.758   4.793  49.034  1.00  0.00    -0.038 C 
HETATM    3  C6  UNL     1      26.569   3.408  49.538  1.00  0.00     0.156 C 
HETATM    4  N1  UNL     1      25.897   3.366  50.823  1.00  0.00    -0.379 N 
HETATM    5  C7  UNL     1      24.691   4.022  51.153  1.00  0.00     0.129 A 
HETATM    6  C8  UNL     1      24.097   5.092  50.532  1.00  0.00     0.197 A 
HETATM    7  N2  UNL     1      22.919   5.618  50.978  1.00  0.00    -0.216 NA
HETATM    8  C9  UNL     1      22.324   5.057  52.070  1.00  0.00     0.238 A 
HETATM    9  N3  UNL     1      22.889   4.003  52.697  1.00  0.00    -0.221 NA
HETATM   10  C10 UNL     1      24.059   3.466  52.271  1.00  0.00     0.167 A 
HETATM   11  O1  UNL     1      24.571   5.757  49.433  1.00  0.00    -0.328 OA
HETATM   12  C16 UNL     1      25.871   5.973  48.956  1.00  0.00     0.213 C 
HETATM   13  H9  UNL     1      26.332   2.794  51.607  1.00  0.00     0.160 HD
ENDROOT
BRANCH  10  14
HETATM   14  N4  UNL     1      24.661   2.371  52.910  1.00  0.00    -0.298 N 
HETATM   15  C11 UNL     1      25.808   2.312  53.759  1.00  0.00     0.099 A 
HETATM   16  C12 UNL     1      26.149   1.118  54.224  1.00  0.00     0.019 A 
HETATM   17  C13 UNL     1      25.365  -0.057  53.862  1.00  0.00     0.016 A 
HETATM   18  C14 UNL     1      24.358  -0.028  53.040  1.00  0.00     0.012 A 
HETATM   19  C15 UNL     1      23.958   1.146  52.617  1.00  0.00     0.099 A 
HETATM   20 BR1  UNL     1      22.353   1.029  51.580  1.00  0.00    -0.030 Br
ENDBRANCH  10  14
BRANCH   1  21
HETATM   21  C3  UNL     1      28.446   6.358  47.973  1.00  0.00    -0.004 C 
HETATM   22  C2  UNL     1      29.714   6.602  47.634  1.00  0.00    -0.031 C 
HETATM   23  C1  UNL     1      30.650   5.472  47.869  1.00  0.00     0.036 C 
ENDBRANCH   1  21
TORSDOF 2
ENDMDL
MODEL 3
REMARK VINA RESULT:      -7.8      2.533      6.372
REMARK  2 active torsions:
REMARK  status: ('A' for Active; 'I' for Inactive)
REMARK    1  A    between atoms: C3_3  and  C4_4 
REMARK    2  A    between atoms: C10_13  and  N4_14 
ROOT
HETATM    1  C4  UNL     1      27.229  -0.023  52.828  1.00  0.00     0.006 C 
HETATM    2  C5  UNL     1      26.044   0.562  53.068  1.00  0.00    -0.038 C 
HETATM    3  C6  UNL     1      26.013   2.046  52.982  1.00  0.00     0.156 C 
HETATM    4  N1  UNL     1      24.869   2.541  52.239  1.00  0.00    -0.379 N 
HETATM    5  C7  UNL     1      23.520   2.177  52.449  1.00  0.00     0.129 A 
HETATM    6  C8  UNL     1      23.018   1.069  53.083  1.00  0.00     0.197 A 
HETATM    7  N2  UNL     1      21.674   0.858  53.204  1.00  0.00    -0.216 NA
HETATM    8  C9  UNL     1      20.818   1.780  52.679  1.00  0.00     0.238 A 
HETATM    9  N3  UNL     1      21.289   2.880  52.051  1.00  0.00    -0.221 NA
HETATM   10  C10 UNL     1      22.619   3.107  51.920  1.00  0.00     0.167 A 
HETATM   11  O1  UNL     1      23.748   0.063  53.657  1.00  0.00    -0.328 OA
HETATM   12  C16 UNL     1      25.018  -0.456  53.369  1.00  0.00     0.213 C 
HETATM   13  H9  UNL     1      25.034   3.244  51.459  1.00  0.00     0.160 HD
ENDROOT
BRANCH  10  14
HETATM   14  N4  UNL     1      23.127   4.243  51.271  1.00  0.00    -0.298 N 
HETATM   15  C11 UNL     1      23.595   5.481  51.806  1.00  0.00     0.099 A 
HETATM   16  C12 UNL     1      24.024   6.387  50.937  1.00  0.00     0.019 A 
HETATM   17  C13 UNL     1      24.001   6.095  49.509  1.00  0.00     0.016 A 
HETATM   18  C14 UNL     1      23.519   4.998  49.003  1.00  0.00     0.012 A 
HETATM   19  C15 UNL     1      23.150   4.060  49.840  1.00  0.00     0.099 A 
HETATM   20 BR1  UNL     1      22.654   2.445  48.939  1.00  0.00    -0.030 Br
ENDBRANCH  10  14
BRANCH   1  21
HETATM   21  C3  UNL     1      27.560  -1.456  52.840  1.00  0.00    -0.004 C 
HETATM   22  C2  UNL     1      28.761  -1.946  53.158  1.00  0.00    -0.031 C 
HETATM   23  C1  UNL     1      29.778  -0.922  53.511  1.00  0.00     0.036 C 
ENDBRANCH   1  21
TORSDOF 2
ENDMDL
MODEL 4
REMARK VINA RESULT:      -7.5      2.721      6.544
REMARK  2 active torsions:
REMARK  status: ('A' for Active; 'I' for Inactive)
REMARK    1  A    between atoms: C3_3  and  C4_4 
REMARK    2  A    between atoms: C10_13  and  N4_14 
ROOT
HETATM    1  C4  UNL     1      27.557  -0.154  53.271  1.00  0.00     0.006 C 
HETATM    2  C5  UNL     1      26.674   0.552  52.547  1.00  0.00    -0.038 C 
HETATM    3  C6  UNL     1      25.379  -0.118  52.252  1.00  0.00     0.156 C 
HETATM    4  N1  UNL     1      24.237   0.751  52.467  1.00  0.00    -0.379 N 
HETATM    5  C7  UNL     1      24.077   2.057  51.954  1.00  0.00     0.129 A 
HETATM    6  C8  UNL     1      25.036   2.921  51.490  1.00  0.00     0.197 A 
HETATM    7  N2  UNL     1      24.717   4.164  51.021  1.00  0.00    -0.216 NA
HETATM    8  C9  UNL     1      23.408   4.545  51.019  1.00  0.00     0.238 A 
HETATM    9  N3  UNL     1      22.446   3.711  51.470  1.00  0.00    -0.221 NA
HETATM   10  C10 UNL     1      22.742   2.474  51.939  1.00  0.00     0.167 A 
HETATM   11  O1  UNL     1      26.383   2.681  51.430  1.00  0.00    -0.328 OA
HETATM   12  C16 UNL     1      27.228   1.878  52.207  1.00  0.00     0.213 C 
HETATM   13  H9  UNL     1      23.432   0.395  53.063  1.00  0.00     0.160 HD
ENDROOT
BRANCH  10  14
HETATM   14  N4  UNL     1      21.756   1.594  52.412  1.00  0.00    -0.298 N 
HETATM   15  C11 UNL     1      21.398   1.238  53.748  1.00  0.00     0.099 A 
HETATM   16  C12 UNL     1      20.410   0.366  53.892  1.00  0.00     0.019 A 
HETATM   17  C13 UNL     1      19.745  -0.184  52.717  1.00  0.00     0.016 A 
HETATM   18  C14 UNL     1      20.102   0.082  51.495  1.00  0.00     0.012 A 
HETATM   19  C15 UNL     1      21.031   0.989  51.321  1.00  0.00     0.099 A 
HETATM   20 BR1  UNL     1      21.297   1.402  49.471  1.00  0.00    -0.030 Br
ENDBRANCH  10  14
BRANCH   1  21
HETATM   21  C3  UNL     1      28.903   0.243  53.712  1.00  0.00    -0.004 C 
HETATM   22  C2  UNL     1      29.944  -0.589  53.789  1.00  0.00    -0.031 C 
HETATM   23  C1  UNL     1      29.652  -1.990  53.388  1.00  0.00     0.036 C 
ENDBRANCH   1  21
TORSDOF 2
ENDMDL
MODEL 5
REMARK VINA RESULT:      -7.3      7.443      9.908
REMARK  2 active torsions:
REMARK  status: ('A' for Active; 'I' for Inactive)
REMARK    1  A    between atoms: C3_3  and  C4_4 
REMARK    2  A    between atoms: C10_13  and  N4_14 
ROOT
HETATM    1  C4  UNL     1      28.220   5.851  48.216  1.00  0.00     0.006 C 
HETATM    2  C5  UNL     1      29.456   6.371  48.282  1.00  0.00    -0.038 C 
HETATM    3  C6  UNL     1      30.583   5.410  48.151  1.00  0.00     0.156 C 
HETATM    4  N1  UNL     1      31.619   5.881  47.251  1.00  0.00    -0.379 N 
HETATM    5  C7  UNL     1      32.245   7.146  47.291  1.00  0.00     0.129 A 
HETATM    6  C8  UNL     1      31.807   8.303  47.884  1.00  0.00     0.197 A 
HETATM    7  N2  UNL     1      32.535   9.457  47.833  1.00  0.00    -0.216 NA
HETATM    8  C9  UNL     1      33.729   9.448  47.174  1.00  0.00     0.238 A 
HETATM    9  N3  UNL     1      34.182   8.320  46.583  1.00  0.00    -0.221 NA
HETATM   10  C10 UNL     1      33.473   7.165  46.622  1.00  0.00     0.167 A 
HETATM   11  O1  UNL     1      30.637   8.466  48.577  1.00  0.00    -0.328 OA
HETATM   12  C16 UNL     1      29.390   7.834  48.474  1.00  0.00     0.213 C 
HETATM   13  H9  UNL     1      31.956   5.231  46.479  1.00  0.00     0.160 HD
ENDROOT
BRANCH  10  14
HETATM   14  N4  UNL     1      33.928   5.984  46.014  1.00  0.00    -0.298 N 
HETATM   15  C11 UNL     1      33.799   5.529  44.666  1.00  0.00     0.099 A 
HETATM   16  C12 UNL     1      34.337   4.353  44.376  1.00  0.00     0.019 A 
HETATM   17  C13 UNL     1      35.020   3.588  45.413  1.00  0.00     0.016 A 
HETATM   18  C14 UNL     1      35.089   3.959  46.657  1.00  0.00     0.012 A 
HETATM   19  C15 UNL     1      34.624   5.146  46.959  1.00  0.00     0.099 A 
HETATM   20 BR1  UNL     1      34.981   5.617  48.780  1.00  0.00    -0.030 Br
ENDBRANCH  10  14
BRANCH   1  21
HETATM   21  C3  UNL     1      26.928   6.548  48.312  1.00  0.00    -0.004 C 
HETATM   22  C2  UNL     1      25.825   6.014  48.842  1.00  0.00    -0.031 C 
HETATM   23  C1  UNL     1      25.985   4.625  49.346  1.00  0.00     0.036 C 
ENDBRANCH   1  21
TORSDOF 2
ENDMDL
MODEL 6
REMARK VINA RESULT:      -7.1      7.590      9.870
REMARK  2 active torsions:
REMARK  status: ('A' for Active; 'I' for Inactive)
REMARK    1  A    between atoms: C3_3  and  C4_4 
REMARK    2  A    between atoms: C10_13  and  N4_14 
ROOT
HETATM    1  C4  UNL     1      28.205   6.297  48.170  1.00  0.00     0.006 C 
HETATM    2  C5  UNL     1      29.452   6.782  48.291  1.00  0.00    -0.038 C 
HETATM    3  C6  UNL     1      30.518   5.791  48.593  1.00  0.00     0.156 C 
HETATM    4  N1  UNL     1      31.703   5.976  47.776  1.00  0.00    -0.379 N 
HETATM    5  C7  UNL     1      32.400   7.189  47.584  1.00  0.00     0.129 A 
HETATM    6  C8  UNL     1      31.960   8.473  47.780  1.00  0.00     0.197 A 
HETATM    7  N2  UNL     1      32.765   9.552  47.547  1.00  0.00    -0.216 NA
HETATM    8  C9  UNL     1      34.038   9.335  47.108  1.00  0.00     0.238 A 
HETATM    9  N3  UNL     1      34.494   8.079  46.909  1.00  0.00    -0.221 NA
HETATM   10  C10 UNL     1      33.711   6.995  47.134  1.00  0.00     0.167 A 
HETATM   11  O1  UNL     1      30.717   8.847  48.215  1.00  0.00    -0.328 OA
HETATM   12  C16 UNL     1      29.458   8.245  48.084  1.00  0.00     0.213 C 
HETATM   13  H9  UNL     1      32.103   5.136  47.262  1.00  0.00     0.160 HD
ENDROOT
BRANCH  10  14
HETATM   14  N4  UNL     1      34.167   5.683  46.933  1.00  0.00    -0.298 N 
HETATM   15  C11 UNL     1      34.650   4.719  47.868  1.00  0.00     0.099 A 
HETATM   16  C12 UNL     1      35.018   3.542  47.380  1.00  0.00     0.019 A 
HETATM   17  C13 UNL     1      34.920   3.283  45.949  1.00  0.00     0.016 A 
HETATM   18  C14 UNL     1      34.543   4.172  45.078  1.00  0.00     0.012 A 
HETATM   19  C15 UNL     1      34.112   5.321  45.537  1.00  0.00     0.099 A 
HETATM   20 BR1  UNL     1      33.412   6.436  44.147  1.00  0.00    -0.030 Br
ENDBRANCH  10  14
BRANCH   1  21
HETATM   21  C3  UNL     1      26.964   7.029  47.877  1.00  0.00    -0.004 C 
HETATM   22  C2  UNL     1      25.763   6.692  48.356  1.00  0.00    -0.031 C 
HETATM   23  C1  UNL     1      25.757   5.492  49.233  1.00  0.00     0.036 C 
ENDBRANCH   1  21
TORSDOF 2
ENDMDL
MODEL 7
REMARK VINA RESULT:      -7.1      6.367      9.152
REMARK  2 active torsions:
REMARK  status: ('A' for Active; 'I' for Inactive)
REMARK    1  A    between atoms: C3_3  and  C4_4 
REMARK    2  A    between atoms: C10_13  and  N4_14 
ROOT
HETATM    1  C4  UNL     1      25.641   6.067  48.997  1.00  0.00     0.006 C 
HETATM    2  C5  UNL     1      26.892   6.110  48.511  1.00  0.00    -0.038 C 
HETATM    3  C6  UNL     1      27.306   7.385  47.868  1.00  0.00     0.156 C 
HETATM    4  N1  UNL     1      28.625   7.821  48.285  1.00  0.00    -0.379 N 
HETATM    5  C7  UNL     1      29.799   7.036  48.285  1.00  0.00     0.129 A 
HETATM    6  C8  UNL     1      29.919   5.669  48.270  1.00  0.00     0.197 A 
HETATM    7  N2  UNL     1      31.139   5.055  48.273  1.00  0.00    -0.216 NA
HETATM    8  C9  UNL     1      32.261   5.830  48.292  1.00  0.00     0.238 A 
HETATM    9  N3  UNL     1      32.168   7.178  48.307  1.00  0.00    -0.221 NA
HETATM   10  C10 UNL     1      30.966   7.807  48.304  1.00  0.00     0.167 A 
HETATM   11  O1  UNL     1      28.891   4.766  48.250  1.00  0.00    -0.328 OA
HETATM   12  C16 UNL     1      27.581   4.824  48.746  1.00  0.00     0.213 C 
HETATM   13  H9  UNL     1      28.746   8.820  48.627  1.00  0.00     0.160 HD
ENDROOT
BRANCH  10  14
HETATM   14  N4  UNL     1      30.850   9.205  48.319  1.00  0.00    -0.298 N 
HETATM   15  C11 UNL     1      30.732  10.111  49.416  1.00  0.00     0.099 A 
HETATM   16  C12 UNL     1      30.636  11.401  49.122  1.00  0.00     0.019 A 
HETATM   17  C13 UNL     1      30.654  11.834  47.730  1.00  0.00     0.016 A 
HETATM   18  C14 UNL     1      30.697  11.017  46.719  1.00  0.00     0.012 A 
HETATM   19  C15 UNL     1      30.858   9.744  46.980  1.00  0.00     0.099 A 
HETATM   20 BR1  UNL     1      31.099   8.707  45.389  1.00  0.00    -0.030 Br
ENDBRANCH  10  14
BRANCH   1  21
HETATM   21  C3  UNL     1      24.962   4.954  49.678  1.00  0.00    -0.004 C 
HETATM   22  C2  UNL     1      23.792   4.440  49.293  1.00  0.00    -0.031 C 
HETATM   23  C1  UNL     1      23.194   5.082  48.093  1.00  0.00     0.036 C 
ENDBRANCH   1  21
TORSDOF 2
ENDMDL
MODEL 8
REMARK VINA RESULT:      -6.9      3.545      7.665
REMARK  2 active torsions:
REMARK  status: ('A' for Active; 'I' for Inactive)
REMARK    1  A    between atoms: C3_3  and  C4_4 
REMARK    2  A    between atoms: C10_13  and  N4_14 
ROOT
HETATM    1  C4  UNL     1      22.567   0.427  52.912  1.00  0.00     0.006 C 
HETATM    2  C5  UNL     1      23.335   0.984  51.961  1.00  0.00    -0.038 C 
HETATM    3  C6  UNL     1      22.628   1.482  50.751  1.00  0.00     0.156 C 
HETATM    4  N1  UNL     1      23.077   2.800  50.343  1.00  0.00    -0.379 N 
HETATM    5  C7  UNL     1      24.417   3.200  50.150  1.00  0.00     0.129 A 
HETATM    6  C8  UNL     1      25.564   2.624  50.634  1.00  0.00     0.197 A 
HETATM    7  N2  UNL     1      26.798   3.137  50.356  1.00  0.00    -0.216 NA
HETATM    8  C9  UNL     1      26.882   4.252  49.575  1.00  0.00     0.238 A 
HETATM    9  N3  UNL     1      25.767   4.837  49.086  1.00  0.00    -0.221 NA
HETATM   10  C10 UNL     1      24.532   4.343  49.351  1.00  0.00     0.167 A 
HETATM   11  O1  UNL     1      25.639   1.509  51.426  1.00  0.00    -0.328 OA
HETATM   12  C16 UNL     1      24.755   0.967  52.369  1.00  0.00     0.213 C 
HETATM   13  H9  UNL     1      22.347   3.553  50.165  1.00  0.00     0.160 HD
ENDROOT
BRANCH  10  14
HETATM   14  N4  UNL     1      23.362   4.937  48.852  1.00  0.00    -0.298 N 
HETATM   15  C11 UNL     1      22.527   4.557  47.758  1.00  0.00     0.099 A 
HETATM   16  C12 UNL     1      21.471   5.322  47.516  1.00  0.00     0.019 A 
HETATM   17  C13 UNL     1      21.209   6.488  48.351  1.00  0.00     0.016 A 
HETATM   18  C14 UNL     1      21.994   6.882  49.309  1.00  0.00     0.012 A 
HETATM   19  C15 UNL     1      23.009   6.111  49.613  1.00  0.00     0.099 A 
HETATM   20 BR1  UNL     1      23.944   6.728  51.165  1.00  0.00    -0.030 Br
ENDBRANCH  10  14
BRANCH   1  21
HETATM   21  C3  UNL     1      22.981  -0.146  54.202  1.00  0.00    -0.004 C 
HETATM   22  C2  UNL     1      22.280  -1.060  54.877  1.00  0.00    -0.031 C 
HETATM   23  C1  UNL     1      21.012  -1.479  54.224  1.00  0.00     0.036 C 
ENDBRANCH   1  21
TORSDOF 2
ENDMDL
MODEL 9
REMARK VINA RESULT:      -6.8      3.346      6.910
REMARK  2 active torsions:
REMARK  status: ('A' for Active; 'I' for Inactive)
REMARK    1  A    between atoms: C3_3  and  C4_4 
REMARK    2  A    between atoms: C10_13  and  N4_14 
ROOT
HETATM    1  C4  UNL     1      24.917   1.288  53.418  1.00  0.00     0.006 C 
HETATM    2  C5  UNL     1      24.163   1.997  52.561  1.00  0.00    -0.038 C 
HETATM    3  C6  UNL     1      24.323   3.475  52.611  1.00  0.00     0.156 C 
HETATM    4  N1  UNL     1      24.436   4.071  51.294  1.00  0.00    -0.379 N 
HETATM    5  C7  UNL     1      23.564   3.854  50.204  1.00  0.00     0.129 A 
HETATM    6  C8  UNL     1      22.692   2.815  49.996  1.00  0.00     0.197 A 
HETATM    7  N2  UNL     1      21.909   2.748  48.879  1.00  0.00    -0.216 NA
HETATM    8  C9  UNL     1      22.005   3.744  47.952  1.00  0.00     0.238 A 
HETATM    9  N3  UNL     1      22.857   4.776  48.136  1.00  0.00    -0.221 NA
HETATM   10  C10 UNL     1      23.642   4.862  49.238  1.00  0.00     0.167 A 
HETATM   11  O1  UNL     1      22.486   1.750  50.831  1.00  0.00    -0.328 OA
HETATM   12  C16 UNL     1      23.327   1.096  51.742  1.00  0.00     0.213 C 
HETATM   13  H9  UNL     1      25.242   4.738  51.105  1.00  0.00     0.160 HD
ENDROOT
BRANCH  10  14
HETATM   14  N4  UNL     1      24.532   5.927  49.445  1.00  0.00    -0.298 N 
HETATM   15  C11 UNL     1      25.912   6.058  49.103  1.00  0.00     0.099 A 
HETATM   16  C12 UNL     1      26.506   7.198  49.430  1.00  0.00     0.019 A 
HETATM   17  C13 UNL     1      25.751   8.245  50.108  1.00  0.00     0.016 A 
HETATM   18  C14 UNL     1      24.512   8.115  50.482  1.00  0.00     0.012 A 
HETATM   19  C15 UNL     1      23.882   7.027  50.116  1.00  0.00     0.099 A 
HETATM   20 BR1  UNL     1      22.024   7.081  50.573  1.00  0.00    -0.030 Br
ENDBRANCH  10  14
BRANCH   1  21
HETATM   21  C3  UNL     1      24.972  -0.171  53.594  1.00  0.00    -0.004 C 
HETATM   22  C2  UNL     1      25.965  -0.944  53.147  1.00  0.00    -0.031 C 
HETATM   23  C1  UNL     1      27.048  -0.216  52.435  1.00  0.00     0.036 C 
ENDBRANCH   1  21
TORSDOF 2
ENDMDL
