MODEL 1
REMARK VINA RESULT:      -6.6      0.000      0.000
REMARK  9 active torsions:
REMARK  status: ('A' for Active; 'I' for Inactive)
REMARK    1  A    between atoms: O1_2  and  C2_3 
REMARK    2  A    between atoms: C5_6  and  N1_7 
REMARK    3  A    between atoms: N1_7  and  C6_8 
REMARK    4  A    between atoms: C6_8  and  N2_9 
REMARK    5  A    between atoms: N2_9  and  C7_10 
REMARK    6  A    between atoms: C7_10  and  N3_11 
REMARK    7  A    between atoms: N3_11  and  C8_12 
REMARK    8  A    between atoms: C11_15  and  N4_16 
REMARK       I    between atoms: N4_16  and  C12_17 
REMARK    9  A    between atoms: C17_23  and  O3_24 
ROOT
HETATM    1  C7  UNL     1      24.386   3.880  49.090  1.00  0.00     0.272 C 
ENDROOT
BRANCH   1   2
HETATM    2  N2  UNL     1      25.341   4.215  50.105  1.00  0.00    -0.263 NA
BRANCH   2   3
HETATM    3  C6  UNL     1      26.037   3.315  50.672  1.00  0.00     0.228 C 
BRANCH   3   4
HETATM    4  N1  UNL     1      26.877   2.285  51.156  1.00  0.00    -0.247 NA
BRANCH   4   5
HETATM    5  C5  UNL     1      26.448   1.474  52.054  1.00  0.00     0.042 A 
HETATM    6  C4  UNL     1      25.029   1.205  52.311  1.00  0.00     0.089 A 
HETATM    7  C3  UNL     1      24.837   0.236  53.395  1.00  0.00     0.019 A 
HETATM    8  C2  UNL     1      25.848  -0.324  54.057  1.00  0.00     0.098 A 
HETATM    9  C17 UNL     1      27.249  -0.026  53.766  1.00  0.00     0.103 A 
HETATM   10  C16 UNL     1      27.510   0.844  52.796  1.00  0.00     0.067 A 
BRANCH   8  11
HETATM   11  O1  UNL     1      25.476  -1.219  55.052  1.00  0.00    -0.353 OA
HETATM   12  C1  UNL     1      24.136  -1.297  55.492  1.00  0.00     0.210 C 
ENDBRANCH   8  11
BRANCH   9  13
HETATM   13  O3  UNL     1      28.270  -0.640  54.489  1.00  0.00    -0.353 OA
HETATM   14  C18 UNL     1      29.474  -0.961  53.778  1.00  0.00     0.210 C 
ENDBRANCH   9  13
ENDBRANCH   4   5
ENDBRANCH   3   4
ENDBRANCH   2   3
ENDBRANCH   1   2
BRANCH   1  15
HETATM   15  N3  UNL     1      23.021   4.051  49.598  1.00  0.00    -0.372 N 
HETATM   16  H10 UNL     1      22.489   4.934  49.405  1.00  0.00     0.161 HD
BRANCH  15  17
HETATM   17  C8  UNL     1      22.392   3.027  50.359  1.00  0.00     0.029 A 
HETATM   18  C9  UNL     1      22.166   1.766  49.794  1.00  0.00     0.031 A 
HETATM   19  C10 UNL     1      21.545   0.801  50.591  1.00  0.00     0.032 A 
HETATM   20  C11 UNL     1      21.161   1.056  51.881  1.00  0.00     0.034 A 
HETATM   21  C14 UNL     1      21.383   2.309  52.446  1.00  0.00     0.032 A 
HETATM   22  C15 UNL     1      21.997   3.262  51.659  1.00  0.00     0.031 A 
BRANCH  20  23
HETATM   23  N4  UNL     1      20.540  -0.029  52.560  1.00  0.00    -0.328 N 
HETATM   24  C12 UNL     1      19.128  -0.199  52.562  1.00  0.00     0.218 C 
HETATM   25  C13 UNL     1      18.318  -1.242  53.198  1.00  0.00     0.117 C 
HETATM   26  O2  UNL     1      18.395   0.642  51.938  1.00  0.00    -0.274 OA
HETATM   27  H13 UNL     1      21.048  -0.760  53.093  1.00  0.00     0.169 HD
ENDBRANCH  20  23
ENDBRANCH  15  17
ENDBRANCH   1  15
TORSDOF 9
ENDMDL
MODEL 2
REMARK VINA RESULT:      -6.5      2.663      5.382
REMARK  9 active torsions:
REMARK  status: ('A' for Active; 'I' for Inactive)
REMARK    1  A    between atoms: O1_2  and  C2_3 
REMARK    2  A    between atoms: C5_6  and  N1_7 
REMARK    3  A    between atoms: N1_7  and  C6_8 
REMARK    4  A    between atoms: C6_8  and  N2_9 
REMARK    5  A    between atoms: N2_9  and  C7_10 
REMARK    6  A    between atoms: C7_10  and  N3_11 
REMARK    7  A    between atoms: N3_11  and  C8_12 
REMARK    8  A    between atoms: C11_15  and  N4_16 
REMARK       I    between atoms: N4_16  and  C12_17 
REMARK    9  A    between atoms: C17_23  and  O3_24 
ROOT
HETATM    1  C7  UNL     1      20.552   2.031  51.608  1.00  0.00     0.272 C 
ENDROOT
BRANCH   1   2
HETATM    2  N2  UNL     1      20.601   1.246  52.806  1.00  0.00    -0.263 NA
BRANCH   2   3
HETATM    3  C6  UNL     1      21.689   0.720  53.201  1.00  0.00     0.228 C 
BRANCH   3   4
HETATM    4  N1  UNL     1      22.817  -0.005  53.650  1.00  0.00    -0.247 NA
BRANCH   4   5
HETATM    5  C5  UNL     1      24.000   0.431  53.410  1.00  0.00     0.042 A 
HETATM    6  C4  UNL     1      24.302   1.805  52.993  1.00  0.00     0.089 A 
HETATM    7  C3  UNL     1      25.739   2.019  52.791  1.00  0.00     0.019 A 
HETATM    8  C2  UNL     1      26.649   1.063  52.971  1.00  0.00     0.098 A 
HETATM    9  C17 UNL     1      26.301  -0.294  53.388  1.00  0.00     0.103 A 
HETATM   10  C16 UNL     1      25.018  -0.572  53.592  1.00  0.00     0.067 A 
BRANCH   8  11
HETATM   11  O1  UNL     1      27.962   1.447  52.732  1.00  0.00    -0.353 OA
HETATM   12  C1  UNL     1      28.640   2.301  53.630  1.00  0.00     0.210 C 
ENDBRANCH   8  11
BRANCH   9  13
HETATM   13  O3  UNL     1      27.292  -1.259  53.562  1.00  0.00    -0.353 OA
HETATM   14  C18 UNL     1      27.344  -2.325  52.604  1.00  0.00     0.210 C 
ENDBRANCH   9  13
ENDBRANCH   4   5
ENDBRANCH   3   4
ENDBRANCH   2   3
ENDBRANCH   1   2
BRANCH   1  15
HETATM   15  N3  UNL     1      21.112   3.365  51.850  1.00  0.00    -0.372 N 
HETATM   16  H10 UNL     1      20.690   3.994  52.574  1.00  0.00     0.161 HD
BRANCH  15  17
HETATM   17  C8  UNL     1      22.235   3.829  51.110  1.00  0.00     0.029 A 
HETATM   18  C9  UNL     1      22.964   4.938  51.555  1.00  0.00     0.031 A 
HETATM   19  C10 UNL     1      24.056   5.347  50.787  1.00  0.00     0.032 A 
HETATM   20  C11 UNL     1      24.421   4.701  49.635  1.00  0.00     0.034 A 
HETATM   21  C14 UNL     1      23.698   3.599  49.187  1.00  0.00     0.032 A 
HETATM   22  C15 UNL     1      22.619   3.194  49.948  1.00  0.00     0.031 A 
BRANCH  20  23
HETATM   23  N4  UNL     1      25.555   5.239  48.965  1.00  0.00    -0.328 N 
HETATM   24  C12 UNL     1      26.847   4.661  49.104  1.00  0.00     0.218 C 
HETATM   25  C13 UNL     1      28.119   5.070  48.500  1.00  0.00     0.117 C 
HETATM   26  O2  UNL     1      26.998   3.633  49.849  1.00  0.00    -0.274 OA
HETATM   27  H13 UNL     1      25.535   6.067  48.341  1.00  0.00     0.169 HD
ENDBRANCH  20  23
ENDBRANCH  15  17
ENDBRANCH   1  15
TORSDOF 9
ENDMDL
MODEL 3
REMARK VINA RESULT:      -6.5      2.637      6.568
REMARK  9 active torsions:
REMARK  status: ('A' for Active; 'I' for Inactive)
REMARK    1  A    between atoms: O1_2  and  C2_3 
REMARK    2  A    between atoms: C5_6  and  N1_7 
REMARK    3  A    between atoms: N1_7  and  C6_8 
REMARK    4  A    between atoms: C6_8  and  N2_9 
REMARK    5  A    between atoms: N2_9  and  C7_10 
REMARK    6  A    between atoms: C7_10  and  N3_11 
REMARK    7  A    between atoms: N3_11  and  C8_12 
REMARK    8  A    between atoms: C11_15  and  N4_16 
REMARK       I    between atoms: N4_16  and  C12_17 
REMARK    9  A    between atoms: C17_23  and  O3_24 
ROOT
HETATM    1  C7  UNL     1      19.774   0.115  52.140  1.00  0.00     0.272 C 
ENDROOT
BRANCH   1   2
HETATM    2  N2  UNL     1      19.024   1.250  51.687  1.00  0.00    -0.263 NA
BRANCH   2   3
HETATM    3  C6  UNL     1      19.451   2.434  51.869  1.00  0.00     0.228 C 
BRANCH   3   4
HETATM    4  N1  UNL     1      20.072   3.683  52.101  1.00  0.00    -0.247 NA
BRANCH   4   5
HETATM    5  C5  UNL     1      21.300   3.862  51.770  1.00  0.00     0.042 A 
HETATM    6  C4  UNL     1      22.313   4.450  52.653  1.00  0.00     0.089 A 
HETATM    7  C3  UNL     1      23.628   4.532  52.008  1.00  0.00     0.019 A 
HETATM    8  C2  UNL     1      23.854   4.116  50.763  1.00  0.00     0.098 A 
HETATM    9  C17 UNL     1      22.812   3.535  49.919  1.00  0.00     0.103 A 
HETATM   10  C16 UNL     1      21.590   3.425  50.428  1.00  0.00     0.067 A 
BRANCH   8  11
HETATM   11  O1  UNL     1      25.160   4.273  50.318  1.00  0.00    -0.353 OA
HETATM   12  C1  UNL     1      26.105   3.233  50.467  1.00  0.00     0.210 C 
ENDBRANCH   8  11
BRANCH   9  13
HETATM   13  O3  UNL     1      23.101   3.115  48.621  1.00  0.00    -0.353 OA
HETATM   14  C18 UNL     1      22.297   2.057  48.081  1.00  0.00     0.210 C 
ENDBRANCH   9  13
ENDBRANCH   4   5
ENDBRANCH   3   4
ENDBRANCH   2   3
ENDBRANCH   1   2
BRANCH   1  15
HETATM   15  N3  UNL     1      20.470   0.432  53.392  1.00  0.00    -0.372 N 
HETATM   16  H10 UNL     1      19.951   0.868  54.192  1.00  0.00     0.161 HD
BRANCH  15  17
HETATM   17  C8  UNL     1      21.857   0.154  53.545  1.00  0.00     0.029 A 
HETATM   18  C9  UNL     1      22.300  -0.678  54.580  1.00  0.00     0.031 A 
HETATM   19  C10 UNL     1      23.673  -0.913  54.679  1.00  0.00     0.032 A 
HETATM   20  C11 UNL     1      24.574  -0.361  53.807  1.00  0.00     0.034 A 
HETATM   21  C14 UNL     1      24.138   0.468  52.777  1.00  0.00     0.032 A 
HETATM   22  C15 UNL     1      22.781   0.700  52.678  1.00  0.00     0.031 A 
BRANCH  20  23
HETATM   23  N4  UNL     1      25.937  -0.696  54.041  1.00  0.00    -0.328 N 
HETATM   24  C12 UNL     1      26.873   0.269  54.504  1.00  0.00     0.218 C 
HETATM   25  C13 UNL     1      28.301   0.113  54.799  1.00  0.00     0.117 C 
HETATM   26  O2  UNL     1      26.485   1.468  54.718  1.00  0.00    -0.274 OA
HETATM   27  H13 UNL     1      26.347  -1.637  53.898  1.00  0.00     0.169 HD
ENDBRANCH  20  23
ENDBRANCH  15  17
ENDBRANCH   1  15
TORSDOF 9
ENDMDL
MODEL 4
REMARK VINA RESULT:      -6.4      3.766      7.306
REMARK  9 active torsions:
REMARK  status: ('A' for Active; 'I' for Inactive)
REMARK    1  A    between atoms: O1_2  and  C2_3 
REMARK    2  A    between atoms: C5_6  and  N1_7 
REMARK    3  A    between atoms: N1_7  and  C6_8 
REMARK    4  A    between atoms: C6_8  and  N2_9 
REMARK    5  A    between atoms: N2_9  and  C7_10 
REMARK    6  A    between atoms: C7_10  and  N3_11 
REMARK    7  A    between atoms: N3_11  and  C8_12 
REMARK    8  A    between atoms: C11_15  and  N4_16 
REMARK       I    between atoms: N4_16  and  C12_17 
REMARK    9  A    between atoms: C17_23  and  O3_24 
ROOT
HETATM    1  C7  UNL     1      24.069   5.074  50.782  1.00  0.00     0.272 C 
ENDROOT
BRANCH   1   2
HETATM    2  N2  UNL     1      23.525   4.234  51.808  1.00  0.00    -0.263 NA
BRANCH   2   3
HETATM    3  C6  UNL     1      23.601   2.967  51.727  1.00  0.00     0.228 C 
BRANCH   3   4
HETATM    4  N1  UNL     1      23.704   1.559  51.800  1.00  0.00    -0.247 NA
BRANCH   4   5
HETATM    5  C5  UNL     1      24.756   1.015  52.297  1.00  0.00     0.042 A 
HETATM    6  C4  UNL     1      26.109   1.203  51.764  1.00  0.00     0.089 A 
HETATM    7  C3  UNL     1      27.115   0.460  52.533  1.00  0.00     0.019 A 
HETATM    8  C2  UNL     1      26.812  -0.291  53.590  1.00  0.00     0.098 A 
HETATM    9  C17 UNL     1      25.446  -0.448  54.087  1.00  0.00     0.103 A 
HETATM   10  C16 UNL     1      24.474   0.192  53.445  1.00  0.00     0.067 A 
BRANCH   8  11
HETATM   11  O1  UNL     1      27.892  -0.921  54.193  1.00  0.00    -0.353 OA
HETATM   12  C1  UNL     1      29.167  -0.312  54.211  1.00  0.00     0.210 C 
ENDBRANCH   8  11
BRANCH   9  13
HETATM   13  O3  UNL     1      25.183  -1.247  55.198  1.00  0.00    -0.353 OA
HETATM   14  C18 UNL     1      23.813  -1.369  55.608  1.00  0.00     0.210 C 
ENDBRANCH   9  13
ENDBRANCH   4   5
ENDBRANCH   3   4
ENDBRANCH   2   3
ENDBRANCH   1   2
BRANCH   1  15
HETATM   15  N3  UNL     1      25.160   4.385  50.084  1.00  0.00    -0.372 N 
HETATM   16  H10 UNL     1      25.230   3.339  50.112  1.00  0.00     0.161 HD
BRANCH  15  17
HETATM   17  C8  UNL     1      26.140   5.117  49.359  1.00  0.00     0.029 A 
HETATM   18  C9  UNL     1      25.887   6.435  48.963  1.00  0.00     0.031 A 
HETATM   19  C10 UNL     1      26.887   7.103  48.253  1.00  0.00     0.032 A 
HETATM   20  C11 UNL     1      28.083   6.510  47.944  1.00  0.00     0.034 A 
HETATM   21  C14 UNL     1      28.339   5.198  48.335  1.00  0.00     0.032 A 
HETATM   22  C15 UNL     1      27.351   4.539  49.037  1.00  0.00     0.031 A 
BRANCH  20  23
HETATM   23  N4  UNL     1      28.998   7.321  47.217  1.00  0.00    -0.328 N 
HETATM   24  C12 UNL     1      29.933   8.166  47.876  1.00  0.00     0.218 C 
HETATM   25  C13 UNL     1      30.942   9.062  47.302  1.00  0.00     0.117 C 
HETATM   26  O2  UNL     1      29.955   8.201  49.154  1.00  0.00    -0.274 OA
HETATM   27  H13 UNL     1      29.058   7.362  46.182  1.00  0.00     0.169 HD
ENDBRANCH  20  23
ENDBRANCH  15  17
ENDBRANCH   1  15
TORSDOF 9
ENDMDL
MODEL 5
REMARK VINA RESULT:      -6.4      2.735      6.107
REMARK  9 active torsions:
REMARK  status: ('A' for Active; 'I' for Inactive)
REMARK    1  A    between atoms: O1_2  and  C2_3 
REMARK    2  A    between atoms: C5_6  and  N1_7 
REMARK    3  A    between atoms: N1_7  and  C6_8 
REMARK    4  A    between atoms: C6_8  and  N2_9 
REMARK    5  A    between atoms: N2_9  and  C7_10 
REMARK    6  A    between atoms: C7_10  and  N3_11 
REMARK    7  A    between atoms: N3_11  and  C8_12 
REMARK    8  A    between atoms: C11_15  and  N4_16 
REMARK       I    between atoms: N4_16  and  C12_17 
REMARK    9  A    between atoms: C17_23  and  O3_24 
ROOT
HETATM    1  C7  UNL     1      21.843   3.301  49.910  1.00  0.00     0.272 C 
ENDROOT
BRANCH   1   2
HETATM    2  N2  UNL     1      21.367   2.851  51.185  1.00  0.00    -0.263 NA
BRANCH   2   3
HETATM    3  C6  UNL     1      21.948   1.905  51.805  1.00  0.00     0.228 C 
BRANCH   3   4
HETATM    4  N1  UNL     1      22.701   0.851  52.372  1.00  0.00    -0.247 NA
BRANCH   4   5
HETATM    5  C5  UNL     1      23.863   1.084  52.867  1.00  0.00     0.042 A 
HETATM    6  C4  UNL     1      24.388   2.426  53.137  1.00  0.00     0.089 A 
HETATM    7  C3  UNL     1      25.742   2.388  53.702  1.00  0.00     0.019 A 
HETATM    8  C2  UNL     1      26.400   1.253  53.935  1.00  0.00     0.098 A 
HETATM    9  C17 UNL     1      25.834  -0.064  53.650  1.00  0.00     0.103 A 
HETATM   10  C16 UNL     1      24.610  -0.117  53.135  1.00  0.00     0.067 A 
BRANCH   8  11
HETATM   11  O1  UNL     1      27.670   1.409  54.472  1.00  0.00    -0.353 OA
HETATM   12  C1  UNL     1      28.736   1.891  53.681  1.00  0.00     0.210 C 
ENDBRANCH   8  11
BRANCH   9  13
HETATM   13  O3  UNL     1      26.565  -1.222  53.913  1.00  0.00    -0.353 OA
HETATM   14  C18 UNL     1      27.215  -1.853  52.800  1.00  0.00     0.210 C 
ENDBRANCH   9  13
ENDBRANCH   4   5
ENDBRANCH   3   4
ENDBRANCH   2   3
ENDBRANCH   1   2
BRANCH   1  15
HETATM   15  N3  UNL     1      23.206   2.812  49.673  1.00  0.00    -0.372 N 
HETATM   16  H10 UNL     1      23.402   1.782  49.645  1.00  0.00     0.161 HD
BRANCH  15  17
HETATM   17  C8  UNL     1      24.283   3.720  49.476  1.00  0.00     0.029 A 
HETATM   18  C9  UNL     1      25.594   3.337  49.783  1.00  0.00     0.031 A 
HETATM   19  C10 UNL     1      26.609   4.272  49.569  1.00  0.00     0.032 A 
HETATM   20  C11 UNL     1      26.355   5.525  49.076  1.00  0.00     0.034 A 
HETATM   21  C14 UNL     1      25.053   5.910  48.770  1.00  0.00     0.032 A 
HETATM   22  C15 UNL     1      24.050   4.986  48.981  1.00  0.00     0.031 A 
BRANCH  20  23
HETATM   23  N4  UNL     1      27.495   6.362  48.915  1.00  0.00    -0.328 N 
HETATM   24  C12 UNL     1      28.733   5.851  48.435  1.00  0.00     0.218 C 
HETATM   25  C13 UNL     1      30.001   6.551  48.205  1.00  0.00     0.117 C 
HETATM   26  O2  UNL     1      28.828   4.611  48.140  1.00  0.00    -0.274 OA
HETATM   27  H13 UNL     1      27.517   7.377  49.126  1.00  0.00     0.169 HD
ENDBRANCH  20  23
ENDBRANCH  15  17
ENDBRANCH   1  15
TORSDOF 9
ENDMDL
MODEL 6
REMARK VINA RESULT:      -6.4      3.937      7.495
REMARK  9 active torsions:
REMARK  status: ('A' for Active; 'I' for Inactive)
REMARK    1  A    between atoms: O1_2  and  C2_3 
REMARK    2  A    between atoms: C5_6  and  N1_7 
REMARK    3  A    between atoms: N1_7  and  C6_8 
REMARK    4  A    between atoms: C6_8  and  N2_9 
REMARK    5  A    between atoms: N2_9  and  C7_10 
REMARK    6  A    between atoms: C7_10  and  N3_11 
REMARK    7  A    between atoms: N3_11  and  C8_12 
REMARK    8  A    between atoms: C11_15  and  N4_16 
REMARK       I    between atoms: N4_16  and  C12_17 
REMARK    9  A    between atoms: C17_23  and  O3_24 
ROOT
HETATM    1  C7  UNL     1      25.032   4.196  50.374  1.00  0.00     0.272 C 
ENDROOT
BRANCH   1   2
HETATM    2  N2  UNL     1      23.674   4.021  50.795  1.00  0.00    -0.263 NA
BRANCH   2   3
HETATM    3  C6  UNL     1      23.368   3.166  51.685  1.00  0.00     0.228 C 
BRANCH   3   4
HETATM    4  N1  UNL     1      23.187   2.178  52.681  1.00  0.00    -0.247 NA
BRANCH   4   5
HETATM    5  C5  UNL     1      24.174   1.441  53.043  1.00  0.00     0.042 A 
HETATM    6  C4  UNL     1      24.153  -0.025  53.033  1.00  0.00     0.089 A 
HETATM    7  C3  UNL     1      25.420  -0.600  53.500  1.00  0.00     0.019 A 
HETATM    8  C2  UNL     1      26.457   0.142  53.883  1.00  0.00     0.098 A 
HETATM    9  C17 UNL     1      26.433   1.604  53.875  1.00  0.00     0.103 A 
HETATM   10  C16 UNL     1      25.320   2.204  53.467  1.00  0.00     0.067 A 
BRANCH   8  11
HETATM   11  O1  UNL     1      27.574  -0.573  54.293  1.00  0.00    -0.353 OA
HETATM   12  C1  UNL     1      28.495  -1.081  53.350  1.00  0.00     0.210 C 
ENDBRANCH   8  11
BRANCH   9  13
HETATM   13  O3  UNL     1      27.546   2.335  54.287  1.00  0.00    -0.353 OA
HETATM   14  C18 UNL     1      28.606   2.504  53.335  1.00  0.00     0.210 C 
ENDBRANCH   9  13
ENDBRANCH   4   5
ENDBRANCH   3   4
ENDBRANCH   2   3
ENDBRANCH   1   2
BRANCH   1  15
HETATM   15  N3  UNL     1      25.165   5.419  49.576  1.00  0.00    -0.372 N 
HETATM   16  H10 UNL     1      24.339   6.047  49.426  1.00  0.00     0.161 HD
BRANCH  15  17
HETATM   17  C8  UNL     1      26.412   5.778  48.993  1.00  0.00     0.029 A 
HETATM   18  C9  UNL     1      26.648   7.097  48.587  1.00  0.00     0.031 A 
HETATM   19  C10 UNL     1      27.891   7.388  48.021  1.00  0.00     0.032 A 
HETATM   20  C11 UNL     1      28.861   6.434  47.859  1.00  0.00     0.034 A 
HETATM   21  C14 UNL     1      28.631   5.121  48.261  1.00  0.00     0.032 A 
HETATM   22  C15 UNL     1      27.402   4.834  48.820  1.00  0.00     0.031 A 
BRANCH  20  23
HETATM   23  N4  UNL     1      30.073   6.888  47.267  1.00  0.00    -0.328 N 
HETATM   24  C12 UNL     1      31.267   7.029  48.026  1.00  0.00     0.218 C 
HETATM   25  C13 UNL     1      32.596   7.476  47.595  1.00  0.00     0.117 C 
HETATM   26  O2  UNL     1      31.257   6.741  49.272  1.00  0.00    -0.274 OA
HETATM   27  H13 UNL     1      30.182   7.145  46.268  1.00  0.00     0.169 HD
ENDBRANCH  20  23
ENDBRANCH  15  17
ENDBRANCH   1  15
TORSDOF 9
ENDMDL
MODEL 7
REMARK VINA RESULT:      -6.3      3.016      6.730
REMARK  9 active torsions:
REMARK  status: ('A' for Active; 'I' for Inactive)
REMARK    1  A    between atoms: O1_2  and  C2_3 
REMARK    2  A    between atoms: C5_6  and  N1_7 
REMARK    3  A    between atoms: N1_7  and  C6_8 
REMARK    4  A    between atoms: C6_8  and  N2_9 
REMARK    5  A    between atoms: N2_9  and  C7_10 
REMARK    6  A    between atoms: C7_10  and  N3_11 
REMARK    7  A    between atoms: N3_11  and  C8_12 
REMARK    8  A    between atoms: C11_15  and  N4_16 
REMARK       I    between atoms: N4_16  and  C12_17 
REMARK    9  A    between atoms: C17_23  and  O3_24 
ROOT
HETATM    1  C7  UNL     1      20.548   2.024  53.036  1.00  0.00     0.272 C 
ENDROOT
BRANCH   1   2
HETATM    2  N2  UNL     1      19.863   3.103  52.387  1.00  0.00    -0.263 NA
BRANCH   2   3
HETATM    3  C6  UNL     1      20.213   3.502  51.232  1.00  0.00     0.228 C 
BRANCH   3   4
HETATM    4  N1  UNL     1      20.679   4.069  50.023  1.00  0.00    -0.247 NA
BRANCH   4   5
HETATM    5  C5  UNL     1      21.938   4.231  49.832  1.00  0.00     0.042 A 
HETATM    6  C4  UNL     1      22.750   3.394  48.942  1.00  0.00     0.089 A 
HETATM    7  C3  UNL     1      24.157   3.810  48.921  1.00  0.00     0.019 A 
HETATM    8  C2  UNL     1      24.622   4.834  49.635  1.00  0.00     0.098 A 
HETATM    9  C17 UNL     1      23.774   5.642  50.509  1.00  0.00     0.103 A 
HETATM   10  C16 UNL     1      22.485   5.329  50.586  1.00  0.00     0.067 A 
BRANCH   8  11
HETATM   11  O1  UNL     1      25.980   5.084  49.491  1.00  0.00    -0.353 OA
HETATM   12  C1  UNL     1      26.892   4.026  49.277  1.00  0.00     0.210 C 
ENDBRANCH   8  11
BRANCH   9  13
HETATM   13  O3  UNL     1      24.311   6.704  51.236  1.00  0.00    -0.353 OA
HETATM   14  C18 UNL     1      24.022   8.029  50.771  1.00  0.00     0.210 C 
ENDBRANCH   9  13
ENDBRANCH   4   5
ENDBRANCH   3   4
ENDBRANCH   2   3
ENDBRANCH   1   2
BRANCH   1  15
HETATM   15  N3  UNL     1      21.344   1.267  52.063  1.00  0.00    -0.372 N 
HETATM   16  H10 UNL     1      20.935   1.006  51.133  1.00  0.00     0.161 HD
BRANCH  15  17
HETATM   17  C8  UNL     1      22.679   0.876  52.358  1.00  0.00     0.029 A 
HETATM   18  C9  UNL     1      23.758   1.624  51.875  1.00  0.00     0.031 A 
HETATM   19  C10 UNL     1      25.045   1.189  52.199  1.00  0.00     0.032 A 
HETATM   20  C11 UNL     1      25.268   0.073  52.961  1.00  0.00     0.034 A 
HETATM   21  C14 UNL     1      24.198  -0.675  53.443  1.00  0.00     0.032 A 
HETATM   22  C15 UNL     1      22.926  -0.245  53.124  1.00  0.00     0.031 A 
BRANCH  20  23
HETATM   23  N4  UNL     1      26.635  -0.239  53.202  1.00  0.00    -0.328 N 
HETATM   24  C12 UNL     1      27.325   0.261  54.342  1.00  0.00     0.218 C 
HETATM   25  C13 UNL     1      28.716   0.049  54.753  1.00  0.00     0.117 C 
HETATM   26  O2  UNL     1      26.705   1.009  55.172  1.00  0.00    -0.274 OA
HETATM   27  H13 UNL     1      27.222  -0.836  52.590  1.00  0.00     0.169 HD
ENDBRANCH  20  23
ENDBRANCH  15  17
ENDBRANCH   1  15
TORSDOF 9
ENDMDL
MODEL 8
REMARK VINA RESULT:      -6.3      4.205      7.487
REMARK  9 active torsions:
REMARK  status: ('A' for Active; 'I' for Inactive)
REMARK    1  A    between atoms: O1_2  and  C2_3 
REMARK    2  A    between atoms: C5_6  and  N1_7 
REMARK    3  A    between atoms: N1_7  and  C6_8 
REMARK    4  A    between atoms: C6_8  and  N2_9 
REMARK    5  A    between atoms: N2_9  and  C7_10 
REMARK    6  A    between atoms: C7_10  and  N3_11 
REMARK    7  A    between atoms: N3_11  and  C8_12 
REMARK    8  A    between atoms: C11_15  and  N4_16 
REMARK       I    between atoms: N4_16  and  C12_17 
REMARK    9  A    between atoms: C17_23  and  O3_24 
ROOT
HETATM    1  C7  UNL     1      23.194   4.530  52.339  1.00  0.00     0.272 C 
ENDROOT
BRANCH   1   2
HETATM    2  N2  UNL     1      23.166   5.125  51.035  1.00  0.00    -0.263 NA
BRANCH   2   3
HETATM    3  C6  UNL     1      24.073   5.935  50.664  1.00  0.00     0.228 C 
BRANCH   3   4
HETATM    4  N1  UNL     1      24.963   6.921  50.180  1.00  0.00    -0.247 NA
BRANCH   4   5
HETATM    5  C5  UNL     1      26.043   6.574  49.577  1.00  0.00     0.042 A 
HETATM    6  C4  UNL     1      26.408   5.185  49.279  1.00  0.00     0.089 A 
HETATM    7  C3  UNL     1      27.697   5.089  48.584  1.00  0.00     0.019 A 
HETATM    8  C2  UNL     1      28.434   6.152  48.269  1.00  0.00     0.098 A 
HETATM    9  C17 UNL     1      28.028   7.520  48.586  1.00  0.00     0.103 A 
HETATM   10  C16 UNL     1      26.872   7.695  49.218  1.00  0.00     0.067 A 
BRANCH   8  11
HETATM   11  O1  UNL     1      29.624   5.871  47.613  1.00  0.00    -0.353 OA
HETATM   12  C1  UNL     1      30.850   5.851  48.314  1.00  0.00     0.210 C 
ENDBRANCH   8  11
BRANCH   9  13
HETATM   13  O3  UNL     1      28.837   8.600  48.235  1.00  0.00    -0.353 OA
HETATM   14  C18 UNL     1      29.566   9.243  49.290  1.00  0.00     0.210 C 
ENDBRANCH   9  13
ENDBRANCH   4   5
ENDBRANCH   3   4
ENDBRANCH   2   3
ENDBRANCH   1   2
BRANCH   1  15
HETATM   15  N3  UNL     1      23.026   3.076  52.239  1.00  0.00    -0.372 N 
HETATM   16  H10 UNL     1      22.075   2.662  52.086  1.00  0.00     0.161 HD
BRANCH  15  17
HETATM   17  C8  UNL     1      24.144   2.203  52.346  1.00  0.00     0.029 A 
HETATM   18  C9  UNL     1      25.334   2.494  51.670  1.00  0.00     0.031 A 
HETATM   19  C10 UNL     1      26.397   1.600  51.814  1.00  0.00     0.032 A 
HETATM   20  C11 UNL     1      26.301   0.470  52.583  1.00  0.00     0.034 A 
HETATM   21  C14 UNL     1      25.119   0.176  53.257  1.00  0.00     0.032 A 
HETATM   22  C15 UNL     1      24.069   1.061  53.115  1.00  0.00     0.031 A 
BRANCH  20  23
HETATM   23  N4  UNL     1      27.470  -0.340  52.628  1.00  0.00    -0.328 N 
HETATM   24  C12 UNL     1      28.468  -0.156  53.624  1.00  0.00     0.218 C 
HETATM   25  C13 UNL     1      29.723  -0.885  53.829  1.00  0.00     0.117 C 
HETATM   26  O2  UNL     1      28.315   0.759  54.504  1.00  0.00    -0.274 OA
HETATM   27  H13 UNL     1      27.684  -1.105  51.961  1.00  0.00     0.169 HD
ENDBRANCH  20  23
ENDBRANCH  15  17
ENDBRANCH   1  15
TORSDOF 9
ENDMDL
MODEL 9
REMARK VINA RESULT:      -6.2      2.387      7.154
REMARK  9 active torsions:
REMARK  status: ('A' for Active; 'I' for Inactive)
REMARK    1  A    between atoms: O1_2  and  C2_3 
REMARK    2  A    between atoms: C5_6  and  N1_7 
REMARK    3  A    between atoms: N1_7  and  C6_8 
REMARK    4  A    between atoms: C6_8  and  N2_9 
REMARK    5  A    between atoms: N2_9  and  C7_10 
REMARK    6  A    between atoms: C7_10  and  N3_11 
REMARK    7  A    between atoms: N3_11  and  C8_12 
REMARK    8  A    between atoms: C11_15  and  N4_16 
REMARK       I    between atoms: N4_16  and  C12_17 
REMARK    9  A    between atoms: C17_23  and  O3_24 
ROOT
HETATM    1  C7  UNL     1      21.309   0.241  53.982  1.00  0.00     0.272 C 
ENDROOT
BRANCH   1   2
HETATM    2  N2  UNL     1      20.238  -0.212  53.144  1.00  0.00    -0.263 NA
BRANCH   2   3
HETATM    3  C6  UNL     1      20.034   0.310  52.002  1.00  0.00     0.228 C 
BRANCH   3   4
HETATM    4  N1  UNL     1      19.895   0.767  50.671  1.00  0.00    -0.247 NA
BRANCH   4   5
HETATM    5  C5  UNL     1      20.804   1.507  50.147  1.00  0.00     0.042 A 
HETATM    6  C4  UNL     1      21.615   1.118  48.988  1.00  0.00     0.089 A 
HETATM    7  C3  UNL     1      22.574   2.161  48.608  1.00  0.00     0.019 A 
HETATM    8  C2  UNL     1      22.680   3.320  49.254  1.00  0.00     0.098 A 
HETATM    9  C17 UNL     1      21.849   3.666  50.406  1.00  0.00     0.103 A 
HETATM   10  C16 UNL     1      20.954   2.773  50.816  1.00  0.00     0.067 A 
BRANCH   8  11
HETATM   11  O1  UNL     1      23.643   4.187  48.755  1.00  0.00    -0.353 OA
HETATM   12  C1  UNL     1      24.880   4.355  49.418  1.00  0.00     0.210 C 
ENDBRANCH   8  11
BRANCH   9  13
HETATM   13  O3  UNL     1      22.001   4.894  51.048  1.00  0.00    -0.353 OA
HETATM   14  C18 UNL     1      22.557   4.877  52.371  1.00  0.00     0.210 C 
ENDBRANCH   9  13
ENDBRANCH   4   5
ENDBRANCH   3   4
ENDBRANCH   2   3
ENDBRANCH   1   2
BRANCH   1  15
HETATM   15  N3  UNL     1      22.267   1.033  53.203  1.00  0.00    -0.372 N 
HETATM   16  H10 UNL     1      21.968   1.929  52.748  1.00  0.00     0.161 HD
BRANCH  15  17
HETATM   17  C8  UNL     1      23.614   0.604  53.051  1.00  0.00     0.029 A 
HETATM   18  C9  UNL     1      24.089  -0.500  53.767  1.00  0.00     0.031 A 
HETATM   19  C10 UNL     1      25.421  -0.874  53.575  1.00  0.00     0.032 A 
HETATM   20  C11 UNL     1      26.253  -0.198  52.722  1.00  0.00     0.034 A 
HETATM   21  C14 UNL     1      25.786   0.902  52.008  1.00  0.00     0.032 A 
HETATM   22  C15 UNL     1      24.469   1.270  52.197  1.00  0.00     0.031 A 
BRANCH  20  23
HETATM   23  N4  UNL     1      27.582  -0.700  52.637  1.00  0.00    -0.328 N 
HETATM   24  C12 UNL     1      28.601  -0.269  53.531  1.00  0.00     0.218 C 
HETATM   25  C13 UNL     1      30.010  -0.670  53.597  1.00  0.00     0.117 C 
HETATM   26  O2  UNL     1      28.321   0.590  54.435  1.00  0.00    -0.274 OA
HETATM   27  H13 UNL     1      27.907  -1.396  51.941  1.00  0.00     0.169 HD
ENDBRANCH  20  23
ENDBRANCH  15  17
ENDBRANCH   1  15
TORSDOF 9
ENDMDL
