MODEL 1
REMARK VINA RESULT:      -9.1      0.000      0.000
REMARK  3 active torsions:
REMARK  status: ('A' for Active; 'I' for Inactive)
REMARK       I    between atoms: C2_2  and  N1_4 
REMARK    1  A    between atoms: C5_7  and  N2_8 
REMARK    2  A    between atoms: N2_8  and  C6_9 
REMARK    3  A    between atoms: C12_17  and  C13_18 
REMARK       I    between atoms: C13_18  and  N5_19 
ROOT
HETATM    1  C6  UNL     1      23.071   1.621  51.070  1.00  0.00     0.723 A 
HETATM    2  N3  UNL     1      22.609   2.143  49.913  1.00  0.00    -0.075 NA
HETATM    3  C7  UNL     1      21.315   1.969  49.532  1.00  0.00     0.146 A 
HETATM    4  C8  UNL     1      20.396   1.246  50.307  1.00  0.00    -0.008 A 
HETATM    5  C9  UNL     1      20.947   0.750  51.465  1.00  0.00     0.112 A 
HETATM    6  N4  UNL     1      22.221   0.916  51.851  1.00  0.00    -0.060 NA
HETATM    7  C10 UNL     1      20.015  -0.004  52.292  1.00  0.00     0.091 A 
HETATM    8  C11 UNL     1      18.758  -0.067  51.734  1.00  0.00     0.009 A 
HETATM    9  C12 UNL     1      18.017  -0.819  52.656  1.00  0.00     0.147 A 
HETATM   10  N6  UNL     1      18.836  -1.165  53.690  1.00  0.00    -0.167 NA
HETATM   11  N7  UNL     1      20.056  -0.659  53.456  1.00  0.00    -0.271 N 
HETATM   12  C14 UNL     1      21.248  -0.748  54.240  1.00  0.00     0.180 C 
HETATM   13  C15 UNL     1      18.110   0.442  50.508  1.00  0.00     0.048 A 
HETATM   14  C16 UNL     1      19.088   1.211  49.670  1.00  0.00     0.047 A 
ENDROOT
BRANCH   1  15
HETATM   15  N2  UNL     1      24.406   1.800  51.464  1.00  0.00    -0.218 N 
HETATM   16  H9  UNL     1      25.051   2.392  50.900  1.00  0.00     0.178 HD
BRANCH  15  17
HETATM   17  C5  UNL     1      24.888   1.154  52.665  1.00  0.00     0.102 C 
HETATM   18  C4  UNL     1      25.840   2.058  53.436  1.00  0.00     0.045 C 
HETATM   19  C3  UNL     1      26.609   1.154  54.400  1.00  0.00     0.127 C 
HETATM   20  N1  UNL     1      27.533   0.336  53.679  1.00  0.00    -0.352 N 
HETATM   21  C2  UNL     1      28.776  -0.020  54.270  1.00  0.00     0.215 C 
HETATM   22  C18 UNL     1      27.063  -0.045  52.379  1.00  0.00     0.127 C 
HETATM   23  C1  UNL     1      29.791  -0.859  53.602  1.00  0.00     0.117 C 
HETATM   24  O1  UNL     1      28.605   0.594  55.372  1.00  0.00    -0.274 OA
HETATM   25  C17 UNL     1      25.554  -0.162  52.325  1.00  0.00     0.045 C 
ENDBRANCH  15  17
ENDBRANCH   1  15
BRANCH   9  26
HETATM   26  C13 UNL     1      16.641  -1.301  52.768  1.00  0.00     0.249 C 
HETATM   27  N5  UNL     1      15.683  -0.377  53.293  1.00  0.00    -0.267 NA
HETATM   28  H11 UNL     1      14.810  -0.513  53.850  1.00  0.00     0.127 HD
HETATM   29  H12 UNL     1      14.808  -0.498  53.850  1.00  0.00     0.127 HD
HETATM   30  O2  UNL     1      16.083  -2.395  52.493  1.00  0.00    -0.272 OA
ENDBRANCH   9  26
TORSDOF 3
ENDMDL
MODEL 2
REMARK VINA RESULT:      -9.0      5.050      6.893
REMARK  3 active torsions:
REMARK  status: ('A' for Active; 'I' for Inactive)
REMARK       I    between atoms: C2_2  and  N1_4 
REMARK    1  A    between atoms: C5_7  and  N2_8 
REMARK    2  A    between atoms: N2_8  and  C6_9 
REMARK    3  A    between atoms: C12_17  and  C13_18 
REMARK       I    between atoms: C13_18  and  N5_19 
ROOT
HETATM    1  C6  UNL     1      25.422   3.516  50.356  1.00  0.00     0.723 A 
HETATM    2  N3  UNL     1      26.622   2.910  50.492  1.00  0.00    -0.075 NA
HETATM    3  C7  UNL     1      26.767   1.811  51.280  1.00  0.00     0.146 A 
HETATM    4  C8  UNL     1      25.694   1.248  51.988  1.00  0.00    -0.008 A 
HETATM    5  C9  UNL     1      24.512   1.925  51.793  1.00  0.00     0.112 A 
HETATM    6  N4  UNL     1      24.358   3.009  51.019  1.00  0.00    -0.060 NA
HETATM    7  C10 UNL     1      23.380   1.362  52.514  1.00  0.00     0.091 A 
HETATM    8  C11 UNL     1      23.731   0.254  53.253  1.00  0.00     0.009 A 
HETATM    9  C12 UNL     1      22.532  -0.136  53.865  1.00  0.00     0.147 A 
HETATM   10  N6  UNL     1      21.549   0.725  53.481  1.00  0.00    -0.167 NA
HETATM   11  N7  UNL     1      22.079   1.638  52.653  1.00  0.00    -0.271 N 
HETATM   12  C14 UNL     1      21.458   2.742  51.990  1.00  0.00     0.180 C 
HETATM   13  C15 UNL     1      24.969  -0.513  53.498  1.00  0.00     0.048 A 
HETATM   14  C16 UNL     1      26.122   0.085  52.750  1.00  0.00     0.047 A 
ENDROOT
BRANCH   1  15
HETATM   15  N2  UNL     1      25.272   4.650  49.543  1.00  0.00    -0.218 N 
HETATM   16  H9  UNL     1      24.542   4.680  48.802  1.00  0.00     0.178 HD
BRANCH  15  17
HETATM   17  C5  UNL     1      26.144   5.788  49.739  1.00  0.00     0.102 C 
HETATM   18  C4  UNL     1      25.387   6.969  50.331  1.00  0.00     0.045 C 
HETATM   19  C3  UNL     1      26.253   8.205  50.085  1.00  0.00     0.127 C 
HETATM   20  N1  UNL     1      26.247   8.544  48.697  1.00  0.00    -0.352 N 
HETATM   21  C2  UNL     1      26.323   9.907  48.300  1.00  0.00     0.215 C 
HETATM   22  C18 UNL     1      26.161   7.404  47.832  1.00  0.00     0.127 C 
HETATM   23  C1  UNL     1      26.322  10.352  46.892  1.00  0.00     0.117 C 
HETATM   24  O1  UNL     1      26.376  10.407  49.470  1.00  0.00    -0.274 OA
HETATM   25  C17 UNL     1      26.808   6.175  48.436  1.00  0.00     0.045 C 
ENDBRANCH  15  17
ENDBRANCH   1  15
BRANCH   9  26
HETATM   26  C13 UNL     1      22.105  -1.198  54.775  1.00  0.00     0.249 C 
HETATM   27  N5  UNL     1      20.746  -1.630  54.657  1.00  0.00    -0.267 NA
HETATM   28  H11 UNL     1      20.069  -2.012  55.355  1.00  0.00     0.127 HD
HETATM   29  H12 UNL     1      20.059  -2.013  55.345  1.00  0.00     0.127 HD
HETATM   30  O2  UNL     1      22.690  -1.847  55.682  1.00  0.00    -0.272 OA
ENDBRANCH   9  26
TORSDOF 3
ENDMDL
MODEL 3
REMARK VINA RESULT:      -8.8      2.576      8.940
REMARK  3 active torsions:
REMARK  status: ('A' for Active; 'I' for Inactive)
REMARK       I    between atoms: C2_2  and  N1_4 
REMARK    1  A    between atoms: C5_7  and  N2_8 
REMARK    2  A    between atoms: N2_8  and  C6_9 
REMARK    3  A    between atoms: C12_17  and  C13_18 
REMARK       I    between atoms: C13_18  and  N5_19 
ROOT
HETATM    1  C6  UNL     1      22.262   0.428  51.699  1.00  0.00     0.723 A 
HETATM    2  N3  UNL     1      22.011  -0.469  52.677  1.00  0.00    -0.075 NA
HETATM    3  C7  UNL     1      22.959  -0.784  53.600  1.00  0.00     0.146 A 
HETATM    4  C8  UNL     1      24.236  -0.204  53.591  1.00  0.00    -0.008 A 
HETATM    5  C9  UNL     1      24.407   0.697  52.566  1.00  0.00     0.112 A 
HETATM    6  N4  UNL     1      23.480   1.015  51.651  1.00  0.00    -0.060 NA
HETATM    7  C10 UNL     1      25.724   1.317  52.532  1.00  0.00     0.091 A 
HETATM    8  C11 UNL     1      26.537   0.867  53.549  1.00  0.00     0.009 A 
HETATM    9  C12 UNL     1      27.737   1.563  53.353  1.00  0.00     0.147 A 
HETATM   10  N6  UNL     1      27.597   2.372  52.264  1.00  0.00    -0.167 NA
HETATM   11  N7  UNL     1      26.360   2.213  51.771  1.00  0.00    -0.271 N 
HETATM   12  C14 UNL     1      25.737   2.836  50.645  1.00  0.00     0.180 C 
HETATM   13  C15 UNL     1      26.412  -0.086  54.670  1.00  0.00     0.048 A 
HETATM   14  C16 UNL     1      25.051  -0.716  54.683  1.00  0.00     0.047 A 
ENDROOT
BRANCH   1  15
HETATM   15  N2  UNL     1      21.284   0.754  50.746  1.00  0.00    -0.218 N 
HETATM   16  H9  UNL     1      21.017   0.072  50.006  1.00  0.00     0.178 HD
BRANCH  15  17
HETATM   17  C5  UNL     1      20.646   2.051  50.794  1.00  0.00     0.102 C 
HETATM   18  C4  UNL     1      19.884   2.244  52.099  1.00  0.00     0.045 C 
HETATM   19  C3  UNL     1      18.916   3.406  51.866  1.00  0.00     0.127 C 
HETATM   20  N1  UNL     1      17.862   3.002  50.991  1.00  0.00    -0.352 N 
HETATM   21  C2  UNL     1      16.556   3.540  51.159  1.00  0.00     0.215 C 
HETATM   22  C18 UNL     1      18.276   2.054  49.998  1.00  0.00     0.127 C 
HETATM   23  C1  UNL     1      15.406   3.181  50.305  1.00  0.00     0.117 C 
HETATM   24  O1  UNL     1      16.822   4.284  52.156  1.00  0.00    -0.274 OA
HETATM   25  C17 UNL     1      19.728   2.232  49.605  1.00  0.00     0.045 C 
ENDBRANCH  15  17
ENDBRANCH   1  15
BRANCH   9  26
HETATM   26  C13 UNL     1      29.044   1.626  54.006  1.00  0.00     0.249 C 
HETATM   27  N5  UNL     1      30.043   0.724  53.522  1.00  0.00    -0.267 NA
HETATM   28  H11 UNL     1      30.849   0.252  53.991  1.00  0.00     0.127 HD
HETATM   29  H12 UNL     1      30.852   0.246  53.978  1.00  0.00     0.127 HD
HETATM   30  O2  UNL     1      29.510   2.328  54.942  1.00  0.00    -0.272 OA
ENDBRANCH   9  26
TORSDOF 3
ENDMDL
MODEL 4
REMARK VINA RESULT:      -8.6      5.117      6.572
REMARK  3 active torsions:
REMARK  status: ('A' for Active; 'I' for Inactive)
REMARK       I    between atoms: C2_2  and  N1_4 
REMARK    1  A    between atoms: C5_7  and  N2_8 
REMARK    2  A    between atoms: N2_8  and  C6_9 
REMARK    3  A    between atoms: C12_17  and  C13_18 
REMARK       I    between atoms: C13_18  and  N5_19 
ROOT
HETATM    1  C6  UNL     1      25.597   3.509  50.168  1.00  0.00     0.723 A 
HETATM    2  N3  UNL     1      24.513   3.610  49.369  1.00  0.00    -0.075 NA
HETATM    3  C7  UNL     1      23.390   2.886  49.615  1.00  0.00     0.146 A 
HETATM    4  C8  UNL     1      23.290   2.002  50.700  1.00  0.00    -0.008 A 
HETATM    5  C9  UNL     1      24.434   1.959  51.461  1.00  0.00     0.112 A 
HETATM    6  N4  UNL     1      25.548   2.669  51.228  1.00  0.00    -0.060 NA
HETATM    7  C10 UNL     1      24.359   1.050  52.597  1.00  0.00     0.091 A 
HETATM    8  C11 UNL     1      23.141   0.412  52.674  1.00  0.00     0.009 A 
HETATM    9  C12 UNL     1      23.260  -0.404  53.806  1.00  0.00     0.147 A 
HETATM   10  N6  UNL     1      24.502  -0.228  54.340  1.00  0.00    -0.167 NA
HETATM   11  N7  UNL     1      25.165   0.666  53.591  1.00  0.00    -0.271 N 
HETATM   12  C14 UNL     1      26.491   1.179  53.740  1.00  0.00     0.180 C 
HETATM   13  C15 UNL     1      21.885   0.418  51.896  1.00  0.00     0.048 A 
HETATM   14  C16 UNL     1      21.986   1.356  50.731  1.00  0.00     0.047 A 
ENDROOT
BRANCH   1  15
HETATM   15  N2  UNL     1      26.758   4.256  49.915  1.00  0.00    -0.218 N 
HETATM   16  H9  UNL     1      27.607   4.134  50.504  1.00  0.00     0.178 HD
BRANCH  15  17
HETATM   17  C5  UNL     1      26.770   5.205  48.823  1.00  0.00     0.102 C 
HETATM   18  C4  UNL     1      28.193   5.591  48.442  1.00  0.00     0.045 C 
HETATM   19  C3  UNL     1      28.087   6.880  47.625  1.00  0.00     0.127 C 
HETATM   20  N1  UNL     1      27.726   7.972  48.473  1.00  0.00    -0.352 N 
HETATM   21  C2  UNL     1      28.226   9.275  48.201  1.00  0.00     0.215 C 
HETATM   22  C18 UNL     1      26.856   7.596  49.548  1.00  0.00     0.127 C 
HETATM   23  C1  UNL     1      27.908  10.462  49.021  1.00  0.00     0.117 C 
HETATM   24  O1  UNL     1      28.905   8.969  47.169  1.00  0.00    -0.274 OA
HETATM   25  C17 UNL     1      25.959   6.431  49.181  1.00  0.00     0.045 C 
ENDBRANCH  15  17
ENDBRANCH   1  15
BRANCH   9  26
HETATM   26  C13 UNL     1      22.409  -1.357  54.518  1.00  0.00     0.249 C 
HETATM   27  N5  UNL     1      22.922  -1.872  55.751  1.00  0.00    -0.267 NA
HETATM   28  H11 UNL     1      22.791  -2.787  56.237  1.00  0.00     0.127 HD
HETATM   29  H12 UNL     1      22.800  -2.782  56.248  1.00  0.00     0.127 HD
HETATM   30  O2  UNL     1      21.275  -1.850  54.281  1.00  0.00    -0.272 OA
ENDBRANCH   9  26
TORSDOF 3
ENDMDL
MODEL 5
REMARK VINA RESULT:      -8.6      3.258      8.570
REMARK  3 active torsions:
REMARK  status: ('A' for Active; 'I' for Inactive)
REMARK       I    between atoms: C2_2  and  N1_4 
REMARK    1  A    between atoms: C5_7  and  N2_8 
REMARK    2  A    between atoms: N2_8  and  C6_9 
REMARK    3  A    between atoms: C12_17  and  C13_18 
REMARK       I    between atoms: C13_18  and  N5_19 
ROOT
HETATM    1  C6  UNL     1      22.348   0.862  51.377  1.00  0.00     0.723 A 
HETATM    2  N3  UNL     1      21.997  -0.054  52.306  1.00  0.00    -0.075 NA
HETATM    3  C7  UNL     1      22.880  -0.461  53.257  1.00  0.00     0.146 A 
HETATM    4  C8  UNL     1      24.189   0.039  53.329  1.00  0.00    -0.008 A 
HETATM    5  C9  UNL     1      24.462   0.965  52.348  1.00  0.00     0.112 A 
HETATM    6  N4  UNL     1      23.600   1.373  51.406  1.00  0.00    -0.060 NA
HETATM    7  C10 UNL     1      25.814   1.503  52.399  1.00  0.00     0.091 A 
HETATM    8  C11 UNL     1      26.550   0.966  53.432  1.00  0.00     0.009 A 
HETATM    9  C12 UNL     1      27.798   1.593  53.318  1.00  0.00     0.147 A 
HETATM   10  N6  UNL     1      27.758   2.449  52.257  1.00  0.00    -0.167 NA
HETATM   11  N7  UNL     1      26.537   2.385  51.703  1.00  0.00    -0.271 N 
HETATM   12  C14 UNL     1      26.007   3.086  50.576  1.00  0.00     0.180 C 
HETATM   13  C15 UNL     1      26.314  -0.019  54.508  1.00  0.00     0.048 A 
HETATM   14  C16 UNL     1      24.919  -0.563  54.434  1.00  0.00     0.047 A 
ENDROOT
BRANCH   1  15
HETATM   15  N2  UNL     1      21.438   1.283  50.395  1.00  0.00    -0.218 N 
HETATM   16  H9  UNL     1      21.414   0.824  49.460  1.00  0.00     0.178 HD
BRANCH  15  17
HETATM   17  C5  UNL     1      20.525   2.367  50.686  1.00  0.00     0.102 C 
HETATM   18  C4  UNL     1      20.050   3.047  49.409  1.00  0.00     0.045 C 
HETATM   19  C3  UNL     1      19.477   4.402  49.829  1.00  0.00     0.127 C 
HETATM   20  N1  UNL     1      20.530   5.280  50.231  1.00  0.00    -0.352 N 
HETATM   21  C2  UNL     1      20.422   6.676  49.983  1.00  0.00     0.215 C 
HETATM   22  C18 UNL     1      21.622   4.605  50.870  1.00  0.00     0.127 C 
HETATM   23  C1  UNL     1      21.459   7.658  50.361  1.00  0.00     0.117 C 
HETATM   24  O1  UNL     1      19.282   6.646  49.419  1.00  0.00    -0.274 OA
HETATM   25  C17 UNL     1      21.174   3.367  51.618  1.00  0.00     0.045 C 
ENDBRANCH  15  17
ENDBRANCH   1  15
BRANCH   9  26
HETATM   26  C13 UNL     1      29.073   1.551  54.031  1.00  0.00     0.249 C 
HETATM   27  N5  UNL     1      30.009   0.555  53.606  1.00  0.00    -0.267 NA
HETATM   28  H11 UNL     1      30.747   0.022  54.118  1.00  0.00     0.127 HD
HETATM   29  H12 UNL     1      30.750   0.015  54.105  1.00  0.00     0.127 HD
HETATM   30  O2  UNL     1      29.557   2.224  54.979  1.00  0.00    -0.272 OA
ENDBRANCH   9  26
TORSDOF 3
ENDMDL
MODEL 6
REMARK VINA RESULT:      -8.5      3.721      4.786
REMARK  3 active torsions:
REMARK  status: ('A' for Active; 'I' for Inactive)
REMARK       I    between atoms: C2_2  and  N1_4 
REMARK    1  A    between atoms: C5_7  and  N2_8 
REMARK    2  A    between atoms: N2_8  and  C6_9 
REMARK    3  A    between atoms: C12_17  and  C13_18 
REMARK       I    between atoms: C13_18  and  N5_19 
ROOT
HETATM    1  C6  UNL     1      23.616   1.995  50.824  1.00  0.00     0.723 A 
HETATM    2  N3  UNL     1      24.398   1.553  51.832  1.00  0.00    -0.075 NA
HETATM    3  C7  UNL     1      23.899   0.746  52.806  1.00  0.00     0.146 A 
HETATM    4  C8  UNL     1      22.560   0.329  52.821  1.00  0.00    -0.008 A 
HETATM    5  C9  UNL     1      21.834   0.823  51.762  1.00  0.00     0.112 A 
HETATM    6  N4  UNL     1      22.316   1.619  50.796  1.00  0.00    -0.060 NA
HETATM    7  C10 UNL     1      20.440   0.405  51.750  1.00  0.00     0.091 A 
HETATM    8  C11 UNL     1      20.130  -0.408  52.817  1.00  0.00     0.009 A 
HETATM    9  C12 UNL     1      18.772  -0.699  52.636  1.00  0.00     0.147 A 
HETATM   10  N6  UNL     1      18.340  -0.068  51.508  1.00  0.00    -0.167 NA
HETATM   11  N7  UNL     1      19.370   0.605  50.973  1.00  0.00    -0.271 N 
HETATM   12  C14 UNL     1      19.422   1.415  49.797  1.00  0.00     0.180 C 
HETATM   13  C15 UNL     1      20.858  -0.970  53.974  1.00  0.00     0.048 A 
HETATM   14  C16 UNL     1      22.290  -0.525  53.968  1.00  0.00     0.047 A 
ENDROOT
BRANCH   1  15
HETATM   15  N2  UNL     1      24.130   2.829  49.820  1.00  0.00    -0.218 N 
HETATM   16  H9  UNL     1      24.014   2.584  48.814  1.00  0.00     0.178 HD
BRANCH  15  17
HETATM   17  C5  UNL     1      24.831   4.040  50.188  1.00  0.00     0.102 C 
HETATM   18  C4  UNL     1      24.519   5.175  49.222  1.00  0.00     0.045 C 
HETATM   19  C3  UNL     1      25.610   6.228  49.424  1.00  0.00     0.127 C 
HETATM   20  N1  UNL     1      26.853   5.757  48.900  1.00  0.00    -0.352 N 
HETATM   21  C2  UNL     1      27.769   6.674  48.317  1.00  0.00     0.215 C 
HETATM   22  C18 UNL     1      27.029   4.340  49.035  1.00  0.00     0.127 C 
HETATM   23  C1  UNL     1      29.075   6.281  47.750  1.00  0.00     0.117 C 
HETATM   24  O1  UNL     1      27.070   7.724  48.491  1.00  0.00    -0.274 OA
HETATM   25  C17 UNL     1      26.322   3.787  50.255  1.00  0.00     0.045 C 
ENDBRANCH  15  17
ENDBRANCH   1  15
BRANCH   9  26
HETATM   26  C13 UNL     1      17.754  -1.481  53.337  1.00  0.00     0.249 C 
HETATM   27  N5  UNL     1      16.443  -0.910  53.401  1.00  0.00    -0.267 NA
HETATM   28  H11 UNL     1      15.681  -0.981  54.112  1.00  0.00     0.127 HD
HETATM   29  H12 UNL     1      15.673  -0.972  54.104  1.00  0.00     0.127 HD
HETATM   30  O2  UNL     1      17.771  -2.595  53.923  1.00  0.00    -0.272 OA
ENDBRANCH   9  26
TORSDOF 3
ENDMDL
MODEL 7
REMARK VINA RESULT:      -8.3      3.676      8.801
REMARK  3 active torsions:
REMARK  status: ('A' for Active; 'I' for Inactive)
REMARK       I    between atoms: C2_2  and  N1_4 
REMARK    1  A    between atoms: C5_7  and  N2_8 
REMARK    2  A    between atoms: N2_8  and  C6_9 
REMARK    3  A    between atoms: C12_17  and  C13_18 
REMARK       I    between atoms: C13_18  and  N5_19 
ROOT
HETATM    1  C6  UNL     1      22.390   1.402  51.111  1.00  0.00     0.723 A 
HETATM    2  N3  UNL     1      21.928   0.446  51.945  1.00  0.00    -0.075 NA
HETATM    3  C7  UNL     1      22.742  -0.132  52.869  1.00  0.00     0.146 A 
HETATM    4  C8  UNL     1      24.091   0.226  53.009  1.00  0.00    -0.008 A 
HETATM    5  C9  UNL     1      24.479   1.204  52.123  1.00  0.00     0.112 A 
HETATM    6  N4  UNL     1      23.686   1.781  51.208  1.00  0.00    -0.060 NA
HETATM    7  C10 UNL     1      25.875   1.598  52.246  1.00  0.00     0.091 A 
HETATM    8  C11 UNL     1      26.528   0.900  53.237  1.00  0.00     0.009 A 
HETATM    9  C12 UNL     1      27.834   1.407  53.203  1.00  0.00     0.147 A 
HETATM   10  N6  UNL     1      27.905   2.354  52.225  1.00  0.00    -0.167 NA
HETATM   11  N7  UNL     1      26.700   2.463  51.647  1.00  0.00    -0.271 N 
HETATM   12  C14 UNL     1      26.270   3.312  50.580  1.00  0.00     0.180 C 
HETATM   13  C15 UNL     1      26.169  -0.150  54.214  1.00  0.00     0.048 A 
HETATM   14  C16 UNL     1      24.730  -0.542  54.067  1.00  0.00     0.047 A 
ENDROOT
BRANCH   1  15
HETATM   15  N2  UNL     1      21.552   1.998  50.156  1.00  0.00    -0.218 N 
HETATM   16  H9  UNL     1      20.517   1.903  50.225  1.00  0.00     0.178 HD
BRANCH  15  17
HETATM   17  C5  UNL     1      22.134   2.750  49.066  1.00  0.00     0.102 C 
HETATM   18  C4  UNL     1      21.911   4.246  49.244  1.00  0.00     0.045 C 
HETATM   19  C3  UNL     1      22.153   4.885  47.876  1.00  0.00     0.127 C 
HETATM   20  N1  UNL     1      21.089   4.555  46.981  1.00  0.00    -0.352 N 
HETATM   21  C2  UNL     1      20.676   5.492  45.996  1.00  0.00     0.215 C 
HETATM   22  C18 UNL     1      20.543   3.247  47.203  1.00  0.00     0.127 C 
HETATM   23  C1  UNL     1      19.587   5.239  45.030  1.00  0.00     0.117 C 
HETATM   24  O1  UNL     1      21.504   6.410  46.297  1.00  0.00    -0.274 OA
HETATM   25  C17 UNL     1      21.575   2.278  47.741  1.00  0.00     0.045 C 
ENDBRANCH  15  17
ENDBRANCH   1  15
BRANCH   9  26
HETATM   26  C13 UNL     1      29.080   1.173  53.930  1.00  0.00     0.249 C 
HETATM   27  N5  UNL     1      29.588   2.271  54.695  1.00  0.00    -0.267 NA
HETATM   28  H11 UNL     1      30.560   2.557  54.950  1.00  0.00     0.127 HD
HETATM   29  H12 UNL     1      30.554   2.569  54.957  1.00  0.00     0.127 HD
HETATM   30  O2  UNL     1      29.843   0.177  54.042  1.00  0.00    -0.272 OA
ENDBRANCH   9  26
TORSDOF 3
ENDMDL
MODEL 8
REMARK VINA RESULT:      -8.2      1.867      8.432
REMARK  3 active torsions:
REMARK  status: ('A' for Active; 'I' for Inactive)
REMARK       I    between atoms: C2_2  and  N1_4 
REMARK    1  A    between atoms: C5_7  and  N2_8 
REMARK    2  A    between atoms: N2_8  and  C6_9 
REMARK    3  A    between atoms: C12_17  and  C13_18 
REMARK       I    between atoms: C13_18  and  N5_19 
ROOT
HETATM    1  C6  UNL     1      22.004   2.335  52.124  1.00  0.00     0.723 A 
HETATM    2  N3  UNL     1      22.547   3.230  51.270  1.00  0.00    -0.075 NA
HETATM    3  C7  UNL     1      23.879   3.223  50.999  1.00  0.00     0.146 A 
HETATM    4  C8  UNL     1      24.758   2.296  51.582  1.00  0.00    -0.008 A 
HETATM    5  C9  UNL     1      24.125   1.423  52.435  1.00  0.00     0.112 A 
HETATM    6  N4  UNL     1      22.812   1.421  52.709  1.00  0.00    -0.060 NA
HETATM    7  C10 UNL     1      25.012   0.448  53.053  1.00  0.00     0.091 A 
HETATM    8  C11 UNL     1      26.319   0.605  52.651  1.00  0.00     0.009 A 
HETATM    9  C12 UNL     1      27.007  -0.403  53.340  1.00  0.00     0.147 A 
HETATM   10  N6  UNL     1      26.113  -1.096  54.101  1.00  0.00    -0.167 NA
HETATM   11  N7  UNL     1      24.894  -0.566  53.916  1.00  0.00    -0.271 N 
HETATM   12  C14 UNL     1      23.639  -0.940  54.488  1.00  0.00     0.180 C 
HETATM   13  C15 UNL     1      27.053   1.512  51.745  1.00  0.00     0.048 A 
HETATM   14  C16 UNL     1      26.122   2.510  51.123  1.00  0.00     0.047 A 
ENDROOT
BRANCH   1  15
HETATM   15  N2  UNL     1      20.629   2.342  52.404  1.00  0.00    -0.218 N 
HETATM   16  H9  UNL     1      20.273   2.716  53.308  1.00  0.00     0.178 HD
BRANCH  15  17
HETATM   17  C5  UNL     1      19.699   1.822  51.426  1.00  0.00     0.102 C 
HETATM   18  C4  UNL     1      18.301   2.389  51.635  1.00  0.00     0.045 C 
HETATM   19  C3  UNL     1      17.344   1.472  50.873  1.00  0.00     0.127 C 
HETATM   20  N1  UNL     1      17.230   0.213  51.540  1.00  0.00    -0.352 N 
HETATM   21  C2  UNL     1      15.997  -0.493  51.515  1.00  0.00     0.215 C 
HETATM   22  C18 UNL     1      18.442  -0.202  52.185  1.00  0.00     0.127 C 
HETATM   23  C1  UNL     1      15.786  -1.798  52.175  1.00  0.00     0.117 C 
HETATM   24  O1  UNL     1      15.347   0.352  50.820  1.00  0.00    -0.274 OA
HETATM   25  C17 UNL     1      19.677   0.309  51.471  1.00  0.00     0.045 C 
ENDBRANCH  15  17
ENDBRANCH   1  15
BRANCH   9  26
HETATM   26  C13 UNL     1      28.391  -0.866  53.434  1.00  0.00     0.249 C 
HETATM   27  N5  UNL     1      28.604  -2.273  53.276  1.00  0.00    -0.267 NA
HETATM   28  H11 UNL     1      29.321  -2.922  53.671  1.00  0.00     0.127 HD
HETATM   29  H12 UNL     1      29.314  -2.933  53.664  1.00  0.00     0.127 HD
HETATM   30  O2  UNL     1      29.488  -0.281  53.633  1.00  0.00    -0.272 OA
ENDBRANCH   9  26
TORSDOF 3
ENDMDL
MODEL 9
REMARK VINA RESULT:      -8.2      2.573      8.474
REMARK  3 active torsions:
REMARK  status: ('A' for Active; 'I' for Inactive)
REMARK       I    between atoms: C2_2  and  N1_4 
REMARK    1  A    between atoms: C5_7  and  N2_8 
REMARK    2  A    between atoms: N2_8  and  C6_9 
REMARK    3  A    between atoms: C12_17  and  C13_18 
REMARK       I    between atoms: C13_18  and  N5_19 
ROOT
HETATM    1  C6  UNL     1      21.940   1.768  50.255  1.00  0.00     0.723 A 
HETATM    2  N3  UNL     1      22.548   2.686  49.472  1.00  0.00    -0.075 NA
HETATM    3  C7  UNL     1      23.847   3.032  49.676  1.00  0.00     0.146 A 
HETATM    4  C8  UNL     1      24.622   2.465  50.699  1.00  0.00    -0.008 A 
HETATM    5  C9  UNL     1      23.928   1.543  51.447  1.00  0.00     0.112 A 
HETATM    6  N4  UNL     1      22.648   1.193  51.254  1.00  0.00    -0.060 NA
HETATM    7  C10 UNL     1      24.709   0.936  52.516  1.00  0.00     0.091 A 
HETATM    8  C11 UNL     1      25.998   1.418  52.557  1.00  0.00     0.009 A 
HETATM    9  C12 UNL     1      26.580   0.730  53.630  1.00  0.00     0.147 A 
HETATM   10  N6  UNL     1      25.647  -0.106  54.167  1.00  0.00    -0.167 NA
HETATM   11  N7  UNL     1      24.505   0.029  53.476  1.00  0.00    -0.271 N 
HETATM   12  C14 UNL     1      23.247  -0.627  53.652  1.00  0.00     0.180 C 
HETATM   13  C15 UNL     1      26.795   2.396  51.788  1.00  0.00     0.048 A 
HETATM   14  C16 UNL     1      25.971   3.011  50.697  1.00  0.00     0.047 A 
ENDROOT
BRANCH   1  15
HETATM   15  N2  UNL     1      20.599   1.410  50.045  1.00  0.00    -0.218 N 
HETATM   16  H9  UNL     1      20.332   0.415  49.898  1.00  0.00     0.178 HD
BRANCH  15  17
HETATM   17  C5  UNL     1      19.581   2.438  50.030  1.00  0.00     0.102 C 
HETATM   18  C4  UNL     1      19.510   3.166  51.366  1.00  0.00     0.045 C 
HETATM   19  C3  UNL     1      18.161   3.886  51.394  1.00  0.00     0.127 C 
HETATM   20  N1  UNL     1      17.099   2.942  51.541  1.00  0.00    -0.352 N 
HETATM   21  C2  UNL     1      15.933   3.294  52.273  1.00  0.00     0.215 C 
HETATM   22  C18 UNL     1      17.358   1.688  50.895  1.00  0.00     0.127 C 
HETATM   23  C1  UNL     1      14.787   2.385  52.478  1.00  0.00     0.117 C 
HETATM   24  O1  UNL     1      16.293   4.477  52.578  1.00  0.00    -0.274 OA
HETATM   25  C17 UNL     1      18.236   1.843  49.670  1.00  0.00     0.045 C 
ENDBRANCH  15  17
ENDBRANCH   1  15
BRANCH   9  26
HETATM   26  C13 UNL     1      27.889   0.696  54.281  1.00  0.00     0.249 C 
HETATM   27  N5  UNL     1      28.473  -0.597  54.472  1.00  0.00    -0.267 NA
HETATM   28  H11 UNL     1      29.115  -0.975  55.205  1.00  0.00     0.127 HD
HETATM   29  H12 UNL     1      29.115  -0.988  55.198  1.00  0.00     0.127 HD
HETATM   30  O2  UNL     1      28.655   1.589  54.732  1.00  0.00    -0.272 OA
ENDBRANCH   9  26
TORSDOF 3
ENDMDL
