MODEL 1
REMARK VINA RESULT:      -8.3      0.000      0.000
REMARK  8 active torsions:
REMARK  status: ('A' for Active; 'I' for Inactive)
REMARK    1  A    between atoms: O1_2  and  C2_3 
REMARK    2  A    between atoms: C4_5  and  C5_6 
REMARK    3  A    between atoms: C11_14  and  C12_15 
REMARK    4  A    between atoms: C12_15  and  O2_16 
REMARK    5  A    between atoms: C16_20  and  O3_21 
REMARK    6  A    between atoms: O3_21  and  C17_22 
REMARK    7  A    between atoms: C17_22  and  O4_23 
REMARK    8  A    between atoms: C18_24  and  O5_25 
ROOT
HETATM    1  C2  UNL     1      27.041   1.592  53.745  1.00  0.00     0.105 A 
HETATM    2  C3  UNL     1      25.907   2.013  53.092  1.00  0.00     0.053 A 
HETATM    3  C4  UNL     1      25.026   1.091  52.570  1.00  0.00    -0.001 A 
HETATM    4  C15 UNL     1      25.309  -0.260  52.720  1.00  0.00     0.053 A 
HETATM    5  C16 UNL     1      26.448  -0.693  53.378  1.00  0.00     0.108 A 
HETATM    6  C18 UNL     1      27.339   0.234  53.903  1.00  0.00     0.135 A 
ENDROOT
BRANCH   3   7
HETATM    7  C5  UNL     1      23.816   1.436  51.840  1.00  0.00     0.081 A 
HETATM    8  N1  UNL     1      24.045   2.366  50.867  1.00  0.00    -0.240 NA
HETATM    9  C6  UNL     1      23.066   2.825  50.080  1.00  0.00     0.234 A 
HETATM   10  N2  UNL     1      21.797   2.382  50.217  1.00  0.00    -0.241 NA
HETATM   11  C7  UNL     1      21.519   1.469  51.159  1.00  0.00     0.071 A 
HETATM   12  C8  UNL     1      20.266   0.942  51.415  1.00  0.00     0.040 A 
HETATM   13  C14 UNL     1      22.528   0.999  51.967  1.00  0.00     0.023 A 
HETATM   14  C9  UNL     1      20.037   0.013  52.408  1.00  0.00    -0.051 A 
HETATM   15  C10 UNL     1      18.617  -0.460  52.554  1.00  0.00     0.049 C 
HETATM   16  C11 UNL     1      21.094  -0.433  53.206  1.00  0.00    -0.028 A 
HETATM   17  C13 UNL     1      22.359   0.076  52.973  1.00  0.00     0.026 A 
BRANCH  16  18
HETATM   18  C12 UNL     1      20.767  -1.437  54.263  1.00  0.00     0.203 C 
BRANCH  18  19
HETATM   19  O2  UNL     1      21.846  -1.550  55.143  1.00  0.00    -0.396 OA
HETATM   20  H12 UNL     1      22.670  -1.209  54.714  1.00  0.00     0.209 HD
ENDBRANCH  18  19
ENDBRANCH  16  18
ENDBRANCH   3   7
BRANCH   1  21
HETATM   21  O1  UNL     1      27.999   2.412  54.310  1.00  0.00    -0.353 OA
HETATM   22  C1  UNL     1      29.176   2.794  53.612  1.00  0.00     0.210 C 
ENDBRANCH   1  21
BRANCH   5  23
HETATM   23  O3  UNL     1      26.693  -2.053  53.506  1.00  0.00    -0.323 OA
BRANCH  23  24
HETATM   24  C17 UNL     1      27.325  -2.746  52.443  1.00  0.00     0.341 C 
BRANCH  24  25
HETATM   25  O4  UNL     1      28.420  -3.499  52.902  1.00  0.00    -0.377 OA
HETATM   26  H17 UNL     1      28.970  -2.906  53.484  1.00  0.00     0.212 HD
ENDBRANCH  24  25
ENDBRANCH  23  24
ENDBRANCH   5  23
BRANCH   6  27
HETATM   27  O5  UNL     1      28.449  -0.273  54.543  1.00  0.00    -0.351 OA
HETATM   28  C19 UNL     1      29.687  -0.526  53.949  1.00  0.00     0.210 C 
ENDBRANCH   6  27
TORSDOF 8
ENDMDL
MODEL 2
REMARK VINA RESULT:      -8.2      2.429      3.240
REMARK  8 active torsions:
REMARK  status: ('A' for Active; 'I' for Inactive)
REMARK    1  A    between atoms: O1_2  and  C2_3 
REMARK    2  A    between atoms: C4_5  and  C5_6 
REMARK    3  A    between atoms: C11_14  and  C12_15 
REMARK    4  A    between atoms: C12_15  and  O2_16 
REMARK    5  A    between atoms: C16_20  and  O3_21 
REMARK    6  A    between atoms: O3_21  and  C17_22 
REMARK    7  A    between atoms: C17_22  and  O4_23 
REMARK    8  A    between atoms: C18_24  and  O5_25 
ROOT
HETATM    1  C2  UNL     1      26.005   1.685  52.305  1.00  0.00     0.105 A 
HETATM    2  C3  UNL     1      24.658   1.464  52.469  1.00  0.00     0.053 A 
HETATM    3  C4  UNL     1      24.212   0.280  53.015  1.00  0.00    -0.001 A 
HETATM    4  C15 UNL     1      25.149  -0.674  53.393  1.00  0.00     0.053 A 
HETATM    5  C16 UNL     1      26.507  -0.458  53.232  1.00  0.00     0.108 A 
HETATM    6  C18 UNL     1      26.959   0.734  52.681  1.00  0.00     0.135 A 
ENDROOT
BRANCH   3   7
HETATM    7  C5  UNL     1      22.810  -0.059  53.203  1.00  0.00     0.081 A 
HETATM    8  N1  UNL     1      22.593  -0.734  54.371  1.00  0.00    -0.240 NA
HETATM    9  C6  UNL     1      21.373  -1.142  54.737  1.00  0.00     0.234 A 
HETATM   10  N2  UNL     1      20.295  -0.901  53.959  1.00  0.00    -0.241 NA
HETATM   11  C7  UNL     1      20.455  -0.242  52.802  1.00  0.00     0.071 A 
HETATM   12  C8  UNL     1      19.444   0.058  51.908  1.00  0.00     0.040 A 
HETATM   13  C14 UNL     1      21.711   0.176  52.428  1.00  0.00     0.023 A 
HETATM   14  C9  UNL     1      19.670   0.728  50.724  1.00  0.00    -0.051 A 
HETATM   15  C10 UNL     1      18.461   0.978  49.866  1.00  0.00     0.049 C 
HETATM   16  C11 UNL     1      20.964   1.132  50.385  1.00  0.00    -0.028 A 
HETATM   17  C13 UNL     1      21.997   0.845  51.261  1.00  0.00     0.026 A 
BRANCH  16  18
HETATM   18  C12 UNL     1      21.131   1.849  49.085  1.00  0.00     0.203 C 
BRANCH  18  19
HETATM   19  O2  UNL     1      21.702   0.983  48.149  1.00  0.00    -0.396 OA
HETATM   20  H12 UNL     1      21.906   0.113  48.573  1.00  0.00     0.209 HD
ENDBRANCH  18  19
ENDBRANCH  16  18
ENDBRANCH   3   7
BRANCH   1  21
HETATM   21  O1  UNL     1      26.576   2.825  51.772  1.00  0.00    -0.353 OA
HETATM   22  C1  UNL     1      26.466   3.154  50.395  1.00  0.00     0.210 C 
ENDBRANCH   1  21
BRANCH   5  23
HETATM   23  O3  UNL     1      27.409  -1.438  53.624  1.00  0.00    -0.323 OA
BRANCH  23  24
HETATM   24  C17 UNL     1      27.675  -2.522  52.751  1.00  0.00     0.341 C 
BRANCH  24  25
HETATM   25  O4  UNL     1      28.523  -3.468  53.353  1.00  0.00    -0.377 OA
HETATM   26  H17 UNL     1      28.425  -4.323  52.850  1.00  0.00     0.212 HD
ENDBRANCH  24  25
ENDBRANCH  23  24
ENDBRANCH   5  23
BRANCH   6  27
HETATM   27  O5  UNL     1      28.324   0.874  52.553  1.00  0.00    -0.351 OA
HETATM   28  C19 UNL     1      29.193   1.329  53.546  1.00  0.00     0.210 C 
ENDBRANCH   6  27
TORSDOF 8
ENDMDL
MODEL 3
REMARK VINA RESULT:      -8.0      2.880      4.432
REMARK  8 active torsions:
REMARK  status: ('A' for Active; 'I' for Inactive)
REMARK    1  A    between atoms: O1_2  and  C2_3 
REMARK    2  A    between atoms: C4_5  and  C5_6 
REMARK    3  A    between atoms: C11_14  and  C12_15 
REMARK    4  A    between atoms: C12_15  and  O2_16 
REMARK    5  A    between atoms: C16_20  and  O3_21 
REMARK    6  A    between atoms: O3_21  and  C17_22 
REMARK    7  A    between atoms: C17_22  and  O4_23 
REMARK    8  A    between atoms: C18_24  and  O5_25 
ROOT
HETATM    1  C2  UNL     1      23.923   3.164  51.433  1.00  0.00     0.105 A 
HETATM    2  C3  UNL     1      23.007   2.345  52.052  1.00  0.00     0.053 A 
HETATM    3  C4  UNL     1      23.416   1.162  52.629  1.00  0.00    -0.001 A 
HETATM    4  C15 UNL     1      24.761   0.822  52.571  1.00  0.00     0.053 A 
HETATM    5  C16 UNL     1      25.689   1.641  51.951  1.00  0.00     0.108 A 
HETATM    6  C18 UNL     1      25.280   2.834  51.368  1.00  0.00     0.135 A 
ENDROOT
BRANCH   3   7
HETATM    7  C5  UNL     1      22.522   0.217  53.281  1.00  0.00     0.081 A 
HETATM    8  N1  UNL     1      23.145  -0.485  54.274  1.00  0.00    -0.240 NA
HETATM    9  C6  UNL     1      22.505  -1.408  54.999  1.00  0.00     0.234 A 
HETATM   10  N2  UNL     1      21.201  -1.686  54.778  1.00  0.00    -0.241 NA
HETATM   11  C7  UNL     1      20.543  -1.025  53.814  1.00  0.00     0.071 A 
HETATM   12  C8  UNL     1      19.217  -1.220  53.474  1.00  0.00     0.040 A 
HETATM   13  C14 UNL     1      21.206  -0.076  53.069  1.00  0.00     0.023 A 
HETATM   14  C9  UNL     1      18.596  -0.518  52.463  1.00  0.00    -0.051 A 
HETATM   15  C10 UNL     1      17.149  -0.848  52.223  1.00  0.00     0.049 C 
HETATM   16  C11 UNL     1      19.310   0.435  51.732  1.00  0.00    -0.028 A 
HETATM   17  C13 UNL     1      20.639   0.652  52.049  1.00  0.00     0.026 A 
BRANCH  16  18
HETATM   18  C12 UNL     1      18.570   1.152  50.650  1.00  0.00     0.203 C 
BRANCH  18  19
HETATM   19  O2  UNL     1      19.231   0.963  49.434  1.00  0.00    -0.396 OA
HETATM   20  H12 UNL     1      20.138   1.356  49.477  1.00  0.00     0.209 HD
ENDBRANCH  18  19
ENDBRANCH  16  18
ENDBRANCH   3   7
BRANCH   1  21
HETATM   21  O1  UNL     1      23.641   4.370  50.821  1.00  0.00    -0.353 OA
HETATM   22  C1  UNL     1      23.456   5.570  51.558  1.00  0.00     0.210 C 
ENDBRANCH   1  21
BRANCH   5  23
HETATM   23  O3  UNL     1      27.024   1.264  51.917  1.00  0.00    -0.323 OA
BRANCH  23  24
HETATM   24  C17 UNL     1      27.876   1.632  52.989  1.00  0.00     0.341 C 
BRANCH  24  25
HETATM   25  O4  UNL     1      28.504   2.865  52.743  1.00  0.00    -0.377 OA
HETATM   26  H17 UNL     1      28.591   3.338  53.616  1.00  0.00     0.212 HD
ENDBRANCH  24  25
ENDBRANCH  23  24
ENDBRANCH   5  23
BRANCH   6  27
HETATM   27  O5  UNL     1      26.261   3.594  50.770  1.00  0.00    -0.351 OA
HETATM   28  C19 UNL     1      26.603   3.567  49.417  1.00  0.00     0.210 C 
ENDBRANCH   6  27
TORSDOF 8
ENDMDL
MODEL 4
REMARK VINA RESULT:      -7.9      4.823      7.424
REMARK  8 active torsions:
REMARK  status: ('A' for Active; 'I' for Inactive)
REMARK    1  A    between atoms: O1_2  and  C2_3 
REMARK    2  A    between atoms: C4_5  and  C5_6 
REMARK    3  A    between atoms: C11_14  and  C12_15 
REMARK    4  A    between atoms: C12_15  and  O2_16 
REMARK    5  A    between atoms: C16_20  and  O3_21 
REMARK    6  A    between atoms: O3_21  and  C17_22 
REMARK    7  A    between atoms: C17_22  and  O4_23 
REMARK    8  A    between atoms: C18_24  and  O5_25 
ROOT
HETATM    1  C2  UNL     1      28.390   5.393  48.405  1.00  0.00     0.105 A 
HETATM    2  C3  UNL     1      27.543   4.408  48.854  1.00  0.00     0.053 A 
HETATM    3  C4  UNL     1      26.312   4.739  49.377  1.00  0.00    -0.001 A 
HETATM    4  C15 UNL     1      25.952   6.079  49.438  1.00  0.00     0.053 A 
HETATM    5  C16 UNL     1      26.799   7.077  48.987  1.00  0.00     0.108 A 
HETATM    6  C18 UNL     1      28.041   6.746  48.461  1.00  0.00     0.135 A 
ENDROOT
BRANCH   3   7
HETATM    7  C5  UNL     1      25.357   3.774  49.902  1.00  0.00     0.081 A 
HETATM    8  N1  UNL     1      24.129   3.887  49.314  1.00  0.00    -0.240 NA
HETATM    9  C6  UNL     1      23.106   3.097  49.653  1.00  0.00     0.234 A 
HETATM   10  N2  UNL     1      23.246   2.142  50.600  1.00  0.00    -0.241 NA
HETATM   11  C7  UNL     1      24.432   1.991  51.207  1.00  0.00     0.071 A 
HETATM   12  C8  UNL     1      24.708   1.067  52.199  1.00  0.00     0.040 A 
HETATM   13  C14 UNL     1      25.483   2.806  50.857  1.00  0.00     0.023 A 
HETATM   14  C9  UNL     1      25.947   0.965  52.798  1.00  0.00    -0.051 A 
HETATM   15  C10 UNL     1      26.081  -0.094  53.857  1.00  0.00     0.049 C 
HETATM   16  C11 UNL     1      26.983   1.817  52.411  1.00  0.00    -0.028 A 
HETATM   17  C13 UNL     1      26.736   2.752  51.421  1.00  0.00     0.026 A 
BRANCH  16  18
HETATM   18  C12 UNL     1      28.294   1.649  53.108  1.00  0.00     0.203 C 
BRANCH  18  19
HETATM   19  O2  UNL     1      28.990   2.860  53.082  1.00  0.00    -0.396 OA
HETATM   20  H12 UNL     1      29.187   3.157  54.006  1.00  0.00     0.209 HD
ENDBRANCH  18  19
ENDBRANCH  16  18
ENDBRANCH   3   7
BRANCH   1  21
HETATM   21  O1  UNL     1      29.644   5.192  47.863  1.00  0.00    -0.353 OA
HETATM   22  C1  UNL     1      30.836   5.483  48.580  1.00  0.00     0.210 C 
ENDBRANCH   1  21
BRANCH   5  23
HETATM   23  O3  UNL     1      26.399   8.404  49.066  1.00  0.00    -0.323 OA
BRANCH  23  24
HETATM   24  C17 UNL     1      26.281   9.017  50.338  1.00  0.00     0.341 C 
BRANCH  24  25
HETATM   25  O4  UNL     1      27.542   9.299  50.891  1.00  0.00    -0.377 OA
HETATM   26  H17 UNL     1      28.040   8.438  50.959  1.00  0.00     0.212 HD
ENDBRANCH  24  25
ENDBRANCH  23  24
ENDBRANCH   5  23
BRANCH   6  27
HETATM   27  O5  UNL     1      28.827   7.795  48.033  1.00  0.00    -0.351 OA
HETATM   28  C19 UNL     1      28.891   8.287  46.728  1.00  0.00     0.210 C 
ENDBRANCH   6  27
TORSDOF 8
ENDMDL
MODEL 5
REMARK VINA RESULT:      -7.8      1.914      3.234
REMARK  8 active torsions:
REMARK  status: ('A' for Active; 'I' for Inactive)
REMARK    1  A    between atoms: O1_2  and  C2_3 
REMARK    2  A    between atoms: C4_5  and  C5_6 
REMARK    3  A    between atoms: C11_14  and  C12_15 
REMARK    4  A    between atoms: C12_15  and  O2_16 
REMARK    5  A    between atoms: C16_20  and  O3_21 
REMARK    6  A    between atoms: O3_21  and  C17_22 
REMARK    7  A    between atoms: C17_22  and  O4_23 
REMARK    8  A    between atoms: C18_24  and  O5_25 
ROOT
HETATM    1  C2  UNL     1      25.913   0.648  52.913  1.00  0.00     0.105 A 
HETATM    2  C3  UNL     1      24.587   0.606  52.550  1.00  0.00     0.053 A 
HETATM    3  C4  UNL     1      24.106   1.465  51.586  1.00  0.00    -0.001 A 
HETATM    4  C15 UNL     1      24.986   2.364  50.996  1.00  0.00     0.053 A 
HETATM    5  C16 UNL     1      26.321   2.411  51.355  1.00  0.00     0.108 A 
HETATM    6  C18 UNL     1      26.809   1.548  52.327  1.00  0.00     0.135 A 
ENDROOT
BRANCH   3   7
HETATM    7  C5  UNL     1      22.718   1.517  51.153  1.00  0.00     0.081 A 
HETATM    8  N1  UNL     1      22.537   2.360  50.094  1.00  0.00    -0.240 NA
HETATM    9  C6  UNL     1      21.335   2.556  49.542  1.00  0.00     0.234 A 
HETATM   10  N2  UNL     1      20.239   1.921  50.014  1.00  0.00    -0.241 NA
HETATM   11  C7  UNL     1      20.364   1.084  51.054  1.00  0.00     0.071 A 
HETATM   12  C8  UNL     1      19.327   0.384  51.643  1.00  0.00     0.040 A 
HETATM   13  C14 UNL     1      21.602   0.885  51.620  1.00  0.00     0.023 A 
HETATM   14  C9  UNL     1      19.513  -0.456  52.722  1.00  0.00    -0.051 A 
HETATM   15  C10 UNL     1      18.282  -1.145  53.241  1.00  0.00     0.049 C 
HETATM   16  C11 UNL     1      20.789  -0.625  53.264  1.00  0.00    -0.028 A 
HETATM   17  C13 UNL     1      21.846   0.063  52.696  1.00  0.00     0.026 A 
BRANCH  16  18
HETATM   18  C12 UNL     1      20.911  -1.548  54.433  1.00  0.00     0.203 C 
BRANCH  18  19
HETATM   19  O2  UNL     1      22.035  -1.196  55.185  1.00  0.00    -0.396 OA
HETATM   20  H12 UNL     1      21.760  -0.686  55.987  1.00  0.00     0.209 HD
ENDBRANCH  18  19
ENDBRANCH  16  18
ENDBRANCH   3   7
BRANCH   1  21
HETATM   21  O1  UNL     1      26.515  -0.156  53.862  1.00  0.00    -0.353 OA
HETATM   22  C1  UNL     1      26.325   0.045  55.256  1.00  0.00     0.210 C 
ENDBRANCH   1  21
BRANCH   5  23
HETATM   23  O3  UNL     1      27.166   3.325  50.739  1.00  0.00    -0.323 OA
BRANCH  23  24
HETATM   24  C17 UNL     1      26.797   3.873  49.485  1.00  0.00     0.341 C 
BRANCH  24  25
HETATM   25  O4  UNL     1      27.785   4.747  48.997  1.00  0.00    -0.377 OA
HETATM   26  H17 UNL     1      27.419   5.191  48.184  1.00  0.00     0.212 HD
ENDBRANCH  24  25
ENDBRANCH  23  24
ENDBRANCH   5  23
BRANCH   6  27
HETATM   27  O5  UNL     1      28.149   1.656  52.631  1.00  0.00    -0.351 OA
HETATM   28  C19 UNL     1      28.697   2.467  53.627  1.00  0.00     0.210 C 
ENDBRANCH   6  27
TORSDOF 8
ENDMDL
MODEL 6
REMARK VINA RESULT:      -7.7      2.953      5.562
REMARK  8 active torsions:
REMARK  status: ('A' for Active; 'I' for Inactive)
REMARK    1  A    between atoms: O1_2  and  C2_3 
REMARK    2  A    between atoms: C4_5  and  C5_6 
REMARK    3  A    between atoms: C11_14  and  C12_15 
REMARK    4  A    between atoms: C12_15  and  O2_16 
REMARK    5  A    between atoms: C16_20  and  O3_21 
REMARK    6  A    between atoms: O3_21  and  C17_22 
REMARK    7  A    between atoms: C17_22  and  O4_23 
REMARK    8  A    between atoms: C18_24  and  O5_25 
ROOT
HETATM    1  C2  UNL     1      26.902   0.986  52.789  1.00  0.00     0.105 A 
HETATM    2  C3  UNL     1      26.369   2.181  52.364  1.00  0.00     0.053 A 
HETATM    3  C4  UNL     1      25.003   2.334  52.268  1.00  0.00    -0.001 A 
HETATM    4  C15 UNL     1      24.187   1.263  52.608  1.00  0.00     0.053 A 
HETATM    5  C16 UNL     1      24.715   0.058  53.038  1.00  0.00     0.108 A 
HETATM    6  C18 UNL     1      26.092  -0.100  53.134  1.00  0.00     0.135 A 
ENDROOT
BRANCH   3   7
HETATM    7  C5  UNL     1      24.345   3.546  51.805  1.00  0.00     0.081 A 
HETATM    8  N1  UNL     1      23.164   3.775  52.452  1.00  0.00    -0.240 NA
HETATM    9  C6  UNL     1      22.398   4.835  52.175  1.00  0.00     0.234 A 
HETATM   10  N2  UNL     1      22.764   5.733  51.235  1.00  0.00    -0.241 NA
HETATM   11  C7  UNL     1      23.915   5.554  50.570  1.00  0.00     0.071 A 
HETATM   12  C8  UNL     1      24.401   6.385  49.577  1.00  0.00     0.040 A 
HETATM   13  C14 UNL     1      24.701   4.462  50.856  1.00  0.00     0.023 A 
HETATM   14  C9  UNL     1      25.588   6.143  48.917  1.00  0.00    -0.051 A 
HETATM   15  C10 UNL     1      25.974   7.146  47.866  1.00  0.00     0.049 C 
HETATM   16  C11 UNL     1      26.351   5.019  49.241  1.00  0.00    -0.028 A 
HETATM   17  C13 UNL     1      25.890   4.169  50.230  1.00  0.00     0.026 A 
BRANCH  16  18
HETATM   18  C12 UNL     1      27.622   4.822  48.480  1.00  0.00     0.203 C 
BRANCH  18  19
HETATM   19  O2  UNL     1      28.694   5.302  49.237  1.00  0.00    -0.396 OA
HETATM   20  H12 UNL     1      28.780   4.777  50.072  1.00  0.00     0.209 HD
ENDBRANCH  18  19
ENDBRANCH  16  18
ENDBRANCH   3   7
BRANCH   1  21
HETATM   21  O1  UNL     1      28.248   0.708  52.927  1.00  0.00    -0.353 OA
HETATM   22  C1  UNL     1      29.009   1.173  54.033  1.00  0.00     0.210 C 
ENDBRANCH   1  21
BRANCH   5  23
HETATM   23  O3  UNL     1      23.863  -0.987  53.369  1.00  0.00    -0.323 OA
BRANCH  23  24
HETATM   24  C17 UNL     1      22.998  -0.848  54.483  1.00  0.00     0.341 C 
BRANCH  24  25
HETATM   25  O4  UNL     1      23.512  -1.507  55.614  1.00  0.00    -0.377 OA
HETATM   26  H17 UNL     1      23.343  -0.924  56.405  1.00  0.00     0.212 HD
ENDBRANCH  24  25
ENDBRANCH  23  24
ENDBRANCH   5  23
BRANCH   6  27
HETATM   27  O5  UNL     1      26.541  -1.328  53.569  1.00  0.00    -0.351 OA
HETATM   28  C19 UNL     1      27.161  -2.296  52.777  1.00  0.00     0.210 C 
ENDBRANCH   6  27
TORSDOF 8
ENDMDL
MODEL 7
REMARK VINA RESULT:      -7.6      3.644      7.494
REMARK  8 active torsions:
REMARK  status: ('A' for Active; 'I' for Inactive)
REMARK    1  A    between atoms: O1_2  and  C2_3 
REMARK    2  A    between atoms: C4_5  and  C5_6 
REMARK    3  A    between atoms: C11_14  and  C12_15 
REMARK    4  A    between atoms: C12_15  and  O2_16 
REMARK    5  A    between atoms: C16_20  and  O3_21 
REMARK    6  A    between atoms: O3_21  and  C17_22 
REMARK    7  A    between atoms: C17_22  and  O4_23 
REMARK    8  A    between atoms: C18_24  and  O5_25 
ROOT
HETATM    1  C2  UNL     1      20.110   2.876  50.685  1.00  0.00     0.105 A 
HETATM    2  C3  UNL     1      20.649   1.835  51.404  1.00  0.00     0.053 A 
HETATM    3  C4  UNL     1      21.717   2.055  52.246  1.00  0.00    -0.001 A 
HETATM    4  C15 UNL     1      22.230   3.342  52.350  1.00  0.00     0.053 A 
HETATM    5  C16 UNL     1      21.692   4.396  51.631  1.00  0.00     0.108 A 
HETATM    6  C18 UNL     1      20.616   4.176  50.780  1.00  0.00     0.135 A 
ENDROOT
BRANCH   3   7
HETATM    7  C5  UNL     1      22.373   1.017  53.026  1.00  0.00     0.081 A 
HETATM    8  N1  UNL     1      21.506   0.370  53.860  1.00  0.00    -0.240 NA
HETATM    9  C6  UNL     1      21.904  -0.619  54.668  1.00  0.00     0.234 A 
HETATM   10  N2  UNL     1      23.194  -1.021  54.693  1.00  0.00    -0.241 NA
HETATM   11  C7  UNL     1      24.085  -0.417  53.894  1.00  0.00     0.071 A 
HETATM   12  C8  UNL     1      25.433  -0.719  53.830  1.00  0.00     0.040 A 
HETATM   13  C14 UNL     1      23.673   0.600  53.064  1.00  0.00     0.023 A 
HETATM   14  C9  UNL     1      26.307  -0.053  52.996  1.00  0.00    -0.051 A 
HETATM   15  C10 UNL     1      27.740  -0.507  53.045  1.00  0.00     0.049 C 
HETATM   16  C11 UNL     1      25.842   0.975  52.173  1.00  0.00    -0.028 A 
HETATM   17  C13 UNL     1      24.498   1.300  52.215  1.00  0.00     0.026 A 
BRANCH  16  18
HETATM   18  C12 UNL     1      26.849   1.651  51.300  1.00  0.00     0.203 C 
BRANCH  18  19
HETATM   19  O2  UNL     1      27.351   2.777  51.960  1.00  0.00    -0.396 OA
HETATM   20  H12 UNL     1      27.213   3.584  51.404  1.00  0.00     0.209 HD
ENDBRANCH  18  19
ENDBRANCH  16  18
ENDBRANCH   3   7
BRANCH   1  21
HETATM   21  O1  UNL     1      19.044   2.786  49.811  1.00  0.00    -0.353 OA
HETATM   22  C1  UNL     1      18.238   1.620  49.717  1.00  0.00     0.210 C 
ENDBRANCH   1  21
BRANCH   5  23
HETATM   23  O3  UNL     1      22.235   5.667  51.765  1.00  0.00    -0.323 OA
BRANCH  23  24
HETATM   24  C17 UNL     1      23.575   5.893  51.362  1.00  0.00     0.341 C 
BRANCH  24  25
HETATM   25  O4  UNL     1      24.274   6.655  52.314  1.00  0.00    -0.377 OA
HETATM   26  H17 UNL     1      24.510   7.525  51.889  1.00  0.00     0.212 HD
ENDBRANCH  24  25
ENDBRANCH  23  24
ENDBRANCH   5  23
BRANCH   6  27
HETATM   27  O5  UNL     1      20.137   5.274  50.098  1.00  0.00    -0.351 OA
HETATM   28  C19 UNL     1      20.545   5.687  48.828  1.00  0.00     0.210 C 
ENDBRANCH   6  27
TORSDOF 8
ENDMDL
MODEL 8
REMARK VINA RESULT:      -7.5      3.047      7.390
REMARK  8 active torsions:
REMARK  status: ('A' for Active; 'I' for Inactive)
REMARK    1  A    between atoms: O1_2  and  C2_3 
REMARK    2  A    between atoms: C4_5  and  C5_6 
REMARK    3  A    between atoms: C11_14  and  C12_15 
REMARK    4  A    between atoms: C12_15  and  O2_16 
REMARK    5  A    between atoms: C16_20  and  O3_21 
REMARK    6  A    between atoms: O3_21  and  C17_22 
REMARK    7  A    between atoms: C17_22  and  O4_23 
REMARK    8  A    between atoms: C18_24  and  O5_25 
ROOT
HETATM    1  C2  UNL     1      21.258   1.085  50.427  1.00  0.00     0.105 A 
HETATM    2  C3  UNL     1      22.308   0.744  51.247  1.00  0.00     0.053 A 
HETATM    3  C4  UNL     1      22.070   0.135  52.460  1.00  0.00    -0.001 A 
HETATM    4  C15 UNL     1      20.756  -0.126  52.828  1.00  0.00     0.053 A 
HETATM    5  C16 UNL     1      19.694   0.213  52.007  1.00  0.00     0.108 A 
HETATM    6  C18 UNL     1      19.931   0.829  50.785  1.00  0.00     0.135 A 
ENDROOT
BRANCH   3   7
HETATM    7  C5  UNL     1      23.108  -0.239  53.408  1.00  0.00     0.081 A 
HETATM    8  N1  UNL     1      22.631  -1.028  54.415  1.00  0.00    -0.240 NA
HETATM    9  C6  UNL     1      23.420  -1.481  55.396  1.00  0.00     0.234 A 
HETATM   10  N2  UNL     1      24.735  -1.175  55.429  1.00  0.00    -0.241 NA
HETATM   11  C7  UNL     1      25.254  -0.402  54.462  1.00  0.00     0.071 A 
HETATM   12  C8  UNL     1      26.575  -0.002  54.383  1.00  0.00     0.040 A 
HETATM   13  C14 UNL     1      24.439   0.063  53.456  1.00  0.00     0.023 A 
HETATM   14  C9  UNL     1      27.049   0.806  53.371  1.00  0.00    -0.051 A 
HETATM   15  C10 UNL     1      28.513   1.146  53.430  1.00  0.00     0.049 C 
HETATM   16  C11 UNL     1      26.184   1.256  52.371  1.00  0.00    -0.028 A 
HETATM   17  C13 UNL     1      24.855   0.872  52.424  1.00  0.00     0.026 A 
BRANCH  16  18
HETATM   18  C12 UNL     1      26.770   2.130  51.311  1.00  0.00     0.203 C 
BRANCH  18  19
HETATM   19  O2  UNL     1      26.254   3.422  51.438  1.00  0.00    -0.396 OA
HETATM   20  H12 UNL     1      26.789   4.055  50.898  1.00  0.00     0.209 HD
ENDBRANCH  18  19
ENDBRANCH  16  18
ENDBRANCH   3   7
BRANCH   1  21
HETATM   21  O1  UNL     1      21.365   1.698  49.194  1.00  0.00    -0.353 OA
HETATM   22  C1  UNL     1      22.240   2.793  48.964  1.00  0.00     0.210 C 
ENDBRANCH   1  21
BRANCH   5  23
HETATM   23  O3  UNL     1      18.396  -0.066  52.413  1.00  0.00    -0.323 OA
BRANCH  23  24
HETATM   24  C17 UNL     1      18.085  -1.362  52.896  1.00  0.00     0.341 C 
BRANCH  24  25
HETATM   25  O4  UNL     1      17.598  -1.314  54.214  1.00  0.00    -0.377 OA
HETATM   26  H17 UNL     1      17.442  -0.356  54.443  1.00  0.00     0.212 HD
ENDBRANCH  24  25
ENDBRANCH  23  24
ENDBRANCH   5  23
BRANCH   6  27
HETATM   27  O5  UNL     1      18.823   1.135  50.025  1.00  0.00    -0.351 OA
HETATM   28  C19 UNL     1      18.125   2.344  50.052  1.00  0.00     0.210 C 
ENDBRANCH   6  27
TORSDOF 8
ENDMDL
MODEL 9
REMARK VINA RESULT:      -7.4      6.449      8.946
REMARK  8 active torsions:
REMARK  status: ('A' for Active; 'I' for Inactive)
REMARK    1  A    between atoms: O1_2  and  C2_3 
REMARK    2  A    between atoms: C4_5  and  C5_6 
REMARK    3  A    between atoms: C11_14  and  C12_15 
REMARK    4  A    between atoms: C12_15  and  O2_16 
REMARK    5  A    between atoms: C16_20  and  O3_21 
REMARK    6  A    between atoms: O3_21  and  C17_22 
REMARK    7  A    between atoms: C17_22  and  O4_23 
REMARK    8  A    between atoms: C18_24  and  O5_25 
ROOT
HETATM    1  C2  UNL     1      30.666   6.013  48.456  1.00  0.00     0.105 A 
HETATM    2  C3  UNL     1      29.322   5.915  48.179  1.00  0.00     0.053 A 
HETATM    3  C4  UNL     1      28.500   7.008  48.347  1.00  0.00    -0.001 A 
HETATM    4  C15 UNL     1      29.057   8.198  48.797  1.00  0.00     0.053 A 
HETATM    5  C16 UNL     1      30.409   8.305  49.076  1.00  0.00     0.108 A 
HETATM    6  C18 UNL     1      31.239   7.204  48.910  1.00  0.00     0.135 A 
ENDROOT
BRANCH   3   7
HETATM    7  C5  UNL     1      27.065   6.999  48.107  1.00  0.00     0.081 A 
HETATM    8  N1  UNL     1      26.655   8.074  47.371  1.00  0.00    -0.240 NA
HETATM    9  C6  UNL     1      25.373   8.260  47.040  1.00  0.00     0.234 A 
HETATM   10  N2  UNL     1      24.420   7.382  47.424  1.00  0.00    -0.241 NA
HETATM   11  C7  UNL     1      24.771   6.309  48.150  1.00  0.00     0.071 A 
HETATM   12  C8  UNL     1      23.899   5.344  48.619  1.00  0.00     0.040 A 
HETATM   13  C14 UNL     1      26.091   6.122  48.489  1.00  0.00     0.023 A 
HETATM   14  C9  UNL     1      24.316   4.267  49.374  1.00  0.00    -0.051 A 
HETATM   15  C10 UNL     1      23.241   3.307  49.802  1.00  0.00     0.049 C 
HETATM   16  C11 UNL     1      25.667   4.120  49.695  1.00  0.00    -0.028 A 
HETATM   17  C13 UNL     1      26.563   5.070  49.240  1.00  0.00     0.026 A 
BRANCH  16  18
HETATM   18  C12 UNL     1      26.041   2.930  50.519  1.00  0.00     0.203 C 
BRANCH  18  19
HETATM   19  O2  UNL     1      27.228   3.197  51.205  1.00  0.00    -0.396 OA
HETATM   20  H12 UNL     1      27.303   4.167  51.388  1.00  0.00     0.209 HD
ENDBRANCH  18  19
ENDBRANCH  16  18
ENDBRANCH   3   7
BRANCH   1  21
HETATM   21  O1  UNL     1      31.591   4.994  48.329  1.00  0.00    -0.353 OA
HETATM   22  C1  UNL     1      31.905   4.408  47.074  1.00  0.00     0.210 C 
ENDBRANCH   1  21
BRANCH   5  23
HETATM   23  O3  UNL     1      30.925   9.514  49.524  1.00  0.00    -0.323 OA
BRANCH  23  24
HETATM   24  C17 UNL     1      30.737  10.679  48.739  1.00  0.00     0.341 C 
BRANCH  24  25
HETATM   25  O4  UNL     1      30.049  11.674  49.456  1.00  0.00    -0.377 OA
HETATM   26  H17 UNL     1      30.495  11.768  50.343  1.00  0.00     0.212 HD
ENDBRANCH  24  25
ENDBRANCH  23  24
ENDBRANCH   5  23
BRANCH   6  27
HETATM   27  O5  UNL     1      32.572   7.388  49.209  1.00  0.00    -0.351 OA
HETATM   28  C19 UNL     1      33.550   7.850  48.326  1.00  0.00     0.210 C 
ENDBRANCH   6  27
TORSDOF 8
ENDMDL
