MODEL 1
REMARK VINA RESULT:      -8.8      0.000      0.000
REMARK  6 active torsions:
REMARK  status: ('A' for Active; 'I' for Inactive)
REMARK    1  A    between atoms: N1_2  and  C2_3 
REMARK    2  A    between atoms: N2_6  and  C5_7 
REMARK    3  A    between atoms: C5_7  and  C6_8 
REMARK    4  A    between atoms: C6_8  and  N3_10 
REMARK    5  A    between atoms: C9_12  and  C10_13 
REMARK    6  A    between atoms: C12_15  and  N4_16 
ROOT
HETATM    1  N3  UNL     1      23.103   1.339  51.848  1.00  0.00    -0.334 N 
HETATM    2  C8  UNL     1      24.375   0.965  51.777  1.00  0.00     0.106 A 
HETATM    3  C9  UNL     1      24.758   0.106  52.775  1.00  0.00     0.006 A 
HETATM    4  C18 UNL     1      23.577  -0.037  53.514  1.00  0.00     0.047 A 
HETATM    5  C19 UNL     1      23.263  -0.748  54.650  1.00  0.00     0.047 A 
HETATM    6  C20 UNL     1      24.259  -1.562  55.368  1.00  0.00     0.071 C 
HETATM    7  N5  UNL     1      22.010  -0.692  55.158  1.00  0.00    -0.246 NA
HETATM    8  C21 UNL     1      21.035   0.040  54.601  1.00  0.00     0.235 A 
HETATM    9  N6  UNL     1      21.324   0.738  53.499  1.00  0.00    -0.223 NA
HETATM   10  C22 UNL     1      22.559   0.724  52.938  1.00  0.00     0.144 A 
ENDROOT
BRANCH   3  11
HETATM   11  C10 UNL     1      26.063  -0.483  53.018  1.00  0.00    -0.013 C 
HETATM   12  C11 UNL     1      27.142   0.136  53.465  1.00  0.00     0.018 C 
HETATM   13  C12 UNL     1      27.200   1.583  53.799  1.00  0.00     0.387 C 
HETATM   14  C15 UNL     1      28.459  -0.469  53.778  1.00  0.00     0.164 C 
HETATM   15  O1  UNL     1      28.109   1.895  54.786  1.00  0.00    -0.354 OA
HETATM   16  C13 UNL     1      29.426   1.665  54.409  1.00  0.00     0.173 C 
HETATM   17  C14 UNL     1      29.524   0.537  53.398  1.00  0.00     0.063 C 
HETATM   18  O2  UNL     1      28.626  -1.738  53.246  1.00  0.00    -0.353 OA
HETATM   19  C16 UNL     1      27.553  -2.471  52.774  1.00  0.00     0.136 C 
HETATM   20  C17 UNL     1      26.375  -1.886  52.669  1.00  0.00     0.037 C 
BRANCH  13  21
HETATM   21  N4  UNL     1      27.427   2.429  52.655  1.00  0.00     0.111 N 
HETATM   22  H16 UNL     1      26.555   2.669  52.178  1.00  0.00     0.316 HD
HETATM   23  H17 UNL     1      28.113   2.093  51.971  1.00  0.00     0.316 HD
ENDBRANCH  13  21
ENDBRANCH   3  11
BRANCH   1  24
HETATM   24  C6  UNL     1      22.282   2.213  51.031  1.00  0.00     0.115 C 
HETATM   25  C7  UNL     1      22.261   1.821  49.586  1.00  0.00     0.034 C 
BRANCH  24  26
HETATM   26  C5  UNL     1      22.784   3.609  51.192  1.00  0.00     0.300 C 
BRANCH  26  27
HETATM   27  N2  UNL     1      23.551   4.092  50.079  1.00  0.00     0.115 N 
HETATM   28  C2  UNL     1      24.828   4.668  50.416  1.00  0.00     0.344 C 
HETATM   29  C3  UNL     1      24.627   5.695  49.351  1.00  0.00     0.089 C 
HETATM   30  C4  UNL     1      23.159   5.354  49.517  1.00  0.00     0.279 C 
BRANCH  28  31
HETATM   31  N1  UNL     1      25.970   3.817  50.249  1.00  0.00    -0.277 NA
HETATM   32  C1  UNL     1      26.833   4.022  49.313  1.00  0.00     0.145 C 
ENDBRANCH  28  31
ENDBRANCH  26  27
ENDBRANCH  24  26
ENDBRANCH   1  24
TORSDOF 6
ENDMDL
MODEL 2
REMARK VINA RESULT:      -8.4      2.626      6.182
REMARK  6 active torsions:
REMARK  status: ('A' for Active; 'I' for Inactive)
REMARK    1  A    between atoms: N1_2  and  C2_3 
REMARK    2  A    between atoms: N2_6  and  C5_7 
REMARK    3  A    between atoms: C5_7  and  C6_8 
REMARK    4  A    between atoms: C6_8  and  N3_10 
REMARK    5  A    between atoms: C9_12  and  C10_13 
REMARK    6  A    between atoms: C12_15  and  N4_16 
ROOT
HETATM    1  N3  UNL     1      24.651   0.289  53.027  1.00  0.00    -0.334 N 
HETATM    2  C8  UNL     1      24.758   1.127  52.004  1.00  0.00     0.106 A 
HETATM    3  C9  UNL     1      23.567   1.686  51.616  1.00  0.00     0.006 A 
HETATM    4  C18 UNL     1      22.661   1.106  52.513  1.00  0.00     0.047 A 
HETATM    5  C19 UNL     1      21.298   1.221  52.673  1.00  0.00     0.047 A 
HETATM    6  C20 UNL     1      20.472   2.070  51.798  1.00  0.00     0.071 C 
HETATM    7  N5  UNL     1      20.670   0.518  53.644  1.00  0.00    -0.246 NA
HETATM    8  C21 UNL     1      21.321  -0.306  54.478  1.00  0.00     0.235 A 
HETATM    9  N6  UNL     1      22.643  -0.431  54.334  1.00  0.00    -0.223 NA
HETATM   10  C22 UNL     1      23.333   0.246  53.382  1.00  0.00     0.144 A 
ENDROOT
BRANCH   3  11
HETATM   11  C10 UNL     1      23.309   2.619  50.534  1.00  0.00    -0.013 C 
HETATM   12  C11 UNL     1      23.356   3.939  50.596  1.00  0.00     0.018 C 
HETATM   13  C12 UNL     1      23.687   4.708  51.822  1.00  0.00     0.387 C 
HETATM   14  C15 UNL     1      23.158   4.897  49.482  1.00  0.00     0.164 C 
HETATM   15  O1  UNL     1      24.292   5.923  51.577  1.00  0.00    -0.354 OA
HETATM   16  C13 UNL     1      23.460   6.824  50.924  1.00  0.00     0.173 C 
HETATM   17  C14 UNL     1      22.451   6.109  50.045  1.00  0.00     0.063 C 
HETATM   18  O2  UNL     1      22.567   4.331  48.363  1.00  0.00    -0.353 OA
HETATM   19  C16 UNL     1      22.490   2.960  48.201  1.00  0.00     0.136 C 
HETATM   20  C17 UNL     1      22.832   2.177  49.206  1.00  0.00     0.037 C 
BRANCH  13  21
HETATM   21  N4  UNL     1      22.563   4.903  52.702  1.00  0.00     0.111 N 
HETATM   22  H16 UNL     1      21.700   4.520  52.309  1.00  0.00     0.316 HD
HETATM   23  H17 UNL     1      22.399   5.863  53.023  1.00  0.00     0.316 HD
ENDBRANCH  13  21
ENDBRANCH   3  11
BRANCH   1  24
HETATM   24  C6  UNL     1      25.618  -0.512  53.756  1.00  0.00     0.115 C 
HETATM   25  C7  UNL     1      25.965   0.058  55.095  1.00  0.00     0.034 C 
BRANCH  24  26
HETATM   26  C5  UNL     1      26.838  -0.653  52.909  1.00  0.00     0.300 C 
BRANCH  26  27
HETATM   27  N2  UNL     1      28.066  -0.715  53.650  1.00  0.00     0.115 N 
HETATM   28  C2  UNL     1      29.078   0.227  53.243  1.00  0.00     0.344 C 
HETATM   29  C3  UNL     1      30.121  -0.813  53.490  1.00  0.00     0.089 C 
HETATM   30  C4  UNL     1      28.969  -1.784  53.327  1.00  0.00     0.279 C 
BRANCH  28  31
HETATM   31  N1  UNL     1      29.189   1.417  54.036  1.00  0.00    -0.277 NA
HETATM   32  C1  UNL     1      28.640   2.526  53.669  1.00  0.00     0.145 C 
ENDBRANCH  28  31
ENDBRANCH  26  27
ENDBRANCH  24  26
ENDBRANCH   1  24
TORSDOF 6
ENDMDL
MODEL 3
REMARK VINA RESULT:      -8.3      1.439      2.501
REMARK  6 active torsions:
REMARK  status: ('A' for Active; 'I' for Inactive)
REMARK    1  A    between atoms: N1_2  and  C2_3 
REMARK    2  A    between atoms: N2_6  and  C5_7 
REMARK    3  A    between atoms: C5_7  and  C6_8 
REMARK    4  A    between atoms: C6_8  and  N3_10 
REMARK    5  A    between atoms: C9_12  and  C10_13 
REMARK    6  A    between atoms: C12_15  and  N4_16 
ROOT
HETATM    1  N3  UNL     1      23.200   1.583  51.729  1.00  0.00    -0.334 N 
HETATM    2  C8  UNL     1      24.460   1.169  51.697  1.00  0.00     0.106 A 
HETATM    3  C9  UNL     1      24.771   0.262  52.679  1.00  0.00     0.006 A 
HETATM    4  C18 UNL     1      23.556   0.134  53.362  1.00  0.00     0.047 A 
HETATM    5  C19 UNL     1      23.169  -0.605  54.457  1.00  0.00     0.047 A 
HETATM    6  C20 UNL     1      24.106  -1.478  55.186  1.00  0.00     0.071 C 
HETATM    7  N5  UNL     1      21.899  -0.524  54.915  1.00  0.00    -0.246 NA
HETATM    8  C21 UNL     1      20.972   0.261  54.344  1.00  0.00     0.235 A 
HETATM    9  N6  UNL     1      21.332   0.986  53.281  1.00  0.00    -0.223 NA
HETATM   10  C22 UNL     1      22.589   0.950  52.773  1.00  0.00     0.144 A 
ENDROOT
BRANCH   3  11
HETATM   11  C10 UNL     1      26.044  -0.380  52.954  1.00  0.00    -0.013 C 
HETATM   12  C11 UNL     1      27.135   0.194  53.432  1.00  0.00     0.018 C 
HETATM   13  C12 UNL     1      27.243   1.636  53.772  1.00  0.00     0.387 C 
HETATM   14  C15 UNL     1      28.418  -0.465  53.778  1.00  0.00     0.164 C 
HETATM   15  O1  UNL     1      28.137   1.909  54.785  1.00  0.00    -0.354 OA
HETATM   16  C13 UNL     1      29.454   1.626  54.442  1.00  0.00     0.173 C 
HETATM   17  C14 UNL     1      29.532   0.497  53.430  1.00  0.00     0.063 C 
HETATM   18  O2  UNL     1      28.547  -1.739  53.246  1.00  0.00    -0.353 OA
HETATM   19  C16 UNL     1      27.458  -2.427  52.743  1.00  0.00     0.136 C 
HETATM   20  C17 UNL     1      26.308  -1.794  52.609  1.00  0.00     0.037 C 
BRANCH  13  21
HETATM   21  N4  UNL     1      27.535   2.475  52.638  1.00  0.00     0.111 N 
HETATM   22  H16 UNL     1      27.867   3.399  52.923  1.00  0.00     0.316 HD
HETATM   23  H17 UNL     1      26.787   2.577  51.944  1.00  0.00     0.316 HD
ENDBRANCH  13  21
ENDBRANCH   3  11
BRANCH   1  24
HETATM   24  C6  UNL     1      22.444   2.513  50.911  1.00  0.00     0.115 C 
HETATM   25  C7  UNL     1      22.911   2.563  49.490  1.00  0.00     0.034 C 
BRANCH  24  26
HETATM   26  C5  UNL     1      22.528   3.864  51.541  1.00  0.00     0.300 C 
BRANCH  26  27
HETATM   27  N2  UNL     1      21.318   4.631  51.455  1.00  0.00     0.115 N 
HETATM   28  C2  UNL     1      20.172   3.919  50.947  1.00  0.00     0.344 C 
HETATM   29  C3  UNL     1      19.746   5.154  50.225  1.00  0.00     0.089 C 
HETATM   30  C4  UNL     1      21.204   5.546  50.354  1.00  0.00     0.279 C 
BRANCH  28  31
HETATM   31  N1  UNL     1      19.251   3.424  51.928  1.00  0.00    -0.277 NA
HETATM   32  C1  UNL     1      18.460   2.436  51.672  1.00  0.00     0.145 C 
ENDBRANCH  28  31
ENDBRANCH  26  27
ENDBRANCH  24  26
ENDBRANCH   1  24
TORSDOF 6
ENDMDL
MODEL 4
REMARK VINA RESULT:      -7.5      2.871      6.574
REMARK  6 active torsions:
REMARK  status: ('A' for Active; 'I' for Inactive)
REMARK    1  A    between atoms: N1_2  and  C2_3 
REMARK    2  A    between atoms: N2_6  and  C5_7 
REMARK    3  A    between atoms: C5_7  and  C6_8 
REMARK    4  A    between atoms: C6_8  and  N3_10 
REMARK    5  A    between atoms: C9_12  and  C10_13 
REMARK    6  A    between atoms: C12_15  and  N4_16 
ROOT
HETATM    1  N3  UNL     1      22.599   0.658  53.072  1.00  0.00    -0.334 N 
HETATM    2  C8  UNL     1      22.222   1.503  52.121  1.00  0.00     0.106 A 
HETATM    3  C9  UNL     1      23.267   2.065  51.431  1.00  0.00     0.006 A 
HETATM    4  C18 UNL     1      24.379   1.484  52.051  1.00  0.00     0.047 A 
HETATM    5  C19 UNL     1      25.736   1.617  51.857  1.00  0.00     0.047 A 
HETATM    6  C20 UNL     1      26.300   2.527  50.844  1.00  0.00     0.071 C 
HETATM    7  N5  UNL     1      26.601   0.919  52.628  1.00  0.00    -0.246 NA
HETATM    8  C21 UNL     1      26.197   0.085  53.597  1.00  0.00     0.235 A 
HETATM    9  N6  UNL     1      24.884  -0.053  53.800  1.00  0.00    -0.223 NA
HETATM   10  C22 UNL     1      23.964   0.616  53.062  1.00  0.00     0.144 A 
ENDROOT
BRANCH   3  11
HETATM   11  C10 UNL     1      23.227   3.036  50.352  1.00  0.00    -0.013 C 
HETATM   12  C11 UNL     1      23.344   4.349  50.460  1.00  0.00     0.018 C 
HETATM   13  C12 UNL     1      23.536   5.069  51.745  1.00  0.00     0.387 C 
HETATM   14  C15 UNL     1      23.370   5.341  49.359  1.00  0.00     0.164 C 
HETATM   15  O1  UNL     1      24.242   6.247  51.628  1.00  0.00    -0.354 OA
HETATM   16  C13 UNL     1      23.572   7.214  50.888  1.00  0.00     0.173 C 
HETATM   17  C14 UNL     1      22.661   6.584  49.850  1.00  0.00     0.063 C 
HETATM   18  O2  UNL     1      22.917   4.839  48.150  1.00  0.00    -0.353 OA
HETATM   19  C16 UNL     1      22.783   3.480  47.935  1.00  0.00     0.136 C 
HETATM   20  C17 UNL     1      22.926   2.655  48.955  1.00  0.00     0.037 C 
BRANCH  13  21
HETATM   21  N4  UNL     1      22.308   5.316  52.457  1.00  0.00     0.111 N 
HETATM   22  H16 UNL     1      21.585   5.704  51.846  1.00  0.00     0.316 HD
HETATM   23  H17 UNL     1      22.383   5.885  53.306  1.00  0.00     0.316 HD
ENDBRANCH  13  21
ENDBRANCH   3  11
BRANCH   1  24
HETATM   24  C6  UNL     1      21.863  -0.147  54.028  1.00  0.00     0.115 C 
HETATM   25  C7  UNL     1      22.033  -1.619  53.813  1.00  0.00     0.034 C 
BRANCH  24  26
HETATM   26  C5  UNL     1      20.423   0.235  53.948  1.00  0.00     0.300 C 
BRANCH  26  27
HETATM   27  N2  UNL     1      19.647  -0.571  53.048  1.00  0.00     0.115 N 
HETATM   28  C2  UNL     1      18.776   0.161  52.163  1.00  0.00     0.344 C 
HETATM   29  C3  UNL     1      17.751  -0.915  52.312  1.00  0.00     0.089 C 
HETATM   30  C4  UNL     1      18.496  -1.233  53.593  1.00  0.00     0.279 C 
BRANCH  28  31
HETATM   31  N1  UNL     1      19.262   0.375  50.831  1.00  0.00    -0.277 NA
HETATM   32  C1  UNL     1      18.967   1.442  50.168  1.00  0.00     0.145 C 
ENDBRANCH  28  31
ENDBRANCH  26  27
ENDBRANCH  24  26
ENDBRANCH   1  24
TORSDOF 6
ENDMDL
MODEL 5
REMARK VINA RESULT:      -7.2      1.642      2.500
REMARK  6 active torsions:
REMARK  status: ('A' for Active; 'I' for Inactive)
REMARK    1  A    between atoms: N1_2  and  C2_3 
REMARK    2  A    between atoms: N2_6  and  C5_7 
REMARK    3  A    between atoms: C5_7  and  C6_8 
REMARK    4  A    between atoms: C6_8  and  N3_10 
REMARK    5  A    between atoms: C9_12  and  C10_13 
REMARK    6  A    between atoms: C12_15  and  N4_16 
ROOT
HETATM    1  N3  UNL     1      24.319   3.006  50.784  1.00  0.00    -0.334 N 
HETATM    2  C8  UNL     1      25.419   2.313  51.051  1.00  0.00     0.106 A 
HETATM    3  C9  UNL     1      25.226   1.286  51.940  1.00  0.00     0.006 A 
HETATM    4  C18 UNL     1      23.859   1.394  52.227  1.00  0.00     0.047 A 
HETATM    5  C19 UNL     1      23.016   0.683  53.051  1.00  0.00     0.047 A 
HETATM    6  C20 UNL     1      23.490  -0.436  53.883  1.00  0.00     0.071 C 
HETATM    7  N5  UNL     1      21.709   1.024  53.138  1.00  0.00    -0.246 NA
HETATM    8  C21 UNL     1      21.179   2.044  52.446  1.00  0.00     0.235 A 
HETATM    9  N6  UNL     1      21.985   2.745  51.644  1.00  0.00    -0.223 NA
HETATM   10  C22 UNL     1      23.304   2.455  51.511  1.00  0.00     0.144 A 
ENDROOT
BRANCH   3  11
HETATM   11  C10 UNL     1      26.197   0.347  52.470  1.00  0.00    -0.013 C 
HETATM   12  C11 UNL     1      27.269   0.633  53.190  1.00  0.00     0.018 C 
HETATM   13  C12 UNL     1      27.669   2.008  53.584  1.00  0.00     0.387 C 
HETATM   14  C15 UNL     1      28.230  -0.323  53.789  1.00  0.00     0.164 C 
HETATM   15  O1  UNL     1      28.361   2.073  54.774  1.00  0.00    -0.354 OA
HETATM   16  C13 UNL     1      29.601   1.449  54.720  1.00  0.00     0.173 C 
HETATM   17  C14 UNL     1      29.603   0.307  53.719  1.00  0.00     0.063 C 
HETATM   18  O2  UNL     1      28.137  -1.603  53.265  1.00  0.00    -0.353 OA
HETATM   19  C16 UNL     1      27.045  -2.002  52.518  1.00  0.00     0.136 C 
HETATM   20  C17 UNL     1      26.155  -1.097  52.153  1.00  0.00     0.037 C 
BRANCH  13  21
HETATM   21  N4  UNL     1      28.408   2.708  52.564  1.00  0.00     0.111 N 
HETATM   22  H16 UNL     1      29.279   2.227  52.326  1.00  0.00     0.316 HD
HETATM   23  H17 UNL     1      28.600   3.699  52.742  1.00  0.00     0.316 HD
ENDBRANCH  13  21
ENDBRANCH   3  11
BRANCH   1  24
HETATM   24  C6  UNL     1      24.052   4.147  49.927  1.00  0.00     0.115 C 
HETATM   25  C7  UNL     1      25.229   4.543  49.091  1.00  0.00     0.034 C 
BRANCH  24  26
HETATM   26  C5  UNL     1      23.609   5.283  50.787  1.00  0.00     0.300 C 
BRANCH  26  27
HETATM   27  N2  UNL     1      22.540   6.063  50.230  1.00  0.00     0.115 N 
HETATM   28  C2  UNL     1      22.809   7.473  50.103  1.00  0.00     0.344 C 
HETATM   29  C3  UNL     1      21.393   7.759  50.480  1.00  0.00     0.089 C 
HETATM   30  C4  UNL     1      21.441   6.376  51.099  1.00  0.00     0.279 C 
BRANCH  28  31
HETATM   31  N1  UNL     1      23.210   7.926  48.803  1.00  0.00    -0.277 NA
HETATM   32  C1  UNL     1      23.783   9.069  48.634  1.00  0.00     0.145 C 
ENDBRANCH  28  31
ENDBRANCH  26  27
ENDBRANCH  24  26
ENDBRANCH   1  24
TORSDOF 6
ENDMDL
MODEL 6
REMARK VINA RESULT:      -7.1      3.594      8.368
REMARK  6 active torsions:
REMARK  status: ('A' for Active; 'I' for Inactive)
REMARK    1  A    between atoms: N1_2  and  C2_3 
REMARK    2  A    between atoms: N2_6  and  C5_7 
REMARK    3  A    between atoms: C5_7  and  C6_8 
REMARK    4  A    between atoms: C6_8  and  N3_10 
REMARK    5  A    between atoms: C9_12  and  C10_13 
REMARK    6  A    between atoms: C12_15  and  N4_16 
ROOT
HETATM    1  N3  UNL     1      24.769   2.935  51.151  1.00  0.00    -0.334 N 
HETATM    2  C8  UNL     1      23.573   3.509  51.157  1.00  0.00     0.106 A 
HETATM    3  C9  UNL     1      23.481   4.610  50.343  1.00  0.00     0.006 A 
HETATM    4  C18 UNL     1      24.770   4.689  49.803  1.00  0.00     0.047 A 
HETATM    5  C19 UNL     1      25.365   5.565  48.922  1.00  0.00     0.047 A 
HETATM    6  C20 UNL     1      24.645   6.716  48.352  1.00  0.00     0.071 C 
HETATM    7  N5  UNL     1      26.662   5.397  48.575  1.00  0.00    -0.246 NA
HETATM    8  C21 UNL     1      27.418   4.399  49.056  1.00  0.00     0.235 A 
HETATM    9  N6  UNL     1      26.856   3.542  49.913  1.00  0.00    -0.223 NA
HETATM   10  C22 UNL     1      25.561   3.654  50.303  1.00  0.00     0.144 A 
ENDROOT
BRANCH   3  11
HETATM   11  C10 UNL     1      22.344   5.486  50.122  1.00  0.00    -0.013 C 
HETATM   12  C11 UNL     1      21.391   5.336  49.218  1.00  0.00     0.018 C 
HETATM   13  C12 UNL     1      21.328   4.214  48.246  1.00  0.00     0.387 C 
HETATM   14  C15 UNL     1      20.193   6.188  49.027  1.00  0.00     0.164 C 
HETATM   15  O1  UNL     1      20.048   3.875  47.863  1.00  0.00    -0.354 OA
HETATM   16  C13 UNL     1      19.409   4.876  47.143  1.00  0.00     0.173 C 
HETATM   17  C14 UNL     1      19.911   6.252  47.542  1.00  0.00     0.063 C 
HETATM   18  O2  UNL     1      20.278   7.414  49.668  1.00  0.00    -0.353 OA
HETATM   19  C16 UNL     1      21.227   7.657  50.643  1.00  0.00     0.136 C 
HETATM   20  C17 UNL     1      22.178   6.765  50.845  1.00  0.00     0.037 C 
BRANCH  13  21
HETATM   21  N4  UNL     1      22.138   4.422  47.072  1.00  0.00     0.111 N 
HETATM   22  H16 UNL     1      21.639   4.171  46.215  1.00  0.00     0.316 HD
HETATM   23  H17 UNL     1      23.062   3.979  47.076  1.00  0.00     0.316 HD
ENDBRANCH  13  21
ENDBRANCH   3  11
BRANCH   1  24
HETATM   24  C6  UNL     1      25.315   1.778  51.837  1.00  0.00     0.115 C 
HETATM   25  C7  UNL     1      24.262   0.843  52.344  1.00  0.00     0.034 C 
BRANCH  24  26
HETATM   26  C5  UNL     1      26.174   2.264  52.957  1.00  0.00     0.300 C 
BRANCH  26  27
HETATM   27  N2  UNL     1      27.427   1.574  53.080  1.00  0.00     0.115 N 
HETATM   28  C2  UNL     1      27.557   0.739  54.248  1.00  0.00     0.344 C 
HETATM   29  C3  UNL     1      28.989   1.146  54.358  1.00  0.00     0.089 C 
HETATM   30  C4  UNL     1      28.551   2.342  53.535  1.00  0.00     0.279 C 
BRANCH  28  31
HETATM   31  N1  UNL     1      27.323  -0.662  54.053  1.00  0.00    -0.277 NA
HETATM   32  C1  UNL     1      27.460  -1.214  52.895  1.00  0.00     0.145 C 
ENDBRANCH  28  31
ENDBRANCH  26  27
ENDBRANCH  24  26
ENDBRANCH   1  24
TORSDOF 6
ENDMDL
MODEL 7
REMARK VINA RESULT:      -7.0      1.740      2.354
REMARK  6 active torsions:
REMARK  status: ('A' for Active; 'I' for Inactive)
REMARK    1  A    between atoms: N1_2  and  C2_3 
REMARK    2  A    between atoms: N2_6  and  C5_7 
REMARK    3  A    between atoms: C5_7  and  C6_8 
REMARK    4  A    between atoms: C6_8  and  N3_10 
REMARK    5  A    between atoms: C9_12  and  C10_13 
REMARK    6  A    between atoms: C12_15  and  N4_16 
ROOT
HETATM    1  N3  UNL     1      22.990   1.212  51.891  1.00  0.00    -0.334 N 
HETATM    2  C8  UNL     1      24.270   0.873  51.793  1.00  0.00     0.106 A 
HETATM    3  C9  UNL     1      24.705   0.050  52.800  1.00  0.00     0.006 A 
HETATM    4  C18 UNL     1      23.549  -0.108  53.576  1.00  0.00     0.047 A 
HETATM    5  C19 UNL     1      23.287  -0.799  54.737  1.00  0.00     0.047 A 
HETATM    6  C20 UNL     1      24.326  -1.567  55.446  1.00  0.00     0.071 C 
HETATM    7  N5  UNL     1      22.048  -0.766  55.279  1.00  0.00    -0.246 NA
HETATM    8  C21 UNL     1      21.036  -0.076  54.732  1.00  0.00     0.235 A 
HETATM    9  N6  UNL     1      21.275   0.602  53.606  1.00  0.00    -0.223 NA
HETATM   10  C22 UNL     1      22.494   0.610  53.011  1.00  0.00     0.144 A 
ENDROOT
BRANCH   3  11
HETATM   11  C10 UNL     1      26.032  -0.496  53.020  1.00  0.00    -0.013 C 
HETATM   12  C11 UNL     1      27.103   0.163  53.430  1.00  0.00     0.018 C 
HETATM   13  C12 UNL     1      27.125   1.616  53.738  1.00  0.00     0.387 C 
HETATM   14  C15 UNL     1      28.445  -0.397  53.720  1.00  0.00     0.164 C 
HETATM   15  O1  UNL     1      28.049   1.972  54.698  1.00  0.00    -0.354 OA
HETATM   16  C13 UNL     1      29.363   1.774  54.292  1.00  0.00     0.173 C 
HETATM   17  C14 UNL     1      29.469   0.632  53.298  1.00  0.00     0.063 C 
HETATM   18  O2  UNL     1      28.636  -1.670  53.206  1.00  0.00    -0.353 OA
HETATM   19  C16 UNL     1      27.575  -2.443  52.772  1.00  0.00     0.136 C 
HETATM   20  C17 UNL     1      26.378  -1.895  52.688  1.00  0.00     0.037 C 
BRANCH  13  21
HETATM   21  N4  UNL     1      27.299   2.449  52.576  1.00  0.00     0.111 N 
HETATM   22  H16 UNL     1      26.627   2.222  51.839  1.00  0.00     0.316 HD
HETATM   23  H17 UNL     1      28.244   2.484  52.180  1.00  0.00     0.316 HD
ENDBRANCH  13  21
ENDBRANCH   3  11
BRANCH   1  24
HETATM   24  C6  UNL     1      22.122   2.042  51.076  1.00  0.00     0.115 C 
HETATM   25  C7  UNL     1      21.688   3.297  51.768  1.00  0.00     0.034 C 
BRANCH  24  26
HETATM   26  C5  UNL     1      20.940   1.225  50.674  1.00  0.00     0.300 C 
BRANCH  26  27
HETATM   27  N2  UNL     1      20.452   1.503  49.353  1.00  0.00     0.115 N 
HETATM   28  C2  UNL     1      21.047   2.645  48.706  1.00  0.00     0.344 C 
HETATM   29  C3  UNL     1      19.719   2.978  48.110  1.00  0.00     0.089 C 
HETATM   30  C4  UNL     1      19.172   2.146  49.253  1.00  0.00     0.279 C 
BRANCH  28  31
HETATM   31  N1  UNL     1      22.095   2.365  47.768  1.00  0.00    -0.277 NA
HETATM   32  C1  UNL     1      22.263   3.084  46.710  1.00  0.00     0.145 C 
ENDBRANCH  28  31
ENDBRANCH  26  27
ENDBRANCH  24  26
ENDBRANCH   1  24
TORSDOF 6
ENDMDL
MODEL 8
REMARK VINA RESULT:      -7.0      7.323     11.360
REMARK  6 active torsions:
REMARK  status: ('A' for Active; 'I' for Inactive)
REMARK    1  A    between atoms: N1_2  and  C2_3 
REMARK    2  A    between atoms: N2_6  and  C5_7 
REMARK    3  A    between atoms: C5_7  and  C6_8 
REMARK    4  A    between atoms: C6_8  and  N3_10 
REMARK    5  A    between atoms: C9_12  and  C10_13 
REMARK    6  A    between atoms: C12_15  and  N4_16 
ROOT
HETATM    1  N3  UNL     1      30.413   6.432  47.538  1.00  0.00    -0.334 N 
HETATM    2  C8  UNL     1      30.295   7.660  47.050  1.00  0.00     0.106 A 
HETATM    3  C9  UNL     1      29.018   8.159  47.103  1.00  0.00     0.006 A 
HETATM    4  C18 UNL     1      28.310   7.102  47.687  1.00  0.00     0.047 A 
HETATM    5  C19 UNL     1      26.984   6.931  48.017  1.00  0.00     0.047 A 
HETATM    6  C20 UNL     1      25.969   7.966  47.753  1.00  0.00     0.071 C 
HETATM    7  N5  UNL     1      26.571   5.771  48.578  1.00  0.00    -0.246 NA
HETATM    8  C21 UNL     1      27.405   4.753  48.835  1.00  0.00     0.235 A 
HETATM    9  N6  UNL     1      28.695   4.902  48.519  1.00  0.00    -0.223 NA
HETATM   10  C22 UNL     1      29.174   6.039  47.955  1.00  0.00     0.144 A 
ENDROOT
BRANCH   3  11
HETATM   11  C10 UNL     1      28.524   9.445  46.646  1.00  0.00    -0.013 C 
HETATM   12  C11 UNL     1      28.516  10.580  47.324  1.00  0.00     0.018 C 
HETATM   13  C12 UNL     1      29.023  10.729  48.712  1.00  0.00     0.387 C 
HETATM   14  C15 UNL     1      28.073  11.911  46.843  1.00  0.00     0.164 C 
HETATM   15  O1  UNL     1      29.512  11.985  49.000  1.00  0.00    -0.354 OA
HETATM   16  C13 UNL     1      28.534  12.971  48.976  1.00  0.00     0.173 C 
HETATM   17  C14 UNL     1      27.419  12.622  48.007  1.00  0.00     0.063 C 
HETATM   18  O2  UNL     1      27.319  11.857  45.681  1.00  0.00    -0.353 OA
HETATM   19  C16 UNL     1      27.283  10.721  44.894  1.00  0.00     0.136 C 
HETATM   20  C17 UNL     1      27.839   9.612  45.346  1.00  0.00     0.037 C 
BRANCH  13  21
HETATM   21  N4  UNL     1      28.067  10.347  49.720  1.00  0.00     0.111 N 
HETATM   22  H16 UNL     1      28.479  10.346  50.656  1.00  0.00     0.316 HD
HETATM   23  H17 UNL     1      27.569   9.465  49.562  1.00  0.00     0.316 HD
ENDBRANCH  13  21
ENDBRANCH   3  11
BRANCH   1  24
HETATM   24  C6  UNL     1      31.540   5.530  47.684  1.00  0.00     0.115 C 
HETATM   25  C7  UNL     1      32.195   5.616  49.027  1.00  0.00     0.034 C 
BRANCH  24  26
HETATM   26  C5  UNL     1      32.520   5.829  46.598  1.00  0.00     0.300 C 
BRANCH  26  27
HETATM   27  N2  UNL     1      33.189   4.672  46.073  1.00  0.00     0.115 N 
HETATM   28  C2  UNL     1      34.567   4.525  46.469  1.00  0.00     0.344 C 
HETATM   29  C3  UNL     1      34.886   4.010  45.104  1.00  0.00     0.089 C 
HETATM   30  C4  UNL     1      33.616   4.733  44.703  1.00  0.00     0.279 C 
BRANCH  28  31
HETATM   31  N1  UNL     1      34.820   3.619  47.550  1.00  0.00    -0.277 NA
HETATM   32  C1  UNL     1      34.001   2.664  47.836  1.00  0.00     0.145 C 
ENDBRANCH  28  31
ENDBRANCH  26  27
ENDBRANCH  24  26
ENDBRANCH   1  24
TORSDOF 6
ENDMDL
MODEL 9
REMARK VINA RESULT:      -7.0      3.136      6.930
REMARK  6 active torsions:
REMARK  status: ('A' for Active; 'I' for Inactive)
REMARK    1  A    between atoms: N1_2  and  C2_3 
REMARK    2  A    between atoms: N2_6  and  C5_7 
REMARK    3  A    between atoms: C5_7  and  C6_8 
REMARK    4  A    between atoms: C6_8  and  N3_10 
REMARK    5  A    between atoms: C9_12  and  C10_13 
REMARK    6  A    between atoms: C12_15  and  N4_16 
ROOT
HETATM    1  N3  UNL     1      22.574   0.871  53.227  1.00  0.00    -0.334 N 
HETATM    2  C8  UNL     1      22.208   2.032  52.699  1.00  0.00     0.106 A 
HETATM    3  C9  UNL     1      23.201   2.657  51.988  1.00  0.00     0.006 A 
HETATM    4  C18 UNL     1      24.269   1.760  52.117  1.00  0.00     0.047 A 
HETATM    5  C19 UNL     1      25.566   1.776  51.657  1.00  0.00     0.047 A 
HETATM    6  C20 UNL     1      26.107   2.897  50.869  1.00  0.00     0.071 C 
HETATM    7  N5  UNL     1      26.400   0.750  51.949  1.00  0.00    -0.246 NA
HETATM    8  C21 UNL     1      26.019  -0.306  52.682  1.00  0.00     0.235 A 
HETATM    9  N6  UNL     1      24.764  -0.336  53.138  1.00  0.00    -0.223 NA
HETATM   10  C22 UNL     1      23.878   0.660  52.881  1.00  0.00     0.144 A 
ENDROOT
BRANCH   3  11
HETATM   11  C10 UNL     1      23.162   3.935  51.301  1.00  0.00    -0.013 C 
HETATM   12  C11 UNL     1      22.702   4.168  50.083  1.00  0.00     0.018 C 
HETATM   13  C12 UNL     1      22.136   3.125  49.188  1.00  0.00     0.387 C 
HETATM   14  C15 UNL     1      22.598   5.478  49.398  1.00  0.00     0.164 C 
HETATM   15  O1  UNL     1      21.184   3.596  48.310  1.00  0.00    -0.354 OA
HETATM   16  C13 UNL     1      21.695   4.488  47.376  1.00  0.00     0.173 C 
HETATM   17  C14 UNL     1      22.885   5.250  47.930  1.00  0.00     0.063 C 
HETATM   18  O2  UNL     1      23.346   6.479  50.000  1.00  0.00    -0.353 OA
HETATM   19  C16 UNL     1      23.849   6.335  51.279  1.00  0.00     0.136 C 
HETATM   20  C17 UNL     1      23.763   5.160  51.872  1.00  0.00     0.037 C 
BRANCH  13  21
HETATM   21  N4  UNL     1      23.136   2.388  48.458  1.00  0.00     0.111 N 
HETATM   22  H16 UNL     1      24.061   2.471  48.887  1.00  0.00     0.316 HD
HETATM   23  H17 UNL     1      23.204   2.587  47.454  1.00  0.00     0.316 HD
ENDBRANCH  13  21
ENDBRANCH   3  11
BRANCH   1  24
HETATM   24  C6  UNL     1      21.877  -0.112  54.036  1.00  0.00     0.115 C 
HETATM   25  C7  UNL     1      22.115  -1.520  53.588  1.00  0.00     0.034 C 
BRANCH  24  26
HETATM   26  C5  UNL     1      20.421   0.212  54.009  1.00  0.00     0.300 C 
BRANCH  26  27
HETATM   27  N2  UNL     1      19.682  -0.479  52.991  1.00  0.00     0.115 N 
HETATM   28  C2  UNL     1      18.944   0.366  52.085  1.00  0.00     0.344 C 
HETATM   29  C3  UNL     1      17.843  -0.642  52.069  1.00  0.00     0.089 C 
HETATM   30  C4  UNL     1      18.444  -1.092  53.386  1.00  0.00     0.279 C 
BRANCH  28  31
HETATM   31  N1  UNL     1      19.564   0.629  50.820  1.00  0.00    -0.277 NA
HETATM   32  C1  UNL     1      18.922   1.205  49.860  1.00  0.00     0.145 C 
ENDBRANCH  28  31
ENDBRANCH  26  27
ENDBRANCH  24  26
ENDBRANCH   1  24
TORSDOF 6
ENDMDL
