MODEL 1
REMARK VINA RESULT:      -8.8      0.000      0.000
REMARK  1 active torsions:
REMARK  status: ('A' for Active; 'I' for Inactive)
REMARK    1  A    between atoms: C3_4  and  C4_5 
ROOT
HETATM    1  C1  UNL     1      22.826   4.593  52.701  1.00  0.00     0.101 C 
HETATM    2  C2  UNL     1      23.781   3.683  52.591  1.00  0.00     0.118 C 
HETATM    3  N1  UNL     1      23.610   2.432  51.959  1.00  0.00    -0.386 N 
HETATM    4  C3  UNL     1      23.560   1.001  52.145  1.00  0.00     0.153 C 
HETATM    5  C9  UNL     1      22.550   0.613  53.141  1.00  0.00     0.695 C 
HETATM    6  N3  UNL     1      21.551   0.292  53.904  1.00  0.00     0.048 NA
HETATM    7  C10 UNL     1      20.216   0.302  53.352  1.00  0.00     0.327 C 
HETATM    8  C11 UNL     1      20.341   0.253  51.848  1.00  0.00     0.057 C 
HETATM    9  C12 UNL     1      19.470   0.701  50.963  1.00  0.00     0.031 C 
HETATM   10  C13 UNL     1      18.096   0.355  50.626  1.00  0.00     0.029 C 
HETATM   11  C14 UNL     1      17.232  -0.421  51.261  1.00  0.00     0.003 C 
HETATM   12  C15 UNL     1      17.245  -1.170  52.509  1.00  0.00     0.017 C 
HETATM   13  C16 UNL     1      18.225  -1.366  53.405  1.00  0.00     0.085 C 
HETATM   14  N4  UNL     1      19.476  -0.827  53.841  1.00  0.00    -0.368 N 
HETATM   15  N5  UNL     1      19.874   1.745  50.126  1.00  0.00    -0.365 N 
HETATM   16  C17 UNL     1      20.680   2.854  50.474  1.00  0.00     0.107 C 
HETATM   17  C18 UNL     1      21.332   3.510  51.412  1.00  0.00     0.134 C 
HETATM   18  N6  UNL     1      22.134   4.675  51.603  1.00  0.00    -0.256 NA
HETATM   19  H2  UNL     1      23.522   2.789  50.983  1.00  0.00     0.159 HD
HETATM   20  H15 UNL     1      19.883  -1.372  54.649  1.00  0.00     0.161 HD
HETATM   21  H16 UNL     1      19.538   1.691  49.152  1.00  0.00     0.165 HD
ENDROOT
BRANCH   4  22
HETATM   22  C4  UNL     1      24.879   0.473  52.626  1.00  0.00    -0.016 A 
HETATM   23  C5  UNL     1      26.095   0.838  52.095  1.00  0.00     0.012 A 
HETATM   24  C6  UNL     1      27.300   0.342  52.543  1.00  0.00     0.020 A 
HETATM   25  C7  UNL     1      27.322  -0.570  53.574  1.00  0.00     0.116 A 
HETATM   26  N2  UNL     1      26.153  -0.937  54.103  1.00  0.00    -0.273 NA
HETATM   27  C8  UNL     1      24.978  -0.452  53.666  1.00  0.00     0.125 A 
ENDBRANCH   4  22
TORSDOF 1
ENDMDL
MODEL 2
REMARK VINA RESULT:      -8.3      2.631      6.339
REMARK  1 active torsions:
REMARK  status: ('A' for Active; 'I' for Inactive)
REMARK    1  A    between atoms: C3_4  and  C4_5 
ROOT
HETATM    1  C1  UNL     1      27.030   1.797  53.410  1.00  0.00     0.101 C 
HETATM    2  C2  UNL     1      25.925   1.070  53.355  1.00  0.00     0.118 C 
HETATM    3  N1  UNL     1      24.943   1.201  52.350  1.00  0.00    -0.386 N 
HETATM    4  C3  UNL     1      23.584   1.590  52.055  1.00  0.00     0.153 C 
HETATM    5  C9  UNL     1      23.306   2.971  52.477  1.00  0.00     0.695 C 
HETATM    6  N3  UNL     1      23.137   4.236  52.716  1.00  0.00     0.048 NA
HETATM    7  C10 UNL     1      23.655   5.201  51.775  1.00  0.00     0.327 C 
HETATM    8  C11 UNL     1      23.891   4.486  50.467  1.00  0.00     0.057 C 
HETATM    9  C12 UNL     1      24.752   4.820  49.523  1.00  0.00     0.031 C 
HETATM   10  C13 UNL     1      24.904   5.976  48.650  1.00  0.00     0.029 C 
HETATM   11  C14 UNL     1      24.298   7.152  48.680  1.00  0.00     0.003 C 
HETATM   12  C15 UNL     1      23.331   7.790  49.561  1.00  0.00     0.017 C 
HETATM   13  C16 UNL     1      22.671   7.316  50.630  1.00  0.00     0.085 C 
HETATM   14  N4  UNL     1      22.715   6.274  51.609  1.00  0.00    -0.368 N 
HETATM   15  N5  UNL     1      25.785   3.922  49.239  1.00  0.00    -0.365 N 
HETATM   16  C17 UNL     1      26.509   3.135  50.165  1.00  0.00     0.107 C 
HETATM   17  C18 UNL     1      26.731   2.811  51.422  1.00  0.00     0.134 C 
HETATM   18  N6  UNL     1      27.541   1.953  52.225  1.00  0.00    -0.256 NA
HETATM   19  H2  UNL     1      25.509   0.814  51.563  1.00  0.00     0.159 HD
HETATM   20  H15 UNL     1      21.916   6.342  52.297  1.00  0.00     0.161 HD
HETATM   21  H16 UNL     1      26.040   3.836  48.243  1.00  0.00     0.165 HD
ENDROOT
BRANCH   4  22
HETATM   22  C4  UNL     1      22.603   0.706  52.768  1.00  0.00    -0.016 A 
HETATM   23  C5  UNL     1      22.874  -0.585  53.163  1.00  0.00     0.012 A 
HETATM   24  C6  UNL     1      21.963  -1.388  53.812  1.00  0.00     0.020 A 
HETATM   25  C7  UNL     1      20.705  -0.904  54.095  1.00  0.00     0.116 A 
HETATM   26  N2  UNL     1      20.423   0.345  53.721  1.00  0.00    -0.273 NA
HETATM   27  C8  UNL     1      21.313   1.129  53.088  1.00  0.00     0.125 A 
ENDBRANCH   4  22
TORSDOF 1
ENDMDL
MODEL 3
REMARK VINA RESULT:      -8.2      2.720      6.043
REMARK  1 active torsions:
REMARK  status: ('A' for Active; 'I' for Inactive)
REMARK    1  A    between atoms: C3_4  and  C4_5 
ROOT
HETATM    1  C1  UNL     1      22.347   0.648  51.972  1.00  0.00     0.101 C 
HETATM    2  C2  UNL     1      23.441   0.587  52.715  1.00  0.00     0.118 C 
HETATM    3  N1  UNL     1      24.187   1.716  53.115  1.00  0.00    -0.386 N 
HETATM    4  C3  UNL     1      25.441   2.422  52.988  1.00  0.00     0.153 C 
HETATM    5  C9  UNL     1      25.753   2.737  51.585  1.00  0.00     0.695 C 
HETATM    6  N3  UNL     1      25.924   3.137  50.363  1.00  0.00     0.048 NA
HETATM    7  C10 UNL     1      25.189   4.288  49.893  1.00  0.00     0.327 C 
HETATM    8  C11 UNL     1      24.710   5.052  51.103  1.00  0.00     0.057 C 
HETATM    9  C12 UNL     1      23.661   5.850  51.176  1.00  0.00     0.031 C 
HETATM   10  C13 UNL     1      23.291   7.103  50.529  1.00  0.00     0.029 C 
HETATM   11  C14 UNL     1      23.849   7.731  49.507  1.00  0.00     0.003 C 
HETATM   12  C15 UNL     1      24.956   7.449  48.604  1.00  0.00     0.017 C 
HETATM   13  C16 UNL     1      25.839   6.439  48.588  1.00  0.00     0.085 C 
HETATM   14  N4  UNL     1      26.036   5.107  49.072  1.00  0.00    -0.368 N 
HETATM   15  N5  UNL     1      22.624   5.482  52.037  1.00  0.00    -0.365 N 
HETATM   16  C17 UNL     1      22.135   4.176  52.274  1.00  0.00     0.107 C 
HETATM   17  C18 UNL     1      22.191   2.893  51.983  1.00  0.00     0.134 C 
HETATM   18  N6  UNL     1      21.595   1.645  52.333  1.00  0.00    -0.256 NA
HETATM   19  H2  UNL     1      23.484   2.111  53.776  1.00  0.00     0.159 HD
HETATM   20  H15 UNL     1      26.958   4.701  48.754  1.00  0.00     0.161 HD
HETATM   21  H16 UNL     1      22.170   6.257  52.545  1.00  0.00     0.165 HD
ENDROOT
BRANCH   4  22
HETATM   22  C4  UNL     1      26.579   1.599  53.517  1.00  0.00    -0.016 A 
HETATM   23  C5  UNL     1      27.886   1.739  53.109  1.00  0.00     0.012 A 
HETATM   24  C6  UNL     1      28.921   0.974  53.600  1.00  0.00     0.020 A 
HETATM   25  C7  UNL     1      28.667   0.008  54.549  1.00  0.00     0.116 A 
HETATM   26  N2  UNL     1      27.406  -0.142  54.957  1.00  0.00    -0.273 NA
HETATM   27  C8  UNL     1      26.397   0.605  54.479  1.00  0.00     0.125 A 
ENDBRANCH   4  22
TORSDOF 1
ENDMDL
MODEL 4
REMARK VINA RESULT:      -8.1      2.449      7.321
REMARK  1 active torsions:
REMARK  status: ('A' for Active; 'I' for Inactive)
REMARK    1  A    between atoms: C3_4  and  C4_5 
ROOT
HETATM    1  C1  UNL     1      21.707   0.234  54.008  1.00  0.00     0.101 C 
HETATM    2  C2  UNL     1      21.655   0.875  52.851  1.00  0.00     0.118 C 
HETATM    3  N1  UNL     1      22.714   0.907  51.918  1.00  0.00    -0.386 N 
HETATM    4  C3  UNL     1      23.701   1.734  51.264  1.00  0.00     0.153 C 
HETATM    5  C9  UNL     1      24.560   2.430  52.233  1.00  0.00     0.695 C 
HETATM    6  N3  UNL     1      25.398   2.907  53.103  1.00  0.00     0.048 NA
HETATM    7  C10 UNL     1      26.424   2.040  53.633  1.00  0.00     0.327 C 
HETATM    8  C11 UNL     1      26.567   0.868  52.694  1.00  0.00     0.057 C 
HETATM    9  C12 UNL     1      27.005  -0.341  52.992  1.00  0.00     0.031 C 
HETATM   10  C13 UNL     1      28.274  -0.871  53.471  1.00  0.00     0.029 C 
HETATM   11  C14 UNL     1      29.341  -0.240  53.935  1.00  0.00     0.003 C 
HETATM   12  C15 UNL     1      29.678   1.150  54.207  1.00  0.00     0.017 C 
HETATM   13  C16 UNL     1      28.987   2.279  53.986  1.00  0.00     0.085 C 
HETATM   14  N4  UNL     1      27.662   2.760  53.745  1.00  0.00    -0.368 N 
HETATM   15  N5  UNL     1      26.113  -1.409  52.850  1.00  0.00    -0.365 N 
HETATM   16  C17 UNL     1      24.732  -1.411  53.152  1.00  0.00     0.107 C 
HETATM   17  C18 UNL     1      23.691  -0.758  53.628  1.00  0.00     0.134 C 
HETATM   18  N6  UNL     1      22.295  -0.917  53.875  1.00  0.00    -0.256 NA
HETATM   19  H2  UNL     1      22.663  -0.094  51.628  1.00  0.00     0.159 HD
HETATM   20  H15 UNL     1      27.633   3.811  53.640  1.00  0.00     0.161 HD
HETATM   21  H16 UNL     1      26.521  -2.285  52.490  1.00  0.00     0.165 HD
ENDROOT
BRANCH   4  22
HETATM   22  C4  UNL     1      23.048   2.787  50.418  1.00  0.00    -0.016 A 
HETATM   23  C5  UNL     1      22.977   2.737  49.044  1.00  0.00     0.012 A 
HETATM   24  C6  UNL     1      22.378   3.713  48.278  1.00  0.00     0.020 A 
HETATM   25  C7  UNL     1      21.812   4.809  48.889  1.00  0.00     0.116 A 
HETATM   26  N2  UNL     1      21.870   4.876  50.220  1.00  0.00    -0.273 NA
HETATM   27  C8  UNL     1      22.454   3.923  50.967  1.00  0.00     0.125 A 
ENDBRANCH   4  22
TORSDOF 1
ENDMDL
MODEL 5
REMARK VINA RESULT:      -8.1      3.578      6.871
REMARK  1 active torsions:
REMARK  status: ('A' for Active; 'I' for Inactive)
REMARK    1  A    between atoms: C3_4  and  C4_5 
ROOT
HETATM    1  C1  UNL     1      22.071   1.575  49.636  1.00  0.00     0.101 C 
HETATM    2  C2  UNL     1      22.636   1.370  50.815  1.00  0.00     0.118 C 
HETATM    3  N1  UNL     1      23.370   2.349  51.520  1.00  0.00    -0.386 N 
HETATM    4  C3  UNL     1      24.671   2.739  52.011  1.00  0.00     0.153 C 
HETATM    5  C9  UNL     1      25.669   2.797  50.932  1.00  0.00     0.695 C 
HETATM    6  N3  UNL     1      26.485   2.990  49.942  1.00  0.00     0.048 NA
HETATM    7  C10 UNL     1      26.374   4.206  49.170  1.00  0.00     0.327 C 
HETATM    8  C11 UNL     1      25.598   5.204  49.994  1.00  0.00     0.057 C 
HETATM    9  C12 UNL     1      24.879   6.216  49.547  1.00  0.00     0.031 C 
HETATM   10  C13 UNL     1      25.185   7.427  48.797  1.00  0.00     0.029 C 
HETATM   11  C14 UNL     1      26.293   7.782  48.168  1.00  0.00     0.003 C 
HETATM   12  C15 UNL     1      27.581   7.151  47.913  1.00  0.00     0.017 C 
HETATM   13  C16 UNL     1      28.079   5.977  48.330  1.00  0.00     0.085 C 
HETATM   14  N4  UNL     1      27.683   4.707  48.856  1.00  0.00    -0.368 N 
HETATM   15  N5  UNL     1      23.504   6.199  49.803  1.00  0.00    -0.365 N 
HETATM   16  C17 UNL     1      22.648   5.073  49.781  1.00  0.00     0.107 C 
HETATM   17  C18 UNL     1      22.505   3.783  49.559  1.00  0.00     0.134 C 
HETATM   18  N6  UNL     1      21.519   2.751  49.584  1.00  0.00    -0.256 NA
HETATM   19  H2  UNL     1      22.566   2.970  51.758  1.00  0.00     0.159 HD
HETATM   20  H15 UNL     1      28.509   4.071  49.024  1.00  0.00     0.161 HD
HETATM   21  H16 UNL     1      23.080   7.113  50.025  1.00  0.00     0.165 HD
ENDROOT
BRANCH   4  22
HETATM   22  C4  UNL     1      25.179   1.759  53.028  1.00  0.00    -0.016 A 
HETATM   23  C5  UNL     1      24.641   0.508  53.229  1.00  0.00     0.012 A 
HETATM   24  C6  UNL     1      25.113  -0.379  54.170  1.00  0.00     0.020 A 
HETATM   25  C7  UNL     1      26.179  -0.027  54.967  1.00  0.00     0.116 A 
HETATM   26  N2  UNL     1      26.715   1.181  54.788  1.00  0.00    -0.273 NA
HETATM   27  C8  UNL     1      26.254   2.047  53.869  1.00  0.00     0.125 A 
ENDBRANCH   4  22
TORSDOF 1
ENDMDL
MODEL 6
REMARK VINA RESULT:      -7.8      3.329      5.185
REMARK  1 active torsions:
REMARK  status: ('A' for Active; 'I' for Inactive)
REMARK    1  A    between atoms: C3_4  and  C4_5 
ROOT
HETATM    1  C1  UNL     1      21.840   6.871  50.815  1.00  0.00     0.101 C 
HETATM    2  C2  UNL     1      22.911   6.775  50.042  1.00  0.00     0.118 C 
HETATM    3  N1  UNL     1      23.386   5.562  49.499  1.00  0.00    -0.386 N 
HETATM    4  C3  UNL     1      24.457   4.592  49.504  1.00  0.00     0.153 C 
HETATM    5  C9  UNL     1      24.711   4.065  50.853  1.00  0.00     0.695 C 
HETATM    6  N3  UNL     1      24.808   3.506  52.020  1.00  0.00     0.048 NA
HETATM    7  C10 UNL     1      23.845   2.496  52.395  1.00  0.00     0.327 C 
HETATM    8  C11 UNL     1      23.194   1.991  51.131  1.00  0.00     0.057 C 
HETATM    9  C12 UNL     1      21.995   1.452  51.015  1.00  0.00     0.031 C 
HETATM   10  C13 UNL     1      21.369   0.246  51.541  1.00  0.00     0.029 C 
HETATM   11  C14 UNL     1      21.789  -0.597  52.470  1.00  0.00     0.003 C 
HETATM   12  C15 UNL     1      22.944  -0.662  53.355  1.00  0.00     0.017 C 
HETATM   13  C16 UNL     1      24.027   0.126  53.443  1.00  0.00     0.085 C 
HETATM   14  N4  UNL     1      24.504   1.428  53.094  1.00  0.00    -0.368 N 
HETATM   15  N5  UNL     1      21.051   2.128  50.236  1.00  0.00    -0.365 N 
HETATM   16  C17 UNL     1      20.857   3.526  50.155  1.00  0.00     0.107 C 
HETATM   17  C18 UNL     1      21.197   4.727  50.576  1.00  0.00     0.134 C 
HETATM   18  N6  UNL     1      20.884   6.106  50.380  1.00  0.00    -0.256 NA
HETATM   19  H2  UNL     1      22.604   5.404  48.827  1.00  0.00     0.159 HD
HETATM   20  H15 UNL     1      25.496   1.588  53.418  1.00  0.00     0.161 HD
HETATM   21  H16 UNL     1      20.431   1.530  49.667  1.00  0.00     0.165 HD
ENDROOT
BRANCH   4  22
HETATM   22  C4  UNL     1      25.739   5.203  49.021  1.00  0.00    -0.016 A 
HETATM   23  C5  UNL     1      26.946   4.542  48.996  1.00  0.00     0.012 A 
HETATM   24  C6  UNL     1      28.118   5.115  48.555  1.00  0.00     0.020 A 
HETATM   25  C7  UNL     1      28.115   6.418  48.108  1.00  0.00     0.116 A 
HETATM   26  N2  UNL     1      26.955   7.076  48.124  1.00  0.00    -0.273 NA
HETATM   27  C8  UNL     1      25.811   6.516  48.554  1.00  0.00     0.125 A 
ENDBRANCH   4  22
TORSDOF 1
ENDMDL
MODEL 7
REMARK VINA RESULT:      -7.7      2.067      4.638
REMARK  1 active torsions:
REMARK  status: ('A' for Active; 'I' for Inactive)
REMARK    1  A    between atoms: C3_4  and  C4_5 
ROOT
HETATM    1  C1  UNL     1      26.429  -0.222  51.822  1.00  0.00     0.101 C 
HETATM    2  C2  UNL     1      26.415   1.090  51.642  1.00  0.00     0.118 C 
HETATM    3  N1  UNL     1      25.362   1.932  52.061  1.00  0.00    -0.386 N 
HETATM    4  C3  UNL     1      24.293   2.804  51.634  1.00  0.00     0.153 C 
HETATM    5  C9  UNL     1      23.358   2.121  50.727  1.00  0.00     0.695 C 
HETATM    6  N3  UNL     1      22.470   1.452  50.058  1.00  0.00     0.048 NA
HETATM    7  C10 UNL     1      21.543   0.608  50.776  1.00  0.00     0.327 C 
HETATM    8  C11 UNL     1      21.534   1.056  52.217  1.00  0.00     0.057 C 
HETATM    9  C12 UNL     1      21.230   0.327  53.274  1.00  0.00     0.031 C 
HETATM   10  C13 UNL     1      20.025  -0.357  53.724  1.00  0.00     0.029 C 
HETATM   11  C14 UNL     1      18.894  -0.600  53.083  1.00  0.00     0.003 C 
HETATM   12  C15 UNL     1      18.405  -0.365  51.731  1.00  0.00     0.017 C 
HETATM   13  C16 UNL     1      18.968   0.273  50.693  1.00  0.00     0.085 C 
HETATM   14  N4  UNL     1      20.233   0.718  50.197  1.00  0.00    -0.368 N 
HETATM   15  N5  UNL     1      22.234   0.106  54.222  1.00  0.00    -0.365 N 
HETATM   16  C17 UNL     1      23.607  -0.126  53.971  1.00  0.00     0.107 C 
HETATM   17  C18 UNL     1      24.567  -0.296  53.086  1.00  0.00     0.134 C 
HETATM   18  N6  UNL     1      25.972  -0.534  52.998  1.00  0.00    -0.256 NA
HETATM   19  H2  UNL     1      25.524   1.845  53.088  1.00  0.00     0.159 HD
HETATM   20  H15 UNL     1      20.146   1.196  49.259  1.00  0.00     0.161 HD
HETATM   21  H16 UNL     1      21.927   0.112  55.207  1.00  0.00     0.165 HD
ENDROOT
BRANCH   4  22
HETATM   22  C4  UNL     1      24.830   3.996  50.897  1.00  0.00    -0.016 A 
HETATM   23  C5  UNL     1      25.840   3.934  49.964  1.00  0.00     0.012 A 
HETATM   24  C6  UNL     1      26.328   5.036  49.298  1.00  0.00     0.020 A 
HETATM   25  C7  UNL     1      25.798   6.281  49.557  1.00  0.00     0.116 A 
HETATM   26  N2  UNL     1      24.817   6.362  50.457  1.00  0.00    -0.273 NA
HETATM   27  C8  UNL     1      24.341   5.286  51.107  1.00  0.00     0.125 A 
ENDBRANCH   4  22
TORSDOF 1
ENDMDL
MODEL 8
REMARK VINA RESULT:      -7.6      2.905      7.358
REMARK  1 active torsions:
REMARK  status: ('A' for Active; 'I' for Inactive)
REMARK    1  A    between atoms: C3_4  and  C4_5 
ROOT
HETATM    1  C1  UNL     1      25.385   1.268  53.366  1.00  0.00     0.101 C 
HETATM    2  C2  UNL     1      24.181   1.024  52.872  1.00  0.00     0.118 C 
HETATM    3  N1  UNL     1      23.694   1.581  51.670  1.00  0.00    -0.386 N 
HETATM    4  C3  UNL     1      22.729   2.478  51.077  1.00  0.00     0.153 C 
HETATM    5  C9  UNL     1      22.821   3.832  51.643  1.00  0.00     0.695 C 
HETATM    6  N3  UNL     1      23.029   5.048  52.046  1.00  0.00     0.048 NA
HETATM    7  C10 UNL     1      24.126   5.797  51.478  1.00  0.00     0.327 C 
HETATM    8  C11 UNL     1      24.519   5.125  50.185  1.00  0.00     0.057 C 
HETATM    9  C12 UNL     1      25.701   5.159  49.599  1.00  0.00     0.031 C 
HETATM   10  C13 UNL     1      26.520   6.219  49.025  1.00  0.00     0.029 C 
HETATM   11  C14 UNL     1      26.382   7.533  49.092  1.00  0.00     0.003 C 
HETATM   12  C15 UNL     1      25.461   8.439  49.763  1.00  0.00     0.017 C 
HETATM   13  C16 UNL     1      24.366   8.191  50.499  1.00  0.00     0.085 C 
HETATM   14  N4  UNL     1      23.723   7.156  51.248  1.00  0.00    -0.368 N 
HETATM   15  N5  UNL     1      26.394   3.952  49.463  1.00  0.00    -0.365 N 
HETATM   16  C17 UNL     1      26.455   2.895  50.400  1.00  0.00     0.107 C 
HETATM   17  C18 UNL     1      26.125   2.436  51.590  1.00  0.00     0.134 C 
HETATM   18  N6  UNL     1      26.278   1.287  52.422  1.00  0.00    -0.256 NA
HETATM   19  H2  UNL     1      24.317   1.055  51.020  1.00  0.00     0.159 HD
HETATM   20  H15 UNL     1      22.818   7.483  51.682  1.00  0.00     0.161 HD
HETATM   21  H16 UNL     1      26.917   3.835  48.581  1.00  0.00     0.165 HD
ENDROOT
BRANCH   4  22
HETATM   22  C4  UNL     1      21.328   1.996  51.313  1.00  0.00    -0.016 A 
HETATM   23  C5  UNL     1      20.867   0.754  50.940  1.00  0.00     0.012 A 
HETATM   24  C6  UNL     1      19.576   0.326  51.158  1.00  0.00     0.020 A 
HETATM   25  C7  UNL     1      18.675   1.161  51.780  1.00  0.00     0.116 A 
HETATM   26  N2  UNL     1      19.102   2.369  52.151  1.00  0.00    -0.273 NA
HETATM   27  C8  UNL     1      20.362   2.786  51.938  1.00  0.00     0.125 A 
ENDBRANCH   4  22
TORSDOF 1
ENDMDL
MODEL 9
REMARK VINA RESULT:      -7.6      2.715      6.360
REMARK  1 active torsions:
REMARK  status: ('A' for Active; 'I' for Inactive)
REMARK    1  A    between atoms: C3_4  and  C4_5 
ROOT
HETATM    1  C1  UNL     1      19.339   3.441  50.263  1.00  0.00     0.101 C 
HETATM    2  C2  UNL     1      19.746   2.672  51.261  1.00  0.00     0.118 C 
HETATM    3  N1  UNL     1      20.887   2.939  52.047  1.00  0.00    -0.386 N 
HETATM    4  C3  UNL     1      22.216   2.501  52.405  1.00  0.00     0.153 C 
HETATM    5  C9  UNL     1      23.085   2.367  51.226  1.00  0.00     0.695 C 
HETATM    6  N3  UNL     1      23.867   2.408  50.191  1.00  0.00     0.048 NA
HETATM    7  C10 UNL     1      24.371   3.686  49.745  1.00  0.00     0.327 C 
HETATM    8  C11 UNL     1      24.223   4.662  50.886  1.00  0.00     0.057 C 
HETATM    9  C12 UNL     1      24.106   5.974  50.800  1.00  0.00     0.031 C 
HETATM   10  C13 UNL     1      24.967   7.041  50.307  1.00  0.00     0.029 C 
HETATM   11  C14 UNL     1      26.090   6.976  49.611  1.00  0.00     0.003 C 
HETATM   12  C15 UNL     1      26.876   5.901  49.021  1.00  0.00     0.017 C 
HETATM   13  C16 UNL     1      26.721   4.569  49.077  1.00  0.00     0.085 C 
HETATM   14  N4  UNL     1      25.747   3.559  49.354  1.00  0.00    -0.368 N 
HETATM   15  N5  UNL     1      22.916   6.551  51.255  1.00  0.00    -0.365 N 
HETATM   16  C17 UNL     1      21.608   6.033  51.111  1.00  0.00     0.107 C 
HETATM   17  C18 UNL     1      20.828   5.089  50.625  1.00  0.00     0.134 C 
HETATM   18  N6  UNL     1      19.456   4.699  50.567  1.00  0.00    -0.256 NA
HETATM   19  H2  UNL     1      20.512   3.777  52.543  1.00  0.00     0.159 HD
HETATM   20  H15 UNL     1      26.141   2.585  49.241  1.00  0.00     0.161 HD
HETATM   21  H16 UNL     1      23.017   7.454  51.744  1.00  0.00     0.165 HD
ENDROOT
BRANCH   4  22
HETATM   22  C4  UNL     1      22.179   1.161  53.080  1.00  0.00    -0.016 A 
HETATM   23  C5  UNL     1      21.122   0.709  53.837  1.00  0.00     0.012 A 
HETATM   24  C6  UNL     1      21.103  -0.521  54.455  1.00  0.00     0.020 A 
HETATM   25  C7  UNL     1      22.183  -1.367  54.329  1.00  0.00     0.116 A 
HETATM   26  N2  UNL     1      23.217  -0.947  53.599  1.00  0.00    -0.273 NA
HETATM   27  C8  UNL     1      23.235   0.254  52.995  1.00  0.00     0.125 A 
ENDBRANCH   4  22
TORSDOF 1
ENDMDL
