MODEL 1
REMARK VINA RESULT:      -9.5      0.000      0.000
REMARK  4 active torsions:
REMARK  status: ('A' for Active; 'I' for Inactive)
REMARK    1  A    between atoms: C3_3  and  C4_5 
REMARK    2  A    between atoms: C6_7  and  N1_8 
REMARK    3  A    between atoms: N1_8  and  C7_9 
REMARK    4  A    between atoms: C12_15  and  C13_16 
ROOT
HETATM    1  N1  UNL     1      20.880   2.002  51.414  1.00  0.00    -0.212 N 
HETATM    2  H6  UNL     1      20.249   2.748  51.788  1.00  0.00     0.178 HD
ENDROOT
BRANCH   1   3
HETATM    3  C6  UNL     1      20.449   0.658  51.506  1.00  0.00     0.151 C 
HETATM    4  C5  UNL     1      21.153   0.013  52.701  1.00  0.00     0.010 C 
HETATM    5  C4  UNL     1      20.514  -0.930  53.443  1.00  0.00    -0.035 C 
HETATM    6  C23 UNL     1      19.395  -1.683  53.913  1.00  0.00     0.153 C 
HETATM    7  N6  UNL     1      18.067  -1.493  53.777  1.00  0.00    -0.416 N 
HETATM    8  C22 UNL     1      17.104  -1.401  52.798  1.00  0.00     0.144 C 
HETATM    9  H28 UNL     1      17.668  -1.177  54.750  1.00  0.00     0.153 HD
HETATM   10  C21 UNL     1      16.958  -0.150  52.017  1.00  0.00     0.291 C 
HETATM   11  N5  UNL     1      17.930   0.257  51.013  1.00  0.00     0.088 NA
HETATM   12  C19 UNL     1      19.087   0.349  51.765  1.00  0.00     0.301 C 
HETATM   13  C20 UNL     1      17.465   1.452  50.362  1.00  0.00     0.310 C 
BRANCH   5  14
HETATM   14  C3  UNL     1      21.664  -1.173  54.382  1.00  0.00    -0.038 A 
HETATM   15  C2  UNL     1      23.089  -0.863  54.396  1.00  0.00     0.028 A 
HETATM   16  C1  UNL     1      23.372  -1.417  55.546  1.00  0.00     0.011 A 
HETATM   17  O1  UNL     1      22.199  -1.599  55.409  1.00  0.00     0.000 OA
ENDBRANCH   5  14
ENDBRANCH   1   3
BRANCH   1  18
HETATM   18  C7  UNL     1      22.120   2.483  50.851  1.00  0.00     0.740 A 
HETATM   19  N2  UNL     1      22.125   3.367  49.808  1.00  0.00    -0.072 NA
HETATM   20  C8  UNL     1      23.301   3.791  49.313  1.00  0.00     0.168 A 
HETATM   21  C9  UNL     1      24.502   3.359  49.833  1.00  0.00     0.077 A 
HETATM   22  C10 UNL     1      25.865   3.573  49.593  1.00  0.00     0.035 A 
HETATM   23  N3  UNL     1      24.428   2.493  50.855  1.00  0.00    -0.216 N 
HETATM   24  C11 UNL     1      26.563   2.793  50.523  1.00  0.00     0.034 A 
HETATM   25  C12 UNL     1      25.644   2.127  51.301  1.00  0.00     0.065 A 
HETATM   26  N4  UNL     1      23.288   2.060  51.360  1.00  0.00     0.026 NA
BRANCH  25  27
HETATM   27  C13 UNL     1      26.058   1.236  52.377  1.00  0.00    -0.033 C 
HETATM   28  C14 UNL     1      26.063   1.662  53.632  1.00  0.00    -0.017 C 
HETATM   29  C15 UNL     1      26.489   0.732  54.708  1.00  0.00     0.028 C 
HETATM   30  C16 UNL     1      27.721  -0.054  54.384  1.00  0.00     0.004 C 
HETATM   31  C17 UNL     1      27.776  -0.479  52.935  1.00  0.00     0.005 C 
HETATM   32  C18 UNL     1      26.493  -0.174  52.203  1.00  0.00     0.040 C 
ENDBRANCH  25  27
ENDBRANCH   1  18
TORSDOF 4
ENDMDL
MODEL 2
REMARK VINA RESULT:      -9.3      3.810      7.787
REMARK  4 active torsions:
REMARK  status: ('A' for Active; 'I' for Inactive)
REMARK    1  A    between atoms: C3_3  and  C4_5 
REMARK    2  A    between atoms: C6_7  and  N1_8 
REMARK    3  A    between atoms: N1_8  and  C7_9 
REMARK    4  A    between atoms: C12_15  and  C13_16 
ROOT
HETATM    1  N1  UNL     1      24.952   3.478  49.510  1.00  0.00    -0.212 N 
HETATM    2  H6  UNL     1      25.107   3.014  48.585  1.00  0.00     0.178 HD
ENDROOT
BRANCH   1   3
HETATM    3  C6  UNL     1      25.298   4.844  49.635  1.00  0.00     0.151 C 
HETATM    4  C5  UNL     1      26.724   5.024  49.110  1.00  0.00     0.010 C 
HETATM    5  C4  UNL     1      27.078   6.172  48.475  1.00  0.00    -0.035 C 
HETATM    6  C23 UNL     1      26.857   7.415  47.807  1.00  0.00     0.153 C 
HETATM    7  N6  UNL     1      25.741   7.968  47.290  1.00  0.00    -0.416 N 
HETATM    8  C22 UNL     1      24.492   8.396  47.678  1.00  0.00     0.144 C 
HETATM    9  H28 UNL     1      25.819   7.929  46.195  1.00  0.00     0.153 HD
HETATM   10  C21 UNL     1      23.412   7.411  47.916  1.00  0.00     0.291 C 
HETATM   11  N5  UNL     1      23.404   6.531  49.076  1.00  0.00     0.088 NA
HETATM   12  C19 UNL     1      24.590   5.841  48.911  1.00  0.00     0.301 C 
HETATM   13  C20 UNL     1      22.186   5.766  49.081  1.00  0.00     0.310 C 
BRANCH   5  14
HETATM   14  C3  UNL     1      28.510   5.770  48.246  1.00  0.00    -0.038 A 
HETATM   15  C2  UNL     1      29.726   6.437  47.797  1.00  0.00     0.028 A 
HETATM   16  C1  UNL     1      30.523   5.403  47.868  1.00  0.00     0.011 A 
HETATM   17  O1  UNL     1      29.461   4.985  48.224  1.00  0.00     0.000 OA
ENDBRANCH   5  14
ENDBRANCH   1   3
BRANCH   1  18
HETATM   18  C7  UNL     1      24.397   2.622  50.532  1.00  0.00     0.740 A 
HETATM   19  N2  UNL     1      23.051   2.591  50.770  1.00  0.00    -0.072 NA
HETATM   20  C8  UNL     1      22.573   1.779  51.730  1.00  0.00     0.168 A 
HETATM   21  C9  UNL     1      23.407   0.977  52.479  1.00  0.00     0.077 A 
HETATM   22  C10 UNL     1      23.281   0.042  53.514  1.00  0.00     0.035 A 
HETATM   23  N3  UNL     1      24.716   1.054  52.195  1.00  0.00    -0.216 N 
HETATM   24  C11 UNL     1      24.574  -0.408  53.807  1.00  0.00     0.034 A 
HETATM   25  C12 UNL     1      25.454   0.238  52.969  1.00  0.00     0.065 A 
HETATM   26  N4  UNL     1      25.212   1.842  51.259  1.00  0.00     0.026 NA
BRANCH  25  27
HETATM   27  C13 UNL     1      26.886  -0.025  53.018  1.00  0.00    -0.033 C 
HETATM   28  C14 UNL     1      27.337  -1.271  53.006  1.00  0.00    -0.017 C 
HETATM   29  C15 UNL     1      28.802  -1.508  53.056  1.00  0.00     0.028 C 
HETATM   30  C16 UNL     1      29.524  -0.668  54.062  1.00  0.00     0.004 C 
HETATM   31  C17 UNL     1      28.970   0.736  54.152  1.00  0.00     0.005 C 
HETATM   32  C18 UNL     1      27.948   1.014  53.079  1.00  0.00     0.040 C 
ENDBRANCH  25  27
ENDBRANCH   1  18
TORSDOF 4
ENDMDL
MODEL 3
REMARK VINA RESULT:      -8.9      2.895      6.556
REMARK  4 active torsions:
REMARK  status: ('A' for Active; 'I' for Inactive)
REMARK    1  A    between atoms: C3_3  and  C4_5 
REMARK    2  A    between atoms: C6_7  and  N1_8 
REMARK    3  A    between atoms: N1_8  and  C7_9 
REMARK    4  A    between atoms: C12_15  and  C13_16 
ROOT
HETATM    1  N1  UNL     1      22.914   2.614  50.666  1.00  0.00    -0.212 N 
HETATM    2  H6  UNL     1      22.998   2.165  49.725  1.00  0.00     0.178 HD
ENDROOT
BRANCH   1   3
HETATM    3  C6  UNL     1      23.155   4.005  50.763  1.00  0.00     0.151 C 
HETATM    4  C5  UNL     1      24.504   4.301  50.102  1.00  0.00     0.010 C 
HETATM    5  C4  UNL     1      24.697   5.472  49.441  1.00  0.00    -0.035 C 
HETATM    6  C23 UNL     1      24.310   6.690  48.803  1.00  0.00     0.153 C 
HETATM    7  N6  UNL     1      23.107   7.147  48.401  1.00  0.00    -0.416 N 
HETATM    8  C22 UNL     1      21.870   7.471  48.911  1.00  0.00     0.144 C 
HETATM    9  H28 UNL     1      23.080   7.111  47.304  1.00  0.00     0.153 HD
HETATM   10  C21 UNL     1      20.904   6.400  49.249  1.00  0.00     0.291 C 
HETATM   11  N5  UNL     1      21.083   5.527  50.400  1.00  0.00     0.088 NA
HETATM   12  C19 UNL     1      22.301   4.937  50.117  1.00  0.00     0.301 C 
HETATM   13  C20 UNL     1      19.939   4.663  50.520  1.00  0.00     0.310 C 
BRANCH   5  14
HETATM   14  C3  UNL     1      26.128   5.189  49.071  1.00  0.00    -0.038 A 
HETATM   15  C2  UNL     1      27.226   5.944  48.479  1.00  0.00     0.028 A 
HETATM   16  C1  UNL     1      28.116   4.987  48.491  1.00  0.00     0.011 A 
HETATM   17  O1  UNL     1      27.140   4.491  48.968  1.00  0.00     0.000 OA
ENDBRANCH   5  14
ENDBRANCH   1   3
BRANCH   1  18
HETATM   18  C7  UNL     1      22.556   1.714  51.737  1.00  0.00     0.740 A 
HETATM   19  N2  UNL     1      21.247   1.502  52.071  1.00  0.00    -0.072 NA
HETATM   20  C8  UNL     1      20.955   0.655  53.074  1.00  0.00     0.168 A 
HETATM   21  C9  UNL     1      21.943  -0.004  53.774  1.00  0.00     0.077 A 
HETATM   22  C10 UNL     1      22.020  -0.921  54.830  1.00  0.00     0.035 A 
HETATM   23  N3  UNL     1      23.205   0.248  53.397  1.00  0.00    -0.216 N 
HETATM   24  C11 UNL     1      23.381  -1.179  55.036  1.00  0.00     0.034 A 
HETATM   25  C12 UNL     1      24.102  -0.437  54.129  1.00  0.00     0.065 A 
HETATM   26  N4  UNL     1      23.520   1.075  52.416  1.00  0.00     0.026 NA
BRANCH  25  27
HETATM   27  C13 UNL     1      25.557  -0.496  54.081  1.00  0.00    -0.033 C 
HETATM   28  C14 UNL     1      26.282   0.181  54.959  1.00  0.00    -0.017 C 
HETATM   29  C15 UNL     1      27.763   0.101  54.886  1.00  0.00     0.028 C 
HETATM   30  C16 UNL     1      28.315   0.223  53.500  1.00  0.00     0.004 C 
HETATM   31  C17 UNL     1      27.456  -0.473  52.469  1.00  0.00     0.005 C 
HETATM   32  C18 UNL     1      26.351  -1.281  53.100  1.00  0.00     0.040 C 
ENDBRANCH  25  27
ENDBRANCH   1  18
TORSDOF 4
ENDMDL
MODEL 4
REMARK VINA RESULT:      -8.8      3.502      6.287
REMARK  4 active torsions:
REMARK  status: ('A' for Active; 'I' for Inactive)
REMARK    1  A    between atoms: C3_3  and  C4_5 
REMARK    2  A    between atoms: C6_7  and  N1_8 
REMARK    3  A    between atoms: N1_8  and  C7_9 
REMARK    4  A    between atoms: C12_15  and  C13_16 
ROOT
HETATM    1  N1  UNL     1      25.592   3.357  51.443  1.00  0.00    -0.212 N 
HETATM    2  H6  UNL     1      26.185   3.791  52.188  1.00  0.00     0.178 HD
ENDROOT
BRANCH   1   3
HETATM    3  C6  UNL     1      25.350   1.966  51.512  1.00  0.00     0.151 C 
HETATM    4  C5  UNL     1      26.577   1.299  52.137  1.00  0.00     0.010 C 
HETATM    5  C4  UNL     1      26.431   0.207  52.932  1.00  0.00    -0.035 C 
HETATM    6  C23 UNL     1      25.721  -0.734  53.738  1.00  0.00     0.153 C 
HETATM    7  N6  UNL     1      24.476  -0.711  54.255  1.00  0.00    -0.416 N 
HETATM    8  C22 UNL     1      23.161  -0.648  53.853  1.00  0.00     0.144 C 
HETATM    9  H28 UNL     1      24.561  -0.555  55.339  1.00  0.00     0.153 HD
HETATM   10  C21 UNL     1      22.578   0.647  53.429  1.00  0.00     0.291 C 
HETATM   11  N5  UNL     1      22.931   1.283  52.169  1.00  0.00     0.088 NA
HETATM   12  C19 UNL     1      24.296   1.451  52.313  1.00  0.00     0.301 C 
HETATM   13  C20 UNL     1      22.132   2.467  51.996  1.00  0.00     0.310 C 
BRANCH   5  14
HETATM   14  C3  UNL     1      27.902   0.024  53.191  1.00  0.00    -0.038 A 
HETATM   15  C2  UNL     1      28.816  -1.108  53.286  1.00  0.00     0.028 A 
HETATM   16  C1  UNL     1      29.904  -0.428  53.536  1.00  0.00     0.011 A 
HETATM   17  O1  UNL     1      29.052   0.403  53.428  1.00  0.00     0.000 OA
ENDBRANCH   5  14
ENDBRANCH   1   3
BRANCH   1  18
HETATM   18  C7  UNL     1      25.107   4.279  50.441  1.00  0.00     0.740 A 
HETATM   19  N2  UNL     1      23.792   4.285  50.067  1.00  0.00    -0.072 NA
HETATM   20  C8  UNL     1      23.381   5.158  49.131  1.00  0.00     0.168 A 
HETATM   21  C9  UNL     1      24.252   6.049  48.541  1.00  0.00     0.077 A 
HETATM   22  C10 UNL     1      24.192   7.063  47.577  1.00  0.00     0.035 A 
HETATM   23  N3  UNL     1      25.528   5.992  48.953  1.00  0.00    -0.216 N 
HETATM   24  C11 UNL     1      25.488   7.579  47.459  1.00  0.00     0.034 A 
HETATM   25  C12 UNL     1      26.305   6.894  48.328  1.00  0.00     0.065 A 
HETATM   26  N4  UNL     1      25.959   5.144  49.869  1.00  0.00     0.026 NA
BRANCH  25  27
HETATM   27  C13 UNL     1      27.723   7.208  48.450  1.00  0.00    -0.033 C 
HETATM   28  C14 UNL     1      28.108   8.398  48.888  1.00  0.00    -0.017 C 
HETATM   29  C15 UNL     1      29.559   8.689  49.004  1.00  0.00     0.028 C 
HETATM   30  C16 UNL     1      30.368   8.244  47.825  1.00  0.00     0.004 C 
HETATM   31  C17 UNL     1      29.891   6.927  47.257  1.00  0.00     0.005 C 
HETATM   32  C18 UNL     1      28.837   6.282  48.121  1.00  0.00     0.040 C 
ENDBRANCH  25  27
ENDBRANCH   1  18
TORSDOF 4
ENDMDL
MODEL 5
REMARK VINA RESULT:      -8.8      3.974      6.916
REMARK  4 active torsions:
REMARK  status: ('A' for Active; 'I' for Inactive)
REMARK    1  A    between atoms: C3_3  and  C4_5 
REMARK    2  A    between atoms: C6_7  and  N1_8 
REMARK    3  A    between atoms: N1_8  and  C7_9 
REMARK    4  A    between atoms: C12_15  and  C13_16 
ROOT
HETATM    1  N1  UNL     1      26.469   2.872  50.548  1.00  0.00    -0.212 N 
HETATM    2  H6  UNL     1      26.984   2.065  50.126  1.00  0.00     0.178 HD
ENDROOT
BRANCH   1   3
HETATM    3  C6  UNL     1      25.806   2.667  51.781  1.00  0.00     0.151 C 
HETATM    4  C5  UNL     1      24.453   2.013  51.491  1.00  0.00     0.010 C 
HETATM    5  C4  UNL     1      23.927   1.116  52.366  1.00  0.00    -0.035 C 
HETATM    6  C23 UNL     1      23.937   0.208  53.468  1.00  0.00     0.153 C 
HETATM    7  N6  UNL     1      24.951  -0.336  54.170  1.00  0.00    -0.416 N 
HETATM    8  C22 UNL     1      26.011   0.036  54.965  1.00  0.00     0.144 C 
HETATM    9  H28 UNL     1      25.021  -1.398  53.898  1.00  0.00     0.153 HD
HETATM   10  C21 UNL     1      27.251   0.564  54.349  1.00  0.00     0.291 C 
HETATM   11  N5  UNL     1      27.316   1.887  53.745  1.00  0.00     0.088 NA
HETATM   12  C19 UNL     1      26.350   1.794  52.761  1.00  0.00     0.301 C 
HETATM   13  C20 UNL     1      28.667   2.149  53.326  1.00  0.00     0.310 C 
BRANCH   5  14
HETATM   14  C3  UNL     1      22.665   0.879  51.580  1.00  0.00    -0.038 A 
HETATM   15  C2  UNL     1      21.275   0.577  51.898  1.00  0.00     0.028 A 
HETATM   16  C1  UNL     1      20.828   0.520  50.671  1.00  0.00     0.011 A 
HETATM   17  O1  UNL     1      21.990   0.771  50.553  1.00  0.00     0.000 OA
ENDBRANCH   5  14
ENDBRANCH   1   3
BRANCH   1  18
HETATM   18  C7  UNL     1      26.521   4.093  49.779  1.00  0.00     0.740 A 
HETATM   19  N2  UNL     1      25.386   4.807  49.512  1.00  0.00    -0.072 NA
HETATM   20  C8  UNL     1      25.478   5.940  48.792  1.00  0.00     0.168 A 
HETATM   21  C9  UNL     1      26.688   6.399  48.319  1.00  0.00     0.077 A 
HETATM   22  C10 UNL     1      27.156   7.488  47.573  1.00  0.00     0.035 A 
HETATM   23  N3  UNL     1      27.763   5.653  48.616  1.00  0.00    -0.216 N 
HETATM   24  C11 UNL     1      28.542   7.329  47.458  1.00  0.00     0.034 A 
HETATM   25  C12 UNL     1      28.898   6.175  48.118  1.00  0.00     0.065 A 
HETATM   26  N4  UNL     1      27.701   4.537  49.319  1.00  0.00     0.026 NA
BRANCH  25  27
HETATM   27  C13 UNL     1      30.285   5.736  48.191  1.00  0.00    -0.033 C 
HETATM   28  C14 UNL     1      31.129   6.324  49.027  1.00  0.00    -0.017 C 
HETATM   29  C15 UNL     1      32.536   5.854  49.081  1.00  0.00     0.028 C 
HETATM   30  C16 UNL     1      33.156   5.625  47.738  1.00  0.00     0.004 C 
HETATM   31  C17 UNL     1      32.185   5.030  46.743  1.00  0.00     0.005 C 
HETATM   32  C18 UNL     1      30.880   4.637  47.387  1.00  0.00     0.040 C 
ENDBRANCH  25  27
ENDBRANCH   1  18
TORSDOF 4
ENDMDL
MODEL 6
REMARK VINA RESULT:      -8.7      2.752      5.320
REMARK  4 active torsions:
REMARK  status: ('A' for Active; 'I' for Inactive)
REMARK    1  A    between atoms: C3_3  and  C4_5 
REMARK    2  A    between atoms: C6_7  and  N1_8 
REMARK    3  A    between atoms: N1_8  and  C7_9 
REMARK    4  A    between atoms: C12_15  and  C13_16 
ROOT
HETATM    1  N1  UNL     1      23.537   2.685  52.284  1.00  0.00    -0.212 N 
HETATM    2  H6  UNL     1      23.767   3.328  53.076  1.00  0.00     0.178 HD
ENDROOT
BRANCH   1   3
HETATM    3  C6  UNL     1      23.693   1.294  52.488  1.00  0.00     0.151 C 
HETATM    4  C5  UNL     1      25.050   1.060  53.154  1.00  0.00     0.010 C 
HETATM    5  C4  UNL     1      25.206   0.051  54.051  1.00  0.00    -0.035 C 
HETATM    6  C23 UNL     1      24.778  -0.970  54.954  1.00  0.00     0.153 C 
HETATM    7  N6  UNL     1      23.570  -1.246  55.486  1.00  0.00    -0.416 N 
HETATM    8  C22 UNL     1      22.295  -1.591  55.100  1.00  0.00     0.144 C 
HETATM    9  H28 UNL     1      23.596  -0.970  56.549  1.00  0.00     0.153 HD
HETATM   10  C21 UNL     1      21.378  -0.558  54.565  1.00  0.00     0.291 C 
HETATM   11  N5  UNL     1      21.554   0.029  53.244  1.00  0.00     0.088 NA
HETATM   12  C19 UNL     1      22.816   0.584  53.351  1.00  0.00     0.301 C 
HETATM   13  C20 UNL     1      20.458   0.920  52.973  1.00  0.00     0.310 C 
BRANCH   5  14
HETATM   14  C3  UNL     1      26.666   0.312  54.304  1.00  0.00    -0.038 A 
HETATM   15  C2  UNL     1      27.923  -0.326  53.933  1.00  0.00     0.028 A 
HETATM   16  C1  UNL     1      28.724   0.506  54.547  1.00  0.00     0.011 A 
HETATM   17  O1  UNL     1      27.628   0.926  54.773  1.00  0.00     0.000 OA
ENDBRANCH   5  14
ENDBRANCH   1   3
BRANCH   1  18
HETATM   18  C7  UNL     1      23.087   3.344  51.080  1.00  0.00     0.740 A 
HETATM   19  N2  UNL     1      21.889   3.022  50.505  1.00  0.00    -0.072 NA
HETATM   20  C8  UNL     1      21.506   3.660  49.385  1.00  0.00     0.168 A 
HETATM   21  C9  UNL     1      22.290   4.632  48.803  1.00  0.00     0.077 A 
HETATM   22  C10 UNL     1      22.225   5.477  47.688  1.00  0.00     0.035 A 
HETATM   23  N3  UNL     1      23.453   4.901  49.416  1.00  0.00    -0.216 N 
HETATM   24  C11 UNL     1      23.400   6.238  47.694  1.00  0.00     0.034 A 
HETATM   25  C12 UNL     1      24.152   5.861  48.783  1.00  0.00     0.065 A 
HETATM   26  N4  UNL     1      23.854   4.290  50.516  1.00  0.00     0.026 NA
BRANCH  25  27
HETATM   27  C13 UNL     1      25.437   6.483  49.076  1.00  0.00    -0.033 C 
HETATM   28  C14 UNL     1      25.486   7.700  49.598  1.00  0.00    -0.017 C 
HETATM   29  C15 UNL     1      26.809   8.307  49.887  1.00  0.00     0.028 C 
HETATM   30  C16 UNL     1      27.814   8.133  48.791  1.00  0.00     0.004 C 
HETATM   31  C17 UNL     1      27.720   6.780  48.125  1.00  0.00     0.005 C 
HETATM   32  C18 UNL     1      26.765   5.859  48.841  1.00  0.00     0.040 C 
ENDBRANCH  25  27
ENDBRANCH   1  18
TORSDOF 4
ENDMDL
MODEL 7
REMARK VINA RESULT:      -8.6      3.600      7.874
REMARK  4 active torsions:
REMARK  status: ('A' for Active; 'I' for Inactive)
REMARK    1  A    between atoms: C3_3  and  C4_5 
REMARK    2  A    between atoms: C6_7  and  N1_8 
REMARK    3  A    between atoms: N1_8  and  C7_9 
REMARK    4  A    between atoms: C12_15  and  C13_16 
ROOT
HETATM    1  N1  UNL     1      26.012   3.207  50.115  1.00  0.00    -0.212 N 
HETATM    2  H6  UNL     1      26.251   2.743  49.207  1.00  0.00     0.178 HD
ENDROOT
BRANCH   1   3
HETATM    3  C6  UNL     1      25.472   4.514  50.073  1.00  0.00     0.151 C 
HETATM    4  C5  UNL     1      26.457   5.411  49.320  1.00  0.00     0.010 C 
HETATM    5  C4  UNL     1      25.998   6.430  48.546  1.00  0.00    -0.035 C 
HETATM    6  C23 UNL     1      25.023   7.181  47.821  1.00  0.00     0.153 C 
HETATM    7  N6  UNL     1      23.765   6.882  47.440  1.00  0.00    -0.416 N 
HETATM    8  C22 UNL     1      22.544   6.549  47.980  1.00  0.00     0.144 C 
HETATM    9  H28 UNL     1      23.768   6.723  46.353  1.00  0.00     0.153 HD
HETATM   10  C21 UNL     1      22.298   5.170  48.463  1.00  0.00     0.291 C 
HETATM   11  N5  UNL     1      22.909   4.651  49.678  1.00  0.00     0.088 NA
HETATM   12  C19 UNL     1      24.255   4.775  49.389  1.00  0.00     0.301 C 
HETATM   13  C20 UNL     1      22.403   3.329  49.935  1.00  0.00     0.310 C 
BRANCH   5  14
HETATM   14  C3  UNL     1      27.361   6.915  48.131  1.00  0.00    -0.038 A 
HETATM   15  C2  UNL     1      28.252   7.999  48.528  1.00  0.00     0.028 A 
HETATM   16  C1  UNL     1      29.222   7.735  47.693  1.00  0.00     0.011 A 
HETATM   17  O1  UNL     1      28.403   6.894  47.471  1.00  0.00     0.000 OA
ENDBRANCH   5  14
ENDBRANCH   1   3
BRANCH   1  18
HETATM   18  C7  UNL     1      26.283   2.412  51.290  1.00  0.00     0.740 A 
HETATM   19  N2  UNL     1      27.535   2.369  51.839  1.00  0.00    -0.072 NA
HETATM   20  C8  UNL     1      27.745   1.618  52.934  1.00  0.00     0.168 A 
HETATM   21  C9  UNL     1      26.730   0.891  53.517  1.00  0.00     0.077 A 
HETATM   22  C10 UNL     1      26.575   0.035  54.616  1.00  0.00     0.035 A 
HETATM   23  N3  UNL     1      25.526   0.976  52.931  1.00  0.00    -0.216 N 
HETATM   24  C11 UNL     1      25.232  -0.361  54.628  1.00  0.00     0.034 A 
HETATM   25  C12 UNL     1      24.596   0.240  53.566  1.00  0.00     0.065 A 
HETATM   26  N4  UNL     1      25.292   1.706  51.855  1.00  0.00     0.026 NA
BRANCH  25  27
HETATM   27  C13 UNL     1      23.177   0.034  53.311  1.00  0.00    -0.033 C 
HETATM   28  C14 UNL     1      22.376   1.071  53.117  1.00  0.00    -0.017 C 
HETATM   29  C15 UNL     1      20.934   0.831  52.858  1.00  0.00     0.028 C 
HETATM   30  C16 UNL     1      20.312  -0.188  53.761  1.00  0.00     0.004 C 
HETATM   31  C17 UNL     1      21.241  -1.342  54.063  1.00  0.00     0.005 C 
HETATM   32  C18 UNL     1      22.502  -1.288  53.238  1.00  0.00     0.040 C 
ENDBRANCH  25  27
ENDBRANCH   1  18
TORSDOF 4
ENDMDL
MODEL 8
REMARK VINA RESULT:      -8.6      2.489      5.719
REMARK  4 active torsions:
REMARK  status: ('A' for Active; 'I' for Inactive)
REMARK    1  A    between atoms: C3_3  and  C4_5 
REMARK    2  A    between atoms: C6_7  and  N1_8 
REMARK    3  A    between atoms: N1_8  and  C7_9 
REMARK    4  A    between atoms: C12_15  and  C13_16 
ROOT
HETATM    1  N1  UNL     1      21.686   1.047  50.769  1.00  0.00    -0.212 N 
HETATM    2  H6  UNL     1      21.526   0.425  49.943  1.00  0.00     0.178 HD
ENDROOT
BRANCH   1   3
HETATM    3  C6  UNL     1      21.688   2.446  50.557  1.00  0.00     0.151 C 
HETATM    4  C5  UNL     1      23.106   2.866  50.167  1.00  0.00     0.010 C 
HETATM    5  C4  UNL     1      23.299   3.885  49.289  1.00  0.00    -0.035 C 
HETATM    6  C23 UNL     1      22.926   4.834  48.288  1.00  0.00     0.153 C 
HETATM    7  N6  UNL     1      21.823   4.938  47.520  1.00  0.00    -0.416 N 
HETATM    8  C22 UNL     1      20.461   5.102  47.634  1.00  0.00     0.144 C 
HETATM    9  H28 UNL     1      22.099   4.665  46.492  1.00  0.00     0.153 HD
HETATM   10  C21 UNL     1      19.606   3.951  48.008  1.00  0.00     0.291 C 
HETATM   11  N5  UNL     1      19.592   3.397  49.354  1.00  0.00     0.088 NA
HETATM   12  C19 UNL     1      20.913   3.024  49.517  1.00  0.00     0.301 C 
HETATM   13  C20 UNL     1      18.595   2.362  49.430  1.00  0.00     0.310 C 
BRANCH   5  14
HETATM   14  C3  UNL     1      24.802   3.831  49.339  1.00  0.00    -0.038 A 
HETATM   15  C2  UNL     1      25.887   4.803  49.300  1.00  0.00     0.028 A 
HETATM   16  C1  UNL     1      26.879   3.956  49.388  1.00  0.00     0.011 A 
HETATM   17  O1  UNL     1      25.900   3.272  49.413  1.00  0.00     0.000 OA
ENDBRANCH   5  14
ENDBRANCH   1   3
BRANCH   1  18
HETATM   18  C7  UNL     1      21.883   0.354  52.020  1.00  0.00     0.740 A 
HETATM   19  N2  UNL     1      20.828  -0.191  52.699  1.00  0.00    -0.072 NA
HETATM   20  C8  UNL     1      21.054  -0.829  53.860  1.00  0.00     0.168 A 
HETATM   21  C9  UNL     1      22.324  -0.948  54.384  1.00  0.00     0.077 A 
HETATM   22  C10 UNL     1      22.922  -1.518  55.514  1.00  0.00     0.035 A 
HETATM   23  N3  UNL     1      23.314  -0.392  53.670  1.00  0.00    -0.216 N 
HETATM   24  C11 UNL     1      24.295  -1.263  55.412  1.00  0.00     0.034 A 
HETATM   25  C12 UNL     1      24.516  -0.558  54.251  1.00  0.00     0.065 A 
HETATM   26  N4  UNL     1      23.121   0.240  52.527  1.00  0.00     0.026 NA
BRANCH  25  27
HETATM   27  C13 UNL     1      25.856  -0.149  53.851  1.00  0.00    -0.033 C 
HETATM   28  C14 UNL     1      26.726   0.268  54.760  1.00  0.00    -0.017 C 
HETATM   29  C15 UNL     1      28.084   0.678  54.323  1.00  0.00     0.028 C 
HETATM   30  C16 UNL     1      28.099   1.545  53.102  1.00  0.00     0.004 C 
HETATM   31  C17 UNL     1      27.055   1.138  52.087  1.00  0.00     0.005 C 
HETATM   32  C18 UNL     1      26.374  -0.155  52.459  1.00  0.00     0.040 C 
ENDBRANCH  25  27
ENDBRANCH   1  18
TORSDOF 4
ENDMDL
MODEL 9
REMARK VINA RESULT:      -8.4      4.161      9.059
REMARK  4 active torsions:
REMARK  status: ('A' for Active; 'I' for Inactive)
REMARK    1  A    between atoms: C3_3  and  C4_5 
REMARK    2  A    between atoms: C6_7  and  N1_8 
REMARK    3  A    between atoms: N1_8  and  C7_9 
REMARK    4  A    between atoms: C12_15  and  C13_16 
ROOT
HETATM    1  N1  UNL     1      25.829   4.067  49.224  1.00  0.00    -0.212 N 
HETATM    2  H6  UNL     1      25.401   3.742  48.326  1.00  0.00     0.178 HD
ENDROOT
BRANCH   1   3
HETATM    3  C6  UNL     1      26.402   5.359  49.259  1.00  0.00     0.151 C 
HETATM    4  C5  UNL     1      27.851   5.251  48.781  1.00  0.00     0.010 C 
HETATM    5  C4  UNL     1      28.415   6.266  48.076  1.00  0.00    -0.035 C 
HETATM    6  C23 UNL     1      28.431   7.470  47.307  1.00  0.00     0.153 C 
HETATM    7  N6  UNL     1      27.442   8.161  46.706  1.00  0.00    -0.416 N 
HETATM    8  C22 UNL     1      26.276   8.826  47.009  1.00  0.00     0.144 C 
HETATM    9  H28 UNL     1      27.541   8.021  45.621  1.00  0.00     0.153 HD
HETATM   10  C21 UNL     1      25.035   8.062  47.277  1.00  0.00     0.291 C 
HETATM   11  N5  UNL     1      24.844   7.294  48.499  1.00  0.00     0.088 NA
HETATM   12  C19 UNL     1      25.897   6.400  48.435  1.00  0.00     0.301 C 
HETATM   13  C20 UNL     1      23.512   6.750  48.512  1.00  0.00     0.310 C 
BRANCH   5  14
HETATM   14  C3  UNL     1      29.761   5.609  47.936  1.00  0.00    -0.038 A 
HETATM   15  C2  UNL     1      31.151   6.047  47.985  1.00  0.00     0.028 A 
HETATM   16  C1  UNL     1      31.704   4.882  47.767  1.00  0.00     0.011 A 
HETATM   17  O1  UNL     1      30.530   4.660  47.756  1.00  0.00     0.000 OA
ENDBRANCH   5  14
ENDBRANCH   1   3
BRANCH   1  18
HETATM   18  C7  UNL     1      25.760   3.113  50.306  1.00  0.00     0.740 A 
HETATM   19  N2  UNL     1      26.894   2.670  50.929  1.00  0.00    -0.072 NA
HETATM   20  C8  UNL     1      26.788   1.782  51.933  1.00  0.00     0.168 A 
HETATM   21  C9  UNL     1      25.563   1.308  52.351  1.00  0.00     0.077 A 
HETATM   22  C10 UNL     1      25.078   0.422  53.321  1.00  0.00     0.035 A 
HETATM   23  N3  UNL     1      24.490   1.782  51.700  1.00  0.00    -0.216 N 
HETATM   24  C11 UNL     1      23.684   0.412  53.192  1.00  0.00     0.034 A 
HETATM   25  C12 UNL     1      23.339   1.269  52.173  1.00  0.00     0.065 A 
HETATM   26  N4  UNL     1      24.566   2.653  50.710  1.00  0.00     0.026 NA
BRANCH  25  27
HETATM   27  C13 UNL     1      21.949   1.490  51.799  1.00  0.00    -0.033 C 
HETATM   28  C14 UNL     1      21.244   2.448  52.383  1.00  0.00    -0.017 C 
HETATM   29  C15 UNL     1      19.830   2.650  51.980  1.00  0.00     0.028 C 
HETATM   30  C16 UNL     1      19.043   1.383  51.852  1.00  0.00     0.004 C 
HETATM   31  C17 UNL     1      19.855   0.251  51.264  1.00  0.00     0.005 C 
HETATM   32  C18 UNL     1      21.203   0.713  50.774  1.00  0.00     0.040 C 
ENDBRANCH  25  27
ENDBRANCH   1  18
TORSDOF 4
ENDMDL
