MODEL 1
REMARK VINA RESULT:      -8.2      0.000      0.000
REMARK  1 active torsions:
REMARK  status: ('A' for Active; 'I' for Inactive)
REMARK    1  A    between atoms: O1_2  and  C2_3 
ROOT
HETATM    1  C2  UNL     1      27.304  -0.535  53.468  1.00  0.00     0.070 A 
HETATM    2  C3  UNL     1      26.861   0.153  54.577  1.00  0.00     0.039 A 
HETATM    3  C4  UNL     1      26.154   1.325  54.404  1.00  0.00     0.034 A 
HETATM    4  C5  UNL     1      25.868   1.844  53.159  1.00  0.00     0.057 A 
HETATM    5  C6  UNL     1      26.335   1.120  52.026  1.00  0.00     0.064 A 
HETATM    6  C7  UNL     1      27.033  -0.039  52.213  1.00  0.00     0.068 A 
HETATM    7  N1  UNL     1      25.885   1.901  50.906  1.00  0.00    -0.325 N 
HETATM    8  C8  UNL     1      26.480   3.158  50.542  1.00  0.00     0.225 C 
HETATM    9  O2  UNL     1      27.193   2.799  51.507  1.00  0.00    -0.273 OA
HETATM   10  C9  UNL     1      25.800   3.810  49.390  1.00  0.00     0.130 C 
HETATM   11  C10 UNL     1      26.345   5.129  49.080  1.00  0.00    -0.015 C 
HETATM   12  C11 UNL     1      25.850   6.370  49.304  1.00  0.00    -0.085 C 
HETATM   13  C12 UNL     1      26.643   7.583  48.858  1.00  0.00     0.043 C 
HETATM   14  C13 UNL     1      24.700   7.006  49.985  1.00  0.00     0.062 C 
HETATM   15  C14 UNL     1      23.773   6.047  50.698  1.00  0.00     0.214 C 
HETATM   16  O3  UNL     1      24.395   5.351  51.704  1.00  0.00    -0.239 OA
HETATM   17  O4  UNL     1      23.533   4.674  52.393  1.00  0.00    -0.221 OA
HETATM   18  C15 UNL     1      23.836   3.316  52.463  1.00  0.00     0.333 C 
HETATM   19  N2  UNL     1      25.123   3.090  53.093  1.00  0.00    -0.364 N 
HETATM   20  H7  UNL     1      25.181   1.160  50.715  1.00  0.00     0.169 HD
HETATM   21  H20 UNL     1      25.715   3.784  53.600  1.00  0.00     0.162 HD
ENDROOT
BRANCH   1  22
HETATM   22  O1  UNL     1      28.022  -1.716  53.424  1.00  0.00    -0.356 OA
HETATM   23  C1  UNL     1      29.401  -1.865  53.340  1.00  0.00     0.210 C 
ENDBRANCH   1  22
TORSDOF 1
ENDMDL
MODEL 2
REMARK VINA RESULT:      -7.7      3.620      5.589
REMARK  1 active torsions:
REMARK  status: ('A' for Active; 'I' for Inactive)
REMARK    1  A    between atoms: O1_2  and  C2_3 
ROOT
HETATM    1  C2  UNL     1      27.098  -0.470  53.264  1.00  0.00     0.070 A 
HETATM    2  C3  UNL     1      27.158   0.237  52.083  1.00  0.00     0.039 A 
HETATM    3  C4  UNL     1      26.035   0.902  51.638  1.00  0.00     0.034 A 
HETATM    4  C5  UNL     1      24.842   0.893  52.330  1.00  0.00     0.057 A 
HETATM    5  C6  UNL     1      24.799   0.156  53.548  1.00  0.00     0.064 A 
HETATM    6  C7  UNL     1      25.920  -0.498  53.975  1.00  0.00     0.068 A 
HETATM    7  N1  UNL     1      23.452   0.341  54.016  1.00  0.00    -0.325 N 
HETATM    8  C8  UNL     1      22.320  -0.302  53.407  1.00  0.00     0.225 C 
HETATM    9  O2  UNL     1      23.275  -0.771  52.746  1.00  0.00    -0.273 OA
HETATM   10  C9  UNL     1      21.026   0.095  54.024  1.00  0.00     0.130 C 
HETATM   11  C10 UNL     1      19.869  -0.485  53.346  1.00  0.00    -0.015 C 
HETATM   12  C11 UNL     1      18.957   0.071  52.514  1.00  0.00    -0.085 C 
HETATM   13  C12 UNL     1      17.837  -0.783  51.955  1.00  0.00     0.043 C 
HETATM   14  C13 UNL     1      18.709   1.362  51.832  1.00  0.00     0.062 C 
HETATM   15  C14 UNL     1      19.771   2.415  52.058  1.00  0.00     0.214 C 
HETATM   16  O3  UNL     1      21.005   2.038  51.591  1.00  0.00    -0.239 OA
HETATM   17  O4  UNL     1      21.838   3.027  51.649  1.00  0.00    -0.221 OA
HETATM   18  C15 UNL     1      22.994   2.726  52.367  1.00  0.00     0.333 C 
HETATM   19  N2  UNL     1      23.719   1.622  51.766  1.00  0.00    -0.364 N 
HETATM   20  H7  UNL     1      23.831   0.965  54.756  1.00  0.00     0.169 HD
HETATM   21  H20 UNL     1      23.552   1.181  50.836  1.00  0.00     0.162 HD
ENDROOT
BRANCH   1  22
HETATM   22  O1  UNL     1      28.100  -1.199  53.878  1.00  0.00    -0.356 OA
HETATM   23  C1  UNL     1      29.467  -0.949  53.847  1.00  0.00     0.210 C 
ENDBRANCH   1  22
TORSDOF 1
ENDMDL
MODEL 3
REMARK VINA RESULT:      -7.5      2.154      6.602
REMARK  1 active torsions:
REMARK  status: ('A' for Active; 'I' for Inactive)
REMARK    1  A    between atoms: O1_2  and  C2_3 
ROOT
HETATM    1  C2  UNL     1      24.793   6.361  48.211  1.00  0.00     0.070 A 
HETATM    2  C3  UNL     1      23.491   5.914  48.153  1.00  0.00     0.039 A 
HETATM    3  C4  UNL     1      23.082   4.918  49.014  1.00  0.00     0.034 A 
HETATM    4  C5  UNL     1      23.926   4.343  49.941  1.00  0.00     0.057 A 
HETATM    5  C6  UNL     1      25.267   4.818  49.986  1.00  0.00     0.064 A 
HETATM    6  C7  UNL     1      25.657   5.806  49.126  1.00  0.00     0.068 A 
HETATM    7  N1  UNL     1      25.875   4.040  51.031  1.00  0.00    -0.325 N 
HETATM    8  C8  UNL     1      26.208   2.650  50.875  1.00  0.00     0.225 C 
HETATM    9  O2  UNL     1      25.769   2.943  49.740  1.00  0.00    -0.273 OA
HETATM   10  C9  UNL     1      26.765   2.045  52.115  1.00  0.00     0.130 C 
HETATM   11  C10 UNL     1      27.016   0.611  51.987  1.00  0.00    -0.015 C 
HETATM   12  C11 UNL     1      26.346  -0.456  52.482  1.00  0.00    -0.085 C 
HETATM   13  C12 UNL     1      26.849  -1.856  52.190  1.00  0.00     0.043 C 
HETATM   14  C13 UNL     1      25.103  -0.742  53.234  1.00  0.00     0.062 C 
HETATM   15  C14 UNL     1      24.256   0.471  53.548  1.00  0.00     0.214 C 
HETATM   16  O3  UNL     1      23.808   1.116  52.423  1.00  0.00    -0.239 OA
HETATM   17  O4  UNL     1      22.955   2.039  52.732  1.00  0.00    -0.221 OA
HETATM   18  C15 UNL     1      23.306   3.295  52.242  1.00  0.00     0.333 C 
HETATM   19  N2  UNL     1      23.392   3.295  50.794  1.00  0.00    -0.364 N 
HETATM   20  H7  UNL     1      25.869   4.893  51.623  1.00  0.00     0.169 HD
HETATM   21  H20 UNL     1      23.082   2.546  50.138  1.00  0.00     0.162 HD
ENDROOT
BRANCH   1  22
HETATM   22  O1  UNL     1      25.397   7.341  47.444  1.00  0.00    -0.356 OA
HETATM   23  C1  UNL     1      26.723   7.754  47.492  1.00  0.00     0.210 C 
ENDBRANCH   1  22
TORSDOF 1
ENDMDL
MODEL 4
REMARK VINA RESULT:      -7.4      5.032      7.957
REMARK  1 active torsions:
REMARK  status: ('A' for Active; 'I' for Inactive)
REMARK    1  A    between atoms: O1_2  and  C2_3 
ROOT
HETATM    1  C2  UNL     1      17.552   0.931  51.436  1.00  0.00     0.070 A 
HETATM    2  C3  UNL     1      17.423  -0.336  51.961  1.00  0.00     0.039 A 
HETATM    3  C4  UNL     1      18.467  -0.876  52.682  1.00  0.00     0.034 A 
HETATM    4  C5  UNL     1      19.647  -0.198  52.904  1.00  0.00     0.057 A 
HETATM    5  C6  UNL     1      19.762   1.110  52.352  1.00  0.00     0.064 A 
HETATM    6  C7  UNL     1      18.719   1.631  51.641  1.00  0.00     0.068 A 
HETATM    7  N1  UNL     1      21.075   1.539  52.752  1.00  0.00    -0.325 N 
HETATM    8  C8  UNL     1      22.278   1.017  52.164  1.00  0.00     0.225 C 
HETATM    9  O2  UNL     1      21.389   0.434  51.503  1.00  0.00    -0.273 OA
HETATM   10  C9  UNL     1      23.514   1.565  52.787  1.00  0.00     0.130 C 
HETATM   11  C10 UNL     1      24.735   0.965  52.255  1.00  0.00    -0.015 C 
HETATM   12  C11 UNL     1      25.585   0.057  52.790  1.00  0.00    -0.085 C 
HETATM   13  C12 UNL     1      26.800  -0.385  51.999  1.00  0.00     0.043 C 
HETATM   14  C13 UNL     1      25.691  -0.798  53.994  1.00  0.00     0.062 C 
HETATM   15  C14 UNL     1      24.515  -0.712  54.940  1.00  0.00     0.214 C 
HETATM   16  O3  UNL     1      23.336  -1.115  54.365  1.00  0.00    -0.239 OA
HETATM   17  O4  UNL     1      22.395  -1.188  55.251  1.00  0.00    -0.221 OA
HETATM   18  C15 UNL     1      21.275  -0.428  54.923  1.00  0.00     0.333 C 
HETATM   19  N2  UNL     1      20.685  -0.865  53.671  1.00  0.00    -0.364 N 
HETATM   20  H7  UNL     1      20.622   2.187  53.425  1.00  0.00     0.169 HD
HETATM   21  H20 UNL     1      20.910  -1.727  53.128  1.00  0.00     0.162 HD
ENDROOT
BRANCH   1  22
HETATM   22  O1  UNL     1      16.633   1.647  50.690  1.00  0.00    -0.356 OA
HETATM   23  C1  UNL     1      16.814   2.888  50.092  1.00  0.00     0.210 C 
ENDBRANCH   1  22
TORSDOF 1
ENDMDL
MODEL 5
REMARK VINA RESULT:      -7.3      4.118      5.866
REMARK  1 active torsions:
REMARK  status: ('A' for Active; 'I' for Inactive)
REMARK    1  A    between atoms: O1_2  and  C2_3 
ROOT
HETATM    1  C2  UNL     1      26.105  -0.139  53.131  1.00  0.00     0.070 A 
HETATM    2  C3  UNL     1      26.254   0.750  52.089  1.00  0.00     0.039 A 
HETATM    3  C4  UNL     1      25.157   1.454  51.642  1.00  0.00     0.034 A 
HETATM    4  C5  UNL     1      23.903   1.309  52.197  1.00  0.00     0.057 A 
HETATM    5  C6  UNL     1      23.768   0.386  53.273  1.00  0.00     0.064 A 
HETATM    6  C7  UNL     1      24.865  -0.304  53.705  1.00  0.00     0.068 A 
HETATM    7  N1  UNL     1      22.376   0.465  53.624  1.00  0.00    -0.325 N 
HETATM    8  C8  UNL     1      21.334  -0.096  52.808  1.00  0.00     0.225 C 
HETATM    9  O2  UNL     1      22.365  -0.432  52.183  1.00  0.00    -0.273 OA
HETATM   10  C9  UNL     1      19.971   0.171  53.344  1.00  0.00     0.130 C 
HETATM   11  C10 UNL     1      18.909  -0.317  52.468  1.00  0.00    -0.015 C 
HETATM   12  C11 UNL     1      18.063   0.347  51.644  1.00  0.00    -0.085 C 
HETATM   13  C12 UNL     1      17.035  -0.431  50.846  1.00  0.00     0.043 C 
HETATM   14  C13 UNL     1      17.835   1.724  51.153  1.00  0.00     0.062 C 
HETATM   15  C14 UNL     1      18.830   2.749  51.650  1.00  0.00     0.214 C 
HETATM   16  O3  UNL     1      20.117   2.478  51.258  1.00  0.00    -0.239 OA
HETATM   17  O4  UNL     1      20.904   3.462  51.556  1.00  0.00    -0.221 OA
HETATM   18  C15 UNL     1      21.993   3.074  52.332  1.00  0.00     0.333 C 
HETATM   19  N2  UNL     1      22.814   2.096  51.643  1.00  0.00    -0.364 N 
HETATM   20  H7  UNL     1      22.657   0.970  54.487  1.00  0.00     0.169 HD
HETATM   21  H20 UNL     1      22.755   1.807  50.643  1.00  0.00     0.162 HD
ENDROOT
BRANCH   1  22
HETATM   22  O1  UNL     1      27.069  -0.936  53.723  1.00  0.00    -0.356 OA
HETATM   23  C1  UNL     1      28.441  -0.719  53.755  1.00  0.00     0.210 C 
ENDBRANCH   1  22
TORSDOF 1
ENDMDL
MODEL 6
REMARK VINA RESULT:      -7.1      2.360      3.022
REMARK  1 active torsions:
REMARK  status: ('A' for Active; 'I' for Inactive)
REMARK    1  A    between atoms: O1_2  and  C2_3 
ROOT
HETATM    1  C2  UNL     1      26.200  -0.224  53.978  1.00  0.00     0.070 A 
HETATM    2  C3  UNL     1      24.962  -0.690  54.363  1.00  0.00     0.039 A 
HETATM    3  C4  UNL     1      23.833  -0.192  53.747  1.00  0.00     0.034 A 
HETATM    4  C5  UNL     1      23.888   0.760  52.751  1.00  0.00     0.057 A 
HETATM    5  C6  UNL     1      25.177   1.230  52.367  1.00  0.00     0.064 A 
HETATM    6  C7  UNL     1      26.285   0.727  52.987  1.00  0.00     0.068 A 
HETATM    7  N1  UNL     1      24.901   2.190  51.333  1.00  0.00    -0.325 N 
HETATM    8  C8  UNL     1      24.338   3.485  51.601  1.00  0.00     0.225 C 
HETATM    9  O2  UNL     1      24.465   3.011  52.753  1.00  0.00    -0.273 OA
HETATM   10  C9  UNL     1      24.082   4.273  50.365  1.00  0.00     0.130 C 
HETATM   11  C10 UNL     1      23.424   5.550  50.630  1.00  0.00    -0.015 C 
HETATM   12  C11 UNL     1      22.145   5.948  50.431  1.00  0.00    -0.085 C 
HETATM   13  C12 UNL     1      21.737   7.362  50.797  1.00  0.00     0.043 C 
HETATM   14  C13 UNL     1      20.852   5.373  49.997  1.00  0.00     0.062 C 
HETATM   15  C14 UNL     1      20.882   3.890  49.705  1.00  0.00     0.214 C 
HETATM   16  O3  UNL     1      21.216   3.136  50.802  1.00  0.00    -0.239 OA
HETATM   17  O4  UNL     1      21.064   1.874  50.555  1.00  0.00    -0.221 OA
HETATM   18  C15 UNL     1      22.218   1.129  50.789  1.00  0.00     0.333 C 
HETATM   19  N2  UNL     1      22.636   1.220  52.174  1.00  0.00    -0.364 N 
HETATM   20  H7  UNL     1      25.275   1.506  50.645  1.00  0.00     0.169 HD
HETATM   21  H20 UNL     1      22.105   1.626  52.975  1.00  0.00     0.162 HD
ENDROOT
BRANCH   1  22
HETATM   22  O1  UNL     1      27.442  -0.589  54.465  1.00  0.00    -0.356 OA
HETATM   23  C1  UNL     1      28.544   0.233  54.670  1.00  0.00     0.210 C 
ENDBRANCH   1  22
TORSDOF 1
ENDMDL
MODEL 7
REMARK VINA RESULT:      -7.0      2.763      7.484
REMARK  1 active torsions:
REMARK  status: ('A' for Active; 'I' for Inactive)
REMARK    1  A    between atoms: O1_2  and  C2_3 
ROOT
HETATM    1  C2  UNL     1      22.212   7.061  50.037  1.00  0.00     0.070 A 
HETATM    2  C3  UNL     1      23.334   7.393  50.765  1.00  0.00     0.039 A 
HETATM    3  C4  UNL     1      24.081   6.390  51.345  1.00  0.00     0.034 A 
HETATM    4  C5  UNL     1      23.754   5.055  51.228  1.00  0.00     0.057 A 
HETATM    5  C6  UNL     1      22.591   4.732  50.472  1.00  0.00     0.064 A 
HETATM    6  C7  UNL     1      21.861   5.737  49.904  1.00  0.00     0.068 A 
HETATM    7  N1  UNL     1      22.525   3.297  50.536  1.00  0.00    -0.325 N 
HETATM    8  C8  UNL     1      22.139   2.587  51.724  1.00  0.00     0.225 C 
HETATM    9  O2  UNL     1      22.008   3.780  52.079  1.00  0.00    -0.273 OA
HETATM   10  C9  UNL     1      22.210   1.109  51.565  1.00  0.00     0.130 C 
HETATM   11  C10 UNL     1      21.910   0.387  52.799  1.00  0.00    -0.015 C 
HETATM   12  C11 UNL     1      22.719  -0.267  53.665  1.00  0.00    -0.085 C 
HETATM   13  C12 UNL     1      22.120  -0.946  54.881  1.00  0.00     0.043 C 
HETATM   14  C13 UNL     1      24.165  -0.501  53.882  1.00  0.00     0.062 C 
HETATM   15  C14 UNL     1      25.076   0.201  52.900  1.00  0.00     0.214 C 
HETATM   16  O3  UNL     1      24.963   1.568  52.948  1.00  0.00    -0.239 OA
HETATM   17  O4  UNL     1      25.875   2.130  52.222  1.00  0.00    -0.221 OA
HETATM   18  C15 UNL     1      25.353   3.001  51.268  1.00  0.00     0.333 C 
HETATM   19  N2  UNL     1      24.608   4.081  51.886  1.00  0.00    -0.364 N 
HETATM   20  H7  UNL     1      22.814   3.274  49.538  1.00  0.00     0.169 HD
HETATM   21  H20 UNL     1      24.570   4.331  52.898  1.00  0.00     0.162 HD
ENDROOT
BRANCH   1  22
HETATM   22  O1  UNL     1      21.335   7.907  49.383  1.00  0.00    -0.356 OA
HETATM   23  C1  UNL     1      20.036   8.232  49.757  1.00  0.00     0.210 C 
ENDBRANCH   1  22
TORSDOF 1
ENDMDL
MODEL 8
REMARK VINA RESULT:      -6.9      2.941      6.890
REMARK  1 active torsions:
REMARK  status: ('A' for Active; 'I' for Inactive)
REMARK    1  A    between atoms: O1_2  and  C2_3 
ROOT
HETATM    1  C2  UNL     1      22.682   4.744  48.012  1.00  0.00     0.070 A 
HETATM    2  C3  UNL     1      22.269   3.511  47.556  1.00  0.00     0.039 A 
HETATM    3  C4  UNL     1      22.304   2.430  48.412  1.00  0.00     0.034 A 
HETATM    4  C5  UNL     1      22.735   2.529  49.717  1.00  0.00     0.057 A 
HETATM    5  C6  UNL     1      23.158   3.811  50.171  1.00  0.00     0.064 A 
HETATM    6  C7  UNL     1      23.118   4.872  49.311  1.00  0.00     0.068 A 
HETATM    7  N1  UNL     1      23.537   3.586  51.539  1.00  0.00    -0.325 N 
HETATM    8  C8  UNL     1      24.737   2.888  51.912  1.00  0.00     0.225 C 
HETATM    9  O2  UNL     1      24.823   2.910  50.663  1.00  0.00    -0.273 OA
HETATM   10  C9  UNL     1      24.879   2.723  53.384  1.00  0.00     0.130 C 
HETATM   11  C10 UNL     1      26.048   1.932  53.758  1.00  0.00    -0.015 C 
HETATM   12  C11 UNL     1      26.153   0.659  54.208  1.00  0.00    -0.085 C 
HETATM   13  C12 UNL     1      27.521   0.092  54.533  1.00  0.00     0.043 C 
HETATM   14  C13 UNL     1      25.285  -0.518  54.440  1.00  0.00     0.062 C 
HETATM   15  C14 UNL     1      23.838  -0.327  54.047  1.00  0.00     0.214 C 
HETATM   16  O3  UNL     1      23.677  -0.070  52.708  1.00  0.00    -0.239 OA
HETATM   17  O4  UNL     1      22.423  -0.084  52.386  1.00  0.00    -0.221 OA
HETATM   18  C15 UNL     1      22.007   1.090  51.762  1.00  0.00     0.333 C 
HETATM   19  N2  UNL     1      22.737   1.324  50.530  1.00  0.00    -0.364 N 
HETATM   20  H7  UNL     1      22.679   4.099  51.826  1.00  0.00     0.169 HD
HETATM   21  H20 UNL     1      23.375   0.665  50.032  1.00  0.00     0.162 HD
ENDROOT
BRANCH   1  22
HETATM   22  O1  UNL     1      22.725   5.942  47.322  1.00  0.00    -0.356 OA
HETATM   23  C1  UNL     1      23.604   7.000  47.521  1.00  0.00     0.210 C 
ENDBRANCH   1  22
TORSDOF 1
ENDMDL
MODEL 9
REMARK VINA RESULT:      -6.8      4.490      5.689
REMARK  1 active torsions:
REMARK  status: ('A' for Active; 'I' for Inactive)
REMARK    1  A    between atoms: O1_2  and  C2_3 
ROOT
HETATM    1  C2  UNL     1      22.842   4.109  50.357  1.00  0.00     0.070 A 
HETATM    2  C3  UNL     1      22.869   4.829  51.532  1.00  0.00     0.039 A 
HETATM    3  C4  UNL     1      23.712   5.915  51.637  1.00  0.00     0.034 A 
HETATM    4  C5  UNL     1      24.538   6.318  50.609  1.00  0.00     0.057 A 
HETATM    5  C6  UNL     1      24.497   5.561  49.404  1.00  0.00     0.064 A 
HETATM    6  C7  UNL     1      23.656   4.488  49.314  1.00  0.00     0.068 A 
HETATM    7  N1  UNL     1      25.448   6.220  48.549  1.00  0.00    -0.325 N 
HETATM    8  C8  UNL     1      26.869   6.123  48.744  1.00  0.00     0.225 C 
HETATM    9  O2  UNL     1      26.429   5.373  49.645  1.00  0.00    -0.273 OA
HETATM   10  C9  UNL     1      27.644   6.945  47.775  1.00  0.00     0.130 C 
HETATM   11  C10 UNL     1      29.082   6.922  48.031  1.00  0.00    -0.015 C 
HETATM   12  C11 UNL     1      29.904   7.856  48.565  1.00  0.00    -0.085 C 
HETATM   13  C12 UNL     1      31.384   7.557  48.705  1.00  0.00     0.043 C 
HETATM   14  C13 UNL     1      29.814   9.191  49.198  1.00  0.00     0.062 C 
HETATM   15  C14 UNL     1      28.408   9.722  49.365  1.00  0.00     0.214 C 
HETATM   16  O3  UNL     1      27.631   8.931  50.174  1.00  0.00    -0.239 OA
HETATM   17  O4  UNL     1      26.499   9.506  50.427  1.00  0.00    -0.221 OA
HETATM   18  C15 UNL     1      25.400   8.719  50.090  1.00  0.00     0.333 C 
HETATM   19  N2  UNL     1      25.393   7.472  50.831  1.00  0.00    -0.364 N 
HETATM   20  H7  UNL     1      24.647   6.584  47.996  1.00  0.00     0.169 HD
HETATM   21  H20 UNL     1      25.996   7.209  51.640  1.00  0.00     0.162 HD
ENDROOT
BRANCH   1  22
HETATM   22  O1  UNL     1      22.076   2.999  50.050  1.00  0.00    -0.356 OA
HETATM   23  C1  UNL     1      22.464   1.665  50.097  1.00  0.00     0.210 C 
ENDBRANCH   1  22
TORSDOF 1
ENDMDL
