MODEL 1
REMARK VINA RESULT:      -8.8      0.000      0.000
REMARK  3 active torsions:
REMARK  status: ('A' for Active; 'I' for Inactive)
REMARK    1  A    between atoms: C3_3  and  C4_4 
REMARK    2  A    between atoms: C10_10  and  C11_11 
REMARK    3  A    between atoms: C18_22  and  O2_23 
ROOT
HETATM    1  C4  UNL     1      23.807   5.776  50.384  1.00  0.00     0.055 C 
HETATM    2  C5  UNL     1      24.658   4.802  50.186  1.00  0.00     0.085 C 
HETATM    3  C6  UNL     1      25.895   4.219  49.702  1.00  0.00    -0.071 C 
HETATM    4  C7  UNL     1      27.193   4.394  49.002  1.00  0.00     0.044 C 
HETATM    5  C8  UNL     1      25.980   2.926  49.975  1.00  0.00     0.018 C 
HETATM    6  C9  UNL     1      24.730   2.689  50.675  1.00  0.00     0.011 A 
HETATM    7  C10 UNL     1      24.948   2.475  51.998  1.00  0.00    -0.021 A 
HETATM    8  C15 UNL     1      23.884   2.312  52.898  1.00  0.00     0.015 A 
HETATM    9  C16 UNL     1      22.615   2.394  52.304  1.00  0.00     0.040 A 
HETATM   10  C17 UNL     1      22.444   2.616  50.925  1.00  0.00     0.102 A 
HETATM   11  C18 UNL     1      23.512   2.767  50.071  1.00  0.00     0.112 A 
HETATM   12  O3  UNL     1      21.101   2.642  50.726  1.00  0.00    -0.348 OA
HETATM   13  C20 UNL     1      20.222   3.514  50.173  1.00  0.00     0.178 C 
HETATM   14  C21 UNL     1      20.198   4.868  50.812  1.00  0.00     0.053 C 
HETATM   15  C22 UNL     1      21.380   5.736  50.585  1.00  0.00     0.177 C 
HETATM   16  O4  UNL     1      22.621   5.356  51.060  1.00  0.00    -0.355 OA
ENDROOT
BRANCH   7  17
HETATM   17  C11 UNL     1      26.319   2.382  52.551  1.00  0.00     0.037 C 
HETATM   18  C12 UNL     1      26.982   1.451  53.209  1.00  0.00     0.077 C 
HETATM   19  S1  UNL     1      28.699   1.529  53.813  1.00  0.00    -0.047 SA
HETATM   20  C14 UNL     1      26.597   0.112  53.669  1.00  0.00     0.264 C 
HETATM   21  C13 UNL     1      28.968  -0.261  53.690  1.00  0.00     0.167 C 
HETATM   22  N1  UNL     1      30.012  -0.957  53.466  1.00  0.00    -0.278 NA
HETATM   23  N2  UNL     1      27.658  -0.772  53.916  1.00  0.00    -0.301 N 
HETATM   24  H12 UNL     1      30.953  -0.553  53.304  1.00  0.00     0.189 HD
HETATM   25  H13 UNL     1      27.525  -1.775  54.253  1.00  0.00     0.171 HD
HETATM   26  O1  UNL     1      25.369  -0.216  53.832  1.00  0.00    -0.267 OA
ENDBRANCH   7  17
BRANCH  11  27
HETATM   27  O2  UNL     1      23.239   2.971  48.754  1.00  0.00    -0.352 OA
HETATM   28  C19 UNL     1      22.699   2.071  47.835  1.00  0.00     0.210 C 
ENDBRANCH  11  27
BRANCH   1  29
HETATM   29  C3  UNL     1      23.720   7.227  50.092  1.00  0.00     0.028 C 
HETATM   30  C2  UNL     1      24.074   7.817  48.946  1.00  0.00    -0.028 C 
HETATM   31  C1  UNL     1      24.009   9.263  48.600  1.00  0.00     0.036 C 
ENDBRANCH   1  29
TORSDOF 3
ENDMDL
MODEL 2
REMARK VINA RESULT:      -8.7      1.791      2.216
REMARK  3 active torsions:
REMARK  status: ('A' for Active; 'I' for Inactive)
REMARK    1  A    between atoms: C3_3  and  C4_4 
REMARK    2  A    between atoms: C10_10  and  C11_11 
REMARK    3  A    between atoms: C18_22  and  O2_23 
ROOT
HETATM    1  C4  UNL     1      24.777   6.924  50.253  1.00  0.00     0.055 C 
HETATM    2  C5  UNL     1      25.064   5.657  50.098  1.00  0.00     0.085 C 
HETATM    3  C6  UNL     1      25.898   4.541  49.694  1.00  0.00    -0.071 C 
HETATM    4  C7  UNL     1      27.168   4.055  49.096  1.00  0.00     0.044 C 
HETATM    5  C8  UNL     1      25.328   3.372  49.944  1.00  0.00     0.018 C 
HETATM    6  C9  UNL     1      24.070   3.780  50.545  1.00  0.00     0.011 A 
HETATM    7  C10 UNL     1      24.057   3.510  51.875  1.00  0.00    -0.021 A 
HETATM    8  C15 UNL     1      22.982   3.896  52.690  1.00  0.00     0.015 A 
HETATM    9  C16 UNL     1      21.959   4.571  52.006  1.00  0.00     0.040 A 
HETATM   10  C17 UNL     1      22.022   4.826  50.623  1.00  0.00     0.102 A 
HETATM   11  C18 UNL     1      23.090   4.427  49.854  1.00  0.00     0.112 A 
HETATM   12  O3  UNL     1      20.877   5.493  50.325  1.00  0.00    -0.348 OA
HETATM   13  C20 UNL     1      20.574   6.673  49.729  1.00  0.00     0.178 C 
HETATM   14  C21 UNL     1      21.158   7.880  50.393  1.00  0.00     0.053 C 
HETATM   15  C22 UNL     1      22.625   8.065  50.273  1.00  0.00     0.177 C 
HETATM   16  O4  UNL     1      23.489   7.141  50.831  1.00  0.00    -0.355 OA
ENDROOT
BRANCH   7  17
HETATM   17  C11 UNL     1      25.166   2.776  52.526  1.00  0.00     0.037 C 
HETATM   18  C12 UNL     1      25.293   1.563  53.030  1.00  0.00     0.077 C 
HETATM   19  S1  UNL     1      26.773   0.832  53.800  1.00  0.00    -0.047 SA
HETATM   20  C14 UNL     1      24.349   0.447  53.153  1.00  0.00     0.264 C 
HETATM   21  C13 UNL     1      26.350  -0.866  53.324  1.00  0.00     0.167 C 
HETATM   22  N1  UNL     1      27.067  -1.885  53.058  1.00  0.00    -0.278 NA
HETATM   23  N2  UNL     1      24.926  -0.822  53.306  1.00  0.00    -0.301 N 
HETATM   24  H12 UNL     1      28.103  -1.885  53.078  1.00  0.00     0.189 HD
HETATM   25  H13 UNL     1      24.361  -1.720  53.405  1.00  0.00     0.171 HD
HETATM   26  O1  UNL     1      23.080   0.633  53.121  1.00  0.00    -0.267 OA
ENDBRANCH   7  17
BRANCH  11  27
HETATM   27  O2  UNL     1      23.050   4.715  48.525  1.00  0.00    -0.352 OA
HETATM   28  C19 UNL     1      22.325   4.070  47.524  1.00  0.00     0.210 C 
ENDBRANCH  11  27
BRANCH   1  29
HETATM   29  C3  UNL     1      25.424   8.231  49.988  1.00  0.00     0.028 C 
HETATM   30  C2  UNL     1      26.741   8.450  49.907  1.00  0.00    -0.028 C 
HETATM   31  C1  UNL     1      27.443   9.736  49.644  1.00  0.00     0.036 C 
ENDBRANCH   1  29
TORSDOF 3
ENDMDL
MODEL 3
REMARK VINA RESULT:      -7.7      8.358     11.421
REMARK  3 active torsions:
REMARK  status: ('A' for Active; 'I' for Inactive)
REMARK    1  A    between atoms: C3_3  and  C4_4 
REMARK    2  A    between atoms: C10_10  and  C11_11 
REMARK    3  A    between atoms: C18_22  and  O2_23 
ROOT
HETATM    1  C4  UNL     1      33.553   6.029  44.944  1.00  0.00     0.055 C 
HETATM    2  C5  UNL     1      33.523   7.030  45.787  1.00  0.00     0.085 C 
HETATM    3  C6  UNL     1      33.877   8.352  46.267  1.00  0.00    -0.071 C 
HETATM    4  C7  UNL     1      34.631   9.616  46.067  1.00  0.00     0.044 C 
HETATM    5  C8  UNL     1      33.291   8.641  47.419  1.00  0.00     0.018 C 
HETATM    6  C9  UNL     1      32.522   7.435  47.670  1.00  0.00     0.011 A 
HETATM    7  C10 UNL     1      31.194   7.663  47.507  1.00  0.00    -0.021 A 
HETATM    8  C15 UNL     1      30.255   6.626  47.607  1.00  0.00     0.015 A 
HETATM    9  C16 UNL     1      30.818   5.369  47.882  1.00  0.00     0.040 A 
HETATM   10  C17 UNL     1      32.204   5.187  48.043  1.00  0.00     0.102 A 
HETATM   11  C18 UNL     1      33.096   6.230  47.943  1.00  0.00     0.112 A 
HETATM   12  O3  UNL     1      32.369   3.861  48.285  1.00  0.00    -0.348 OA
HETATM   13  C20 UNL     1      33.100   2.861  47.731  1.00  0.00     0.178 C 
HETATM   14  C21 UNL     1      32.819   2.608  46.283  1.00  0.00     0.053 C 
HETATM   15  C22 UNL     1      33.287   3.638  45.321  1.00  0.00     0.177 C 
HETATM   16  O4  UNL     1      32.763   4.916  45.365  1.00  0.00    -0.355 OA
ENDROOT
BRANCH   7  17
HETATM   17  C11 UNL     1      30.671   9.022  47.236  1.00  0.00     0.037 C 
HETATM   18  C12 UNL     1      29.722   9.764  47.775  1.00  0.00     0.077 C 
HETATM   19  S1  UNL     1      29.222  11.447  47.291  1.00  0.00    -0.047 SA
HETATM   20  C14 UNL     1      28.785   9.513  48.875  1.00  0.00     0.264 C 
HETATM   21  C13 UNL     1      28.666  11.908  48.955  1.00  0.00     0.167 C 
HETATM   22  N1  UNL     1      28.630  13.025  49.568  1.00  0.00    -0.278 NA
HETATM   23  N2  UNL     1      28.241  10.655  49.482  1.00  0.00    -0.301 N 
HETATM   24  H12 UNL     1      28.948  13.922  49.156  1.00  0.00     0.189 HD
HETATM   25  H13 UNL     1      27.550  10.621  50.293  1.00  0.00     0.171 HD
HETATM   26  O1  UNL     1      28.489   8.322  49.248  1.00  0.00    -0.267 OA
ENDBRANCH   7  17
BRANCH  11  27
HETATM   27  O2  UNL     1      34.414   5.948  48.123  1.00  0.00    -0.352 OA
HETATM   28  C19 UNL     1      35.102   5.766  49.322  1.00  0.00     0.210 C 
ENDBRANCH  11  27
BRANCH   1  29
HETATM   29  C3  UNL     1      34.196   5.713  43.647  1.00  0.00     0.028 C 
HETATM   30  C2  UNL     1      34.939   6.552  42.917  1.00  0.00    -0.028 C 
HETATM   31  C1  UNL     1      35.606   6.290  41.612  1.00  0.00     0.036 C 
ENDBRANCH   1  29
TORSDOF 3
ENDMDL
MODEL 4
REMARK VINA RESULT:      -7.7      8.166     11.402
REMARK  3 active torsions:
REMARK  status: ('A' for Active; 'I' for Inactive)
REMARK    1  A    between atoms: C3_3  and  C4_4 
REMARK    2  A    between atoms: C10_10  and  C11_11 
REMARK    3  A    between atoms: C18_22  and  O2_23 
ROOT
HETATM    1  C4  UNL     1      33.033   5.308  44.877  1.00  0.00     0.055 C 
HETATM    2  C5  UNL     1      32.463   6.460  45.121  1.00  0.00     0.085 C 
HETATM    3  C6  UNL     1      31.936   7.764  44.767  1.00  0.00    -0.071 C 
HETATM    4  C7  UNL     1      31.672   8.787  43.723  1.00  0.00     0.044 C 
HETATM    5  C8  UNL     1      31.437   8.405  45.813  1.00  0.00     0.018 C 
HETATM    6  C9  UNL     1      31.658   7.445  46.880  1.00  0.00     0.011 A 
HETATM    7  C10 UNL     1      30.487   6.892  47.287  1.00  0.00    -0.021 A 
HETATM    8  C15 UNL     1      30.453   5.870  48.247  1.00  0.00     0.015 A 
HETATM    9  C16 UNL     1      31.719   5.491  48.722  1.00  0.00     0.040 A 
HETATM   10  C17 UNL     1      32.904   6.097  48.267  1.00  0.00     0.102 A 
HETATM   11  C18 UNL     1      32.898   7.102  47.328  1.00  0.00     0.112 A 
HETATM   12  O3  UNL     1      33.909   5.473  48.935  1.00  0.00    -0.348 OA
HETATM   13  C20 UNL     1      35.042   4.817  48.582  1.00  0.00     0.178 C 
HETATM   14  C21 UNL     1      34.828   3.625  47.702  1.00  0.00     0.053 C 
HETATM   15  C22 UNL     1      34.411   3.894  46.303  1.00  0.00     0.177 C 
HETATM   16  O4  UNL     1      33.198   4.504  46.046  1.00  0.00    -0.355 OA
ENDROOT
BRANCH   7  17
HETATM   17  C11 UNL     1      29.186   7.358  46.753  1.00  0.00     0.037 C 
HETATM   18  C12 UNL     1      28.290   8.239  47.157  1.00  0.00     0.077 C 
HETATM   19  S1  UNL     1      26.722   8.679  46.341  1.00  0.00    -0.047 SA
HETATM   20  C14 UNL     1      28.234   9.112  48.334  1.00  0.00     0.264 C 
HETATM   21  C13 UNL     1      26.708  10.376  46.981  1.00  0.00     0.167 C 
HETATM   22  N1  UNL     1      26.234  11.464  46.514  1.00  0.00    -0.278 NA
HETATM   23  N2  UNL     1      27.395  10.231  48.220  1.00  0.00    -0.301 N 
HETATM   24  H12 UNL     1      25.739  11.537  45.606  1.00  0.00     0.189 HD
HETATM   25  H13 UNL     1      27.260  10.949  48.995  1.00  0.00     0.171 HD
HETATM   26  O1  UNL     1      28.910   8.858  49.393  1.00  0.00    -0.267 OA
ENDBRANCH   7  17
BRANCH  11  27
HETATM   27  O2  UNL     1      34.099   7.626  46.961  1.00  0.00    -0.352 OA
HETATM   28  C19 UNL     1      34.869   8.573  47.635  1.00  0.00     0.210 C 
ENDBRANCH  11  27
BRANCH   1  29
HETATM   29  C3  UNL     1      33.576   4.585  43.702  1.00  0.00     0.028 C 
HETATM   30  C2  UNL     1      33.169   4.733  42.436  1.00  0.00    -0.028 C 
HETATM   31  C1  UNL     1      33.676   4.036  41.223  1.00  0.00     0.036 C 
ENDBRANCH   1  29
TORSDOF 3
ENDMDL
MODEL 5
REMARK VINA RESULT:      -7.7      5.048      7.436
REMARK  3 active torsions:
REMARK  status: ('A' for Active; 'I' for Inactive)
REMARK    1  A    between atoms: C3_3  and  C4_4 
REMARK    2  A    between atoms: C10_10  and  C11_11 
REMARK    3  A    between atoms: C18_22  and  O2_23 
ROOT
HETATM    1  C4  UNL     1      25.566   4.255  49.224  1.00  0.00     0.055 C 
HETATM    2  C5  UNL     1      24.479   4.818  48.760  1.00  0.00     0.085 C 
HETATM    3  C6  UNL     1      23.724   5.862  48.096  1.00  0.00    -0.071 C 
HETATM    4  C7  UNL     1      23.711   7.180  47.410  1.00  0.00     0.044 C 
HETATM    5  C8  UNL     1      22.431   5.583  48.031  1.00  0.00     0.018 C 
HETATM    6  C9  UNL     1      22.376   4.287  48.684  1.00  0.00     0.011 A 
HETATM    7  C10 UNL     1      22.127   3.301  47.786  1.00  0.00    -0.021 A 
HETATM    8  C15 UNL     1      22.117   1.950  48.165  1.00  0.00     0.015 A 
HETATM    9  C16 UNL     1      22.385   1.737  49.527  1.00  0.00     0.040 A 
HETATM   10  C17 UNL     1      22.637   2.797  50.418  1.00  0.00     0.102 A 
HETATM   11  C18 UNL     1      22.633   4.111  50.010  1.00  0.00     0.112 A 
HETATM   12  O3  UNL     1      22.858   2.213  51.623  1.00  0.00    -0.348 OA
HETATM   13  C20 UNL     1      23.852   2.246  52.545  1.00  0.00     0.178 C 
HETATM   14  C21 UNL     1      25.192   1.812  52.039  1.00  0.00     0.053 C 
HETATM   15  C22 UNL     1      25.880   2.729  51.095  1.00  0.00     0.177 C 
HETATM   16  O4  UNL     1      25.321   3.001  49.861  1.00  0.00    -0.355 OA
ENDROOT
BRANCH   7  17
HETATM   17  C11 UNL     1      21.833   3.603  46.366  1.00  0.00     0.037 C 
HETATM   18  C12 UNL     1      20.722   3.770  45.674  1.00  0.00     0.077 C 
HETATM   19  S1  UNL     1      20.568   4.147  43.899  1.00  0.00    -0.047 SA
HETATM   20  C14 UNL     1      19.308   3.705  46.058  1.00  0.00     0.264 C 
HETATM   21  C13 UNL     1      18.996   5.034  44.084  1.00  0.00     0.167 C 
HETATM   22  N1  UNL     1      18.473   5.996  43.432  1.00  0.00    -0.278 NA
HETATM   23  N2  UNL     1      18.417   4.376  45.207  1.00  0.00    -0.301 N 
HETATM   24  H12 UNL     1      18.921   6.454  42.618  1.00  0.00     0.189 HD
HETATM   25  H13 UNL     1      17.364   4.413  45.365  1.00  0.00     0.171 HD
HETATM   26  O1  UNL     1      18.923   3.071  47.104  1.00  0.00    -0.267 OA
ENDBRANCH   7  17
BRANCH  11  27
HETATM   27  O2  UNL     1      22.880   5.061  50.952  1.00  0.00    -0.352 OA
HETATM   28  C19 UNL     1      21.974   5.926  51.564  1.00  0.00     0.210 C 
ENDBRANCH  11  27
BRANCH   1  29
HETATM   29  C3  UNL     1      27.015   4.561  49.281  1.00  0.00     0.028 C 
HETATM   30  C2  UNL     1      27.687   5.331  48.418  1.00  0.00    -0.028 C 
HETATM   31  C1  UNL     1      29.136   5.671  48.427  1.00  0.00     0.036 C 
ENDBRANCH   1  29
TORSDOF 3
ENDMDL
MODEL 6
REMARK VINA RESULT:      -7.6      6.830      9.459
REMARK  3 active torsions:
REMARK  status: ('A' for Active; 'I' for Inactive)
REMARK    1  A    between atoms: C3_3  and  C4_4 
REMARK    2  A    between atoms: C10_10  and  C11_11 
REMARK    3  A    between atoms: C18_22  and  O2_23 
ROOT
HETATM    1  C4  UNL     1      28.336   8.335  45.741  1.00  0.00     0.055 C 
HETATM    2  C5  UNL     1      28.911   7.559  46.624  1.00  0.00     0.085 C 
HETATM    3  C6  UNL     1      28.941   6.524  47.640  1.00  0.00    -0.071 C 
HETATM    4  C7  UNL     1      28.206   5.526  48.459  1.00  0.00     0.044 C 
HETATM    5  C8  UNL     1      30.163   6.312  48.104  1.00  0.00     0.018 C 
HETATM    6  C9  UNL     1      30.942   7.262  47.330  1.00  0.00     0.011 A 
HETATM    7  C10 UNL     1      31.716   6.624  46.415  1.00  0.00    -0.021 A 
HETATM    8  C15 UNL     1      32.491   7.336  45.487  1.00  0.00     0.015 A 
HETATM    9  C16 UNL     1      32.382   8.732  45.603  1.00  0.00     0.040 A 
HETATM   10  C17 UNL     1      31.565   9.343  46.571  1.00  0.00     0.102 A 
HETATM   11  C18 UNL     1      30.822   8.612  47.469  1.00  0.00     0.112 A 
HETATM   12  O3  UNL     1      31.707  10.679  46.374  1.00  0.00    -0.348 OA
HETATM   13  C20 UNL     1      30.865  11.718  46.149  1.00  0.00     0.178 C 
HETATM   14  C21 UNL     1      30.015  11.582  44.924  1.00  0.00     0.053 C 
HETATM   15  C22 UNL     1      28.934  10.566  44.969  1.00  0.00     0.177 C 
HETATM   16  O4  UNL     1      29.247   9.225  45.097  1.00  0.00    -0.355 OA
ENDROOT
BRANCH   7  17
HETATM   17  C11 UNL     1      31.795   5.146  46.365  1.00  0.00     0.037 C 
HETATM   18  C12 UNL     1      32.641   4.256  46.847  1.00  0.00     0.077 C 
HETATM   19  S1  UNL     1      32.561   2.444  46.676  1.00  0.00    -0.047 SA
HETATM   20  C14 UNL     1      33.873   4.396  47.631  1.00  0.00     0.264 C 
HETATM   21  C13 UNL     1      33.416   2.121  48.243  1.00  0.00     0.167 C 
HETATM   22  N1  UNL     1      33.340   1.162  49.078  1.00  0.00    -0.278 NA
HETATM   23  N2  UNL     1      34.262   3.261  48.358  1.00  0.00    -0.301 N 
HETATM   24  H12 UNL     1      32.712   0.345  48.966  1.00  0.00     0.189 HD
HETATM   25  H13 UNL     1      35.134   3.222  48.970  1.00  0.00     0.171 HD
HETATM   26  O1  UNL     1      34.543   5.490  47.642  1.00  0.00    -0.267 OA
ENDBRANCH   7  17
BRANCH  11  27
HETATM   27  O2  UNL     1      30.070   9.300  48.369  1.00  0.00    -0.352 OA
HETATM   28  C19 UNL     1      30.472   9.855  49.584  1.00  0.00     0.210 C 
ENDBRANCH  11  27
BRANCH   1  29
HETATM   29  C3  UNL     1      26.970   8.560  45.210  1.00  0.00     0.028 C 
HETATM   30  C2  UNL     1      25.832   8.442  45.903  1.00  0.00    -0.028 C 
HETATM   31  C1  UNL     1      24.439   8.655  45.423  1.00  0.00     0.036 C 
ENDBRANCH   1  29
TORSDOF 3
ENDMDL
MODEL 7
REMARK VINA RESULT:      -7.6      3.889      6.337
REMARK  3 active torsions:
REMARK  status: ('A' for Active; 'I' for Inactive)
REMARK    1  A    between atoms: C3_3  and  C4_4 
REMARK    2  A    between atoms: C10_10  and  C11_11 
REMARK    3  A    between atoms: C18_22  and  O2_23 
ROOT
HETATM    1  C4  UNL     1      21.517   1.406  52.424  1.00  0.00     0.055 C 
HETATM    2  C5  UNL     1      21.977   2.581  52.077  1.00  0.00     0.085 C 
HETATM    3  C6  UNL     1      22.657   3.842  52.302  1.00  0.00    -0.071 C 
HETATM    4  C7  UNL     1      23.379   4.747  53.233  1.00  0.00     0.044 C 
HETATM    5  C8  UNL     1      22.692   4.594  51.214  1.00  0.00     0.018 C 
HETATM    6  C9  UNL     1      22.001   3.754  50.252  1.00  0.00     0.011 A 
HETATM    7  C10 UNL     1      22.867   3.255  49.333  1.00  0.00    -0.021 A 
HETATM    8  C15 UNL     1      22.449   2.343  48.353  1.00  0.00     0.015 A 
HETATM    9  C16 UNL     1      21.087   2.010  48.424  1.00  0.00     0.040 A 
HETATM   10  C17 UNL     1      20.231   2.557  49.398  1.00  0.00     0.102 A 
HETATM   11  C18 UNL     1      20.675   3.454  50.342  1.00  0.00     0.112 A 
HETATM   12  O3  UNL     1      19.014   2.004  49.162  1.00  0.00    -0.348 OA
HETATM   13  C20 UNL     1      18.110   1.307  49.895  1.00  0.00     0.178 C 
HETATM   14  C21 UNL     1      18.628   0.028  50.477  1.00  0.00     0.053 C 
HETATM   15  C22 UNL     1      19.608   0.146  51.585  1.00  0.00     0.177 C 
HETATM   16  O4  UNL     1      20.840   0.732  51.362  1.00  0.00    -0.355 OA
ENDROOT
BRANCH   7  17
HETATM   17  C11 UNL     1      24.289   3.667  49.307  1.00  0.00     0.037 C 
HETATM   18  C12 UNL     1      24.921   4.763  48.931  1.00  0.00     0.077 C 
HETATM   19  S1  UNL     1      26.713   5.083  48.981  1.00  0.00    -0.047 SA
HETATM   20  C14 UNL     1      24.440   6.028  48.364  1.00  0.00     0.264 C 
HETATM   21  C13 UNL     1      26.527   6.874  49.193  1.00  0.00     0.167 C 
HETATM   22  N1  UNL     1      27.248   7.748  49.777  1.00  0.00    -0.278 NA
HETATM   23  N2  UNL     1      25.300   7.126  48.514  1.00  0.00    -0.301 N 
HETATM   24  H12 UNL     1      28.137   7.532  50.264  1.00  0.00     0.189 HD
HETATM   25  H13 UNL     1      25.078   8.104  48.153  1.00  0.00     0.171 HD
HETATM   26  O1  UNL     1      23.305   6.112  47.773  1.00  0.00    -0.267 OA
ENDBRANCH   7  17
BRANCH  11  27
HETATM   27  O2  UNL     1      19.766   3.929  51.234  1.00  0.00    -0.352 OA
HETATM   28  C19 UNL     1      18.617   4.678  50.980  1.00  0.00     0.210 C 
ENDBRANCH  11  27
BRANCH   1  29
HETATM   29  C3  UNL     1      21.493   0.557  53.639  1.00  0.00     0.028 C 
HETATM   30  C2  UNL     1      22.388  -0.387  53.952  1.00  0.00    -0.028 C 
HETATM   31  C1  UNL     1      22.413  -1.265  55.154  1.00  0.00     0.036 C 
ENDBRANCH   1  29
TORSDOF 3
ENDMDL
MODEL 8
REMARK VINA RESULT:      -7.5      7.715     10.798
REMARK  3 active torsions:
REMARK  status: ('A' for Active; 'I' for Inactive)
REMARK    1  A    between atoms: C3_3  and  C4_4 
REMARK    2  A    between atoms: C10_10  and  C11_11 
REMARK    3  A    between atoms: C18_22  and  O2_23 
ROOT
HETATM    1  C4  UNL     1      33.680   6.916  45.049  1.00  0.00     0.055 C 
HETATM    2  C5  UNL     1      33.173   7.436  46.138  1.00  0.00     0.085 C 
HETATM    3  C6  UNL     1      32.803   8.523  47.024  1.00  0.00    -0.071 C 
HETATM    4  C7  UNL     1      32.766   9.983  47.296  1.00  0.00     0.044 C 
HETATM    5  C8  UNL     1      32.217   8.092  48.130  1.00  0.00     0.018 C 
HETATM    6  C9  UNL     1      32.215   6.654  47.921  1.00  0.00     0.011 A 
HETATM    7  C10 UNL     1      30.959   6.202  47.673  1.00  0.00    -0.021 A 
HETATM    8  C15 UNL     1      30.715   4.859  47.351  1.00  0.00     0.015 A 
HETATM    9  C16 UNL     1      31.870   4.061  47.312  1.00  0.00     0.040 A 
HETATM   10  C17 UNL     1      33.150   4.581  47.578  1.00  0.00     0.102 A 
HETATM   11  C18 UNL     1      33.351   5.904  47.896  1.00  0.00     0.112 A 
HETATM   12  O3  UNL     1      34.002   3.533  47.439  1.00  0.00    -0.348 OA
HETATM   13  C20 UNL     1      35.118   3.285  46.709  1.00  0.00     0.178 C 
HETATM   14  C21 UNL     1      34.935   3.391  45.227  1.00  0.00     0.053 C 
HETATM   15  C22 UNL     1      34.735   4.754  44.673  1.00  0.00     0.177 C 
HETATM   16  O4  UNL     1      33.620   5.490  45.027  1.00  0.00    -0.355 OA
ENDROOT
BRANCH   7  17
HETATM   17  C11 UNL     1      29.784   7.100  47.752  1.00  0.00     0.037 C 
HETATM   18  C12 UNL     1      28.544   6.955  48.180  1.00  0.00     0.077 C 
HETATM   19  S1  UNL     1      27.222   8.208  48.195  1.00  0.00    -0.047 SA
HETATM   20  C14 UNL     1      27.830   5.806  48.748  1.00  0.00     0.264 C 
HETATM   21  C13 UNL     1      26.378   7.497  49.636  1.00  0.00     0.167 C 
HETATM   22  N1  UNL     1      25.673   8.021  50.559  1.00  0.00    -0.278 NA
HETATM   23  N2  UNL     1      26.694   6.114  49.510  1.00  0.00    -0.301 N 
HETATM   24  H12 UNL     1      25.462   9.033  50.623  1.00  0.00     0.189 HD
HETATM   25  H13 UNL     1      26.082   5.380  49.982  1.00  0.00     0.171 HD
HETATM   26  O1  UNL     1      28.229   4.603  48.552  1.00  0.00    -0.267 OA
ENDBRANCH   7  17
BRANCH  11  27
HETATM   27  O2  UNL     1      34.627   6.303  48.144  1.00  0.00    -0.352 OA
HETATM   28  C19 UNL     1      35.477   5.892  49.170  1.00  0.00     0.210 C 
ENDBRANCH  11  27
BRANCH   1  29
HETATM   29  C3  UNL     1      34.321   7.402  43.803  1.00  0.00     0.028 C 
HETATM   30  C2  UNL     1      33.698   8.016  42.791  1.00  0.00    -0.028 C 
HETATM   31  C1  UNL     1      34.288   8.522  41.522  1.00  0.00     0.036 C 
ENDBRANCH   1  29
TORSDOF 3
ENDMDL
MODEL 9
REMARK VINA RESULT:      -7.5      2.094      4.414
REMARK  3 active torsions:
REMARK  status: ('A' for Active; 'I' for Inactive)
REMARK    1  A    between atoms: C3_3  and  C4_4 
REMARK    2  A    between atoms: C10_10  and  C11_11 
REMARK    3  A    between atoms: C18_22  and  O2_23 
ROOT
HETATM    1  C4  UNL     1      22.069   4.498  48.694  1.00  0.00     0.055 C 
HETATM    2  C5  UNL     1      22.450   4.213  49.913  1.00  0.00     0.085 C 
HETATM    3  C6  UNL     1      22.252   3.765  51.279  1.00  0.00    -0.071 C 
HETATM    4  C7  UNL     1      21.329   3.269  52.332  1.00  0.00     0.044 C 
HETATM    5  C8  UNL     1      23.376   3.778  51.979  1.00  0.00     0.018 C 
HETATM    6  C9  UNL     1      24.332   4.252  50.994  1.00  0.00     0.011 A 
HETATM    7  C10 UNL     1      25.167   3.254  50.608  1.00  0.00    -0.021 A 
HETATM    8  C15 UNL     1      26.120   3.447  49.597  1.00  0.00     0.015 A 
HETATM    9  C16 UNL     1      26.115   4.738  49.045  1.00  0.00     0.040 A 
HETATM   10  C17 UNL     1      25.227   5.738  49.483  1.00  0.00     0.102 A 
HETATM   11  C18 UNL     1      24.308   5.514  50.482  1.00  0.00     0.112 A 
HETATM   12  O3  UNL     1      25.508   6.829  48.724  1.00  0.00    -0.348 OA
HETATM   13  C20 UNL     1      24.796   7.655  47.918  1.00  0.00     0.178 C 
HETATM   14  C21 UNL     1      24.114   6.978  46.771  1.00  0.00     0.053 C 
HETATM   15  C22 UNL     1      22.955   6.110  47.099  1.00  0.00     0.177 C 
HETATM   16  O4  UNL     1      23.133   4.978  47.872  1.00  0.00    -0.355 OA
ENDROOT
BRANCH   7  17
HETATM   17  C11 UNL     1      25.127   1.920  51.250  1.00  0.00     0.037 C 
HETATM   18  C12 UNL     1      25.909   1.289  52.104  1.00  0.00     0.077 C 
HETATM   19  S1  UNL     1      25.681  -0.383  52.791  1.00  0.00    -0.047 SA
HETATM   20  C14 UNL     1      27.166   1.675  52.754  1.00  0.00     0.264 C 
HETATM   21  C13 UNL     1      26.542  -0.011  54.343  1.00  0.00     0.167 C 
HETATM   22  N1  UNL     1      26.409  -0.465  55.527  1.00  0.00    -0.278 NA
HETATM   23  N2  UNL     1      27.480   0.979  53.931  1.00  0.00    -0.301 N 
HETATM   24  H12 UNL     1      25.715  -1.187  55.795  1.00  0.00     0.189 HD
HETATM   25  H13 UNL     1      28.359   1.157  54.507  1.00  0.00     0.171 HD
HETATM   26  O1  UNL     1      27.921   2.591  52.269  1.00  0.00    -0.267 OA
ENDBRANCH   7  17
BRANCH  11  27
HETATM   27  O2  UNL     1      23.501   6.550  50.836  1.00  0.00    -0.352 OA
HETATM   28  C19 UNL     1      23.868   7.847  51.193  1.00  0.00     0.210 C 
ENDBRANCH  11  27
BRANCH   1  29
HETATM   29  C3  UNL     1      20.814   4.467  47.907  1.00  0.00     0.028 C 
HETATM   30  C2  UNL     1      20.127   3.370  47.571  1.00  0.00    -0.028 C 
HETATM   31  C1  UNL     1      18.866   3.281  46.785  1.00  0.00     0.036 C 
ENDBRANCH   1  29
TORSDOF 3
ENDMDL
