MODEL 1
REMARK VINA RESULT:      -6.7      0.000      0.000
REMARK  9 active torsions:
REMARK  status: ('A' for Active; 'I' for Inactive)
REMARK    1  A    between atoms: O1_2  and  C2_3 
REMARK    2  A    between atoms: C6_8  and  O2_9 
REMARK    3  A    between atoms: O2_9  and  C7_10 
REMARK    4  A    between atoms: C7_10  and  C8_11 
REMARK    5  A    between atoms: C9_12  and  C10_14 
REMARK    6  A    between atoms: C10_14  and  C11_15 
REMARK    7  A    between atoms: C11_15  and  P1_16 
REMARK    8  A    between atoms: P1_16  and  N2_17 
REMARK    9  A    between atoms: C14_20  and  O3_21 
ROOT
HETATM    1  C2  UNL     1      26.876  -0.189  53.899  1.00  0.00     0.104 A 
HETATM    2  C3  UNL     1      25.807  -0.793  53.466  1.00  0.00     0.071 A 
HETATM    3  C4  UNL     1      24.765   0.170  53.086  1.00  0.00     0.067 A 
HETATM    4  N1  UNL     1      23.565   0.159  52.619  1.00  0.00    -0.282 NA
HETATM    5  C5  UNL     1      22.775   1.324  52.343  1.00  0.00     0.214 A 
HETATM    6  C6  UNL     1      23.455   2.587  52.641  1.00  0.00     0.067 A 
HETATM    7  C12 UNL     1      24.683   2.711  53.122  1.00  0.00     0.050 A 
HETATM    8  C13 UNL     1      25.418   1.463  53.375  1.00  0.00     0.031 A 
HETATM    9  C14 UNL     1      26.655   1.259  53.851  1.00  0.00     0.114 A 
ENDROOT
BRANCH   6  10
HETATM   10  O2  UNL     1      22.753   3.760  52.398  1.00  0.00    -0.350 OA
BRANCH  10  11
HETATM   11  C7  UNL     1      22.608   4.294  51.093  1.00  0.00     0.206 C 
BRANCH  11  12
HETATM   12  C8  UNL     1      22.677   5.764  51.134  1.00  0.00     0.042 C 
HETATM   13  C9  UNL     1      23.872   6.308  50.846  1.00  0.00     0.122 C 
HETATM   14  F1  UNL     1      24.724   5.285  50.588  1.00  0.00    -0.206 F 
BRANCH  13  15
HETATM   15  C10 UNL     1      23.905   7.786  50.895  1.00  0.00     0.099 C 
BRANCH  15  16
HETATM   16  C11 UNL     1      25.003   8.266  50.327  1.00  0.00    -0.099 C 
BRANCH  16  17
HETATM   17  P1  UNL     1      26.543   8.661  49.844  1.00  0.00     0.083 P 
BRANCH  17  18
HETATM   18  N2  UNL     1      27.595   9.523  51.039  1.00  0.00    -0.295 NA
HETATM   19  H11 UNL     1      26.954  10.101  51.630  1.00  0.00     0.124 HD
HETATM   20  H12 UNL     1      28.228  10.154  50.467  1.00  0.00     0.124 HD
ENDBRANCH  17  18
ENDBRANCH  16  17
ENDBRANCH  15  16
ENDBRANCH  13  15
ENDBRANCH  11  12
ENDBRANCH  10  11
ENDBRANCH   6  10
BRANCH   9  21
HETATM   21  O3  UNL     1      27.512   2.290  54.211  1.00  0.00    -0.352 OA
HETATM   22  C15 UNL     1      28.734   2.565  53.587  1.00  0.00     0.210 C 
ENDBRANCH   9  21
BRANCH   1  23
HETATM   23  O1  UNL     1      28.059  -0.763  54.344  1.00  0.00    -0.353 OA
HETATM   24  C1  UNL     1      29.057  -1.296  53.526  1.00  0.00     0.210 C 
ENDBRANCH   1  23
TORSDOF 9
ENDMDL
MODEL 2
REMARK VINA RESULT:      -6.6      2.738      4.243
REMARK  9 active torsions:
REMARK  status: ('A' for Active; 'I' for Inactive)
REMARK    1  A    between atoms: O1_2  and  C2_3 
REMARK    2  A    between atoms: C6_8  and  O2_9 
REMARK    3  A    between atoms: O2_9  and  C7_10 
REMARK    4  A    between atoms: C7_10  and  C8_11 
REMARK    5  A    between atoms: C9_12  and  C10_14 
REMARK    6  A    between atoms: C10_14  and  C11_15 
REMARK    7  A    between atoms: C11_15  and  P1_16 
REMARK    8  A    between atoms: P1_16  and  N2_17 
REMARK    9  A    between atoms: C14_20  and  O3_21 
ROOT
HETATM    1  C2  UNL     1      23.172  -0.400  53.407  1.00  0.00     0.104 A 
HETATM    2  C3  UNL     1      24.355  -0.570  53.922  1.00  0.00     0.071 A 
HETATM    3  C4  UNL     1      25.350   0.295  53.275  1.00  0.00     0.067 A 
HETATM    4  N1  UNL     1      26.610   0.547  53.358  1.00  0.00    -0.282 NA
HETATM    5  C5  UNL     1      27.320   1.493  52.546  1.00  0.00     0.214 A 
HETATM    6  C6  UNL     1      26.477   2.186  51.569  1.00  0.00     0.067 A 
HETATM    7  C12 UNL     1      25.176   2.003  51.399  1.00  0.00     0.050 A 
HETATM    8  C13 UNL     1      24.533   1.014  52.277  1.00  0.00     0.031 A 
HETATM    9  C14 UNL     1      23.256   0.611  52.350  1.00  0.00     0.114 A 
ENDROOT
BRANCH   6  10
HETATM   10  O2  UNL     1      27.093   3.118  50.745  1.00  0.00    -0.350 OA
BRANCH  10  11
HETATM   11  C7  UNL     1      26.452   3.651  49.599  1.00  0.00     0.206 C 
BRANCH  11  12
HETATM   12  C8  UNL     1      27.322   4.638  48.940  1.00  0.00     0.042 C 
HETATM   13  C9  UNL     1      26.756   5.820  48.642  1.00  0.00     0.122 C 
HETATM   14  F1  UNL     1      25.467   5.761  49.057  1.00  0.00    -0.206 F 
BRANCH  13  15
HETATM   15  C10 UNL     1      27.659   6.787  47.981  1.00  0.00     0.099 C 
BRANCH  15  16
HETATM   16  C11 UNL     1      27.723   7.929  48.652  1.00  0.00    -0.099 C 
BRANCH  16  17
HETATM   17  P1  UNL     1      28.147   9.328  49.443  1.00  0.00     0.083 P 
BRANCH  17  18
HETATM   18  N2  UNL     1      27.607   9.508  51.162  1.00  0.00    -0.295 NA
HETATM   19  H11 UNL     1      27.792   8.589  51.625  1.00  0.00     0.124 HD
HETATM   20  H12 UNL     1      26.562   9.689  51.121  1.00  0.00     0.124 HD
ENDBRANCH  17  18
ENDBRANCH  16  17
ENDBRANCH  15  16
ENDBRANCH  13  15
ENDBRANCH  11  12
ENDBRANCH  10  11
ENDBRANCH   6  10
BRANCH   9  21
HETATM   21  O3  UNL     1      22.251   1.113  51.533  1.00  0.00    -0.352 OA
HETATM   22  C15 UNL     1      21.419   2.189  51.863  1.00  0.00     0.210 C 
ENDBRANCH   9  21
BRANCH   1  23
HETATM   23  O1  UNL     1      21.989  -1.037  53.757  1.00  0.00    -0.353 OA
HETATM   24  C1  UNL     1      20.961  -0.473  54.516  1.00  0.00     0.210 C 
ENDBRANCH   1  23
TORSDOF 9
ENDMDL
MODEL 3
REMARK VINA RESULT:      -6.4      3.673      4.480
REMARK  9 active torsions:
REMARK  status: ('A' for Active; 'I' for Inactive)
REMARK    1  A    between atoms: O1_2  and  C2_3 
REMARK    2  A    between atoms: C6_8  and  O2_9 
REMARK    3  A    between atoms: O2_9  and  C7_10 
REMARK    4  A    between atoms: C7_10  and  C8_11 
REMARK    5  A    between atoms: C9_12  and  C10_14 
REMARK    6  A    between atoms: C10_14  and  C11_15 
REMARK    7  A    between atoms: C11_15  and  P1_16 
REMARK    8  A    between atoms: P1_16  and  N2_17 
REMARK    9  A    between atoms: C14_20  and  O3_21 
ROOT
HETATM    1  C2  UNL     1      23.482   0.036  53.137  1.00  0.00     0.104 A 
HETATM    2  C3  UNL     1      22.764   0.754  52.323  1.00  0.00     0.071 A 
HETATM    3  C4  UNL     1      23.605   1.632  51.498  1.00  0.00     0.067 A 
HETATM    4  N1  UNL     1      23.462   2.515  50.572  1.00  0.00    -0.282 NA
HETATM    5  C5  UNL     1      24.532   3.230  49.939  1.00  0.00     0.214 A 
HETATM    6  C6  UNL     1      25.862   2.873  50.439  1.00  0.00     0.067 A 
HETATM    7  C12 UNL     1      26.121   1.982  51.385  1.00  0.00     0.050 A 
HETATM    8  C13 UNL     1      24.962   1.298  51.978  1.00  0.00     0.031 A 
HETATM    9  C14 UNL     1      24.896   0.364  52.937  1.00  0.00     0.114 A 
ENDROOT
BRANCH   6  10
HETATM   10  O2  UNL     1      26.950   3.523  49.873  1.00  0.00    -0.350 OA
BRANCH  10  11
HETATM   11  C7  UNL     1      26.827   4.787  49.242  1.00  0.00     0.206 C 
BRANCH  11  12
HETATM   12  C8  UNL     1      28.053   5.102  48.490  1.00  0.00     0.042 C 
HETATM   13  C9  UNL     1      28.247   6.399  48.194  1.00  0.00     0.122 C 
HETATM   14  F1  UNL     1      27.195   7.086  48.702  1.00  0.00    -0.206 F 
BRANCH  13  15
HETATM   15  C10 UNL     1      29.488   6.679  47.439  1.00  0.00     0.099 C 
BRANCH  15  16
HETATM   16  C11 UNL     1      30.545   6.714  48.239  1.00  0.00    -0.099 C 
BRANCH  16  17
HETATM   17  P1  UNL     1      31.640   6.668  49.488  1.00  0.00     0.083 P 
BRANCH  17  18
HETATM   18  N2  UNL     1      31.446   5.350  50.716  1.00  0.00    -0.295 NA
HETATM   19  H11 UNL     1      30.840   4.623  50.272  1.00  0.00     0.124 HD
HETATM   20  H12 UNL     1      30.940   5.792  51.538  1.00  0.00     0.124 HD
ENDBRANCH  17  18
ENDBRANCH  16  17
ENDBRANCH  15  16
ENDBRANCH  13  15
ENDBRANCH  11  12
ENDBRANCH  10  11
ENDBRANCH   6  10
BRANCH   9  21
HETATM   21  O3  UNL     1      26.016  -0.150  53.578  1.00  0.00    -0.352 OA
HETATM   22  C15 UNL     1      26.475   0.265  54.833  1.00  0.00     0.210 C 
ENDBRANCH   9  21
BRANCH   1  23
HETATM   23  O1  UNL     1      23.043  -0.901  54.062  1.00  0.00    -0.353 OA
HETATM   24  C1  UNL     1      21.836  -0.843  54.763  1.00  0.00     0.210 C 
ENDBRANCH   1  23
TORSDOF 9
ENDMDL
MODEL 4
REMARK VINA RESULT:      -6.2      2.874      3.991
REMARK  9 active torsions:
REMARK  status: ('A' for Active; 'I' for Inactive)
REMARK    1  A    between atoms: O1_2  and  C2_3 
REMARK    2  A    between atoms: C6_8  and  O2_9 
REMARK    3  A    between atoms: O2_9  and  C7_10 
REMARK    4  A    between atoms: C7_10  and  C8_11 
REMARK    5  A    between atoms: C9_12  and  C10_14 
REMARK    6  A    between atoms: C10_14  and  C11_15 
REMARK    7  A    between atoms: C11_15  and  P1_16 
REMARK    8  A    between atoms: P1_16  and  N2_17 
REMARK    9  A    between atoms: C14_20  and  O3_21 
ROOT
HETATM    1  C2  UNL     1      22.500  -0.165  52.623  1.00  0.00     0.104 A 
HETATM    2  C3  UNL     1      21.763   0.363  51.688  1.00  0.00     0.071 A 
HETATM    3  C4  UNL     1      22.402   1.550  51.106  1.00  0.00     0.067 A 
HETATM    4  N1  UNL     1      22.159   2.431  50.200  1.00  0.00    -0.282 NA
HETATM    5  C5  UNL     1      23.026   3.520  49.852  1.00  0.00     0.214 A 
HETATM    6  C6  UNL     1      24.264   3.566  50.631  1.00  0.00     0.067 A 
HETATM    7  C12 UNL     1      24.613   2.713  51.584  1.00  0.00     0.050 A 
HETATM    8  C13 UNL     1      23.662   1.629  51.873  1.00  0.00     0.031 A 
HETATM    9  C14 UNL     1      23.725   0.627  52.763  1.00  0.00     0.114 A 
ENDROOT
BRANCH   6  10
HETATM   10  O2  UNL     1      25.155   4.593  50.351  1.00  0.00    -0.350 OA
BRANCH  10  11
HETATM   11  C7  UNL     1      26.227   4.431  49.438  1.00  0.00     0.206 C 
BRANCH  11  12
HETATM   12  C8  UNL     1      26.575   5.723  48.825  1.00  0.00     0.042 C 
HETATM   13  C9  UNL     1      27.800   5.807  48.277  1.00  0.00     0.122 C 
HETATM   14  F1  UNL     1      28.401   4.606  48.459  1.00  0.00    -0.206 F 
BRANCH  13  15
HETATM   15  C10 UNL     1      28.115   7.119  47.671  1.00  0.00     0.099 C 
BRANCH  15  16
HETATM   16  C11 UNL     1      27.850   8.115  48.504  1.00  0.00    -0.099 C 
BRANCH  16  17
HETATM   17  P1  UNL     1      27.221   9.390  49.366  1.00  0.00     0.083 P 
BRANCH  17  18
HETATM   18  N2  UNL     1      27.585   9.456  51.139  1.00  0.00    -0.295 NA
HETATM   19  H11 UNL     1      27.507   8.474  51.490  1.00  0.00     0.124 HD
HETATM   20  H12 UNL     1      26.822  10.055  51.570  1.00  0.00     0.124 HD
ENDBRANCH  17  18
ENDBRANCH  16  17
ENDBRANCH  15  16
ENDBRANCH  13  15
ENDBRANCH  11  12
ENDBRANCH  10  11
ENDBRANCH   6  10
BRANCH   9  21
HETATM   21  O3  UNL     1      24.796   0.443  53.627  1.00  0.00    -0.352 OA
HETATM   22  C15 UNL     1      25.564  -0.725  53.704  1.00  0.00     0.210 C 
ENDBRANCH   9  21
BRANCH   1  23
HETATM   23  O1  UNL     1      22.228  -1.287  53.393  1.00  0.00    -0.353 OA
HETATM   24  C1  UNL     1      21.847  -1.273  54.736  1.00  0.00     0.210 C 
ENDBRANCH   1  23
TORSDOF 9
ENDMDL
MODEL 5
REMARK VINA RESULT:      -6.2      1.444      1.526
REMARK  9 active torsions:
REMARK  status: ('A' for Active; 'I' for Inactive)
REMARK    1  A    between atoms: O1_2  and  C2_3 
REMARK    2  A    between atoms: C6_8  and  O2_9 
REMARK    3  A    between atoms: O2_9  and  C7_10 
REMARK    4  A    between atoms: C7_10  and  C8_11 
REMARK    5  A    between atoms: C9_12  and  C10_14 
REMARK    6  A    between atoms: C10_14  and  C11_15 
REMARK    7  A    between atoms: C11_15  and  P1_16 
REMARK    8  A    between atoms: P1_16  and  N2_17 
REMARK    9  A    between atoms: C14_20  and  O3_21 
ROOT
HETATM    1  C2  UNL     1      26.846  -0.096  54.150  1.00  0.00     0.104 A 
HETATM    2  C3  UNL     1      25.773  -0.754  53.819  1.00  0.00     0.071 A 
HETATM    3  C4  UNL     1      24.709   0.150  53.364  1.00  0.00     0.067 A 
HETATM    4  N1  UNL     1      23.497   0.077  52.936  1.00  0.00    -0.282 NA
HETATM    5  C5  UNL     1      22.686   1.197  52.554  1.00  0.00     0.214 A 
HETATM    6  C6  UNL     1      23.358   2.490  52.688  1.00  0.00     0.067 A 
HETATM    7  C12 UNL     1      24.597   2.679  53.117  1.00  0.00     0.050 A 
HETATM    8  C13 UNL     1      25.354   1.473  53.487  1.00  0.00     0.031 A 
HETATM    9  C14 UNL     1      26.606   1.335  53.947  1.00  0.00     0.114 A 
ENDROOT
BRANCH   6  10
HETATM   10  O2  UNL     1      22.636   3.622  52.336  1.00  0.00    -0.350 OA
BRANCH  10  11
HETATM   11  C7  UNL     1      21.880   3.692  51.139  1.00  0.00     0.206 C 
BRANCH  11  12
HETATM   12  C8  UNL     1      22.758   4.001  49.999  1.00  0.00     0.042 C 
HETATM   13  C9  UNL     1      22.599   5.215  49.443  1.00  0.00     0.122 C 
HETATM   14  F1  UNL     1      21.614   5.843  50.132  1.00  0.00    -0.206 F 
BRANCH  13  15
HETATM   15  C10 UNL     1      23.497   5.493  48.301  1.00  0.00     0.099 C 
BRANCH  15  16
HETATM   16  C11 UNL     1      24.590   6.137  48.689  1.00  0.00    -0.099 C 
BRANCH  16  17
HETATM   17  P1  UNL     1      26.112   6.633  49.134  1.00  0.00     0.083 P 
BRANCH  17  18
HETATM   18  N2  UNL     1      26.263   7.577  50.672  1.00  0.00    -0.295 NA
HETATM   19  H11 UNL     1      27.242   7.946  50.695  1.00  0.00     0.124 HD
HETATM   20  H12 UNL     1      26.122   6.877  51.457  1.00  0.00     0.124 HD
ENDBRANCH  17  18
ENDBRANCH  16  17
ENDBRANCH  15  16
ENDBRANCH  13  15
ENDBRANCH  11  12
ENDBRANCH  10  11
ENDBRANCH   6  10
BRANCH   9  21
HETATM   21  O3  UNL     1      27.460   2.408  54.163  1.00  0.00    -0.352 OA
HETATM   22  C15 UNL     1      28.716   2.561  53.564  1.00  0.00     0.210 C 
ENDBRANCH   9  21
BRANCH   1  23
HETATM   23  O1  UNL     1      28.048  -0.605  54.622  1.00  0.00    -0.353 OA
HETATM   24  C1  UNL     1      29.146  -0.951  53.831  1.00  0.00     0.210 C 
ENDBRANCH   1  23
TORSDOF 9
ENDMDL
MODEL 6
REMARK VINA RESULT:      -6.1      3.219      3.781
REMARK  9 active torsions:
REMARK  status: ('A' for Active; 'I' for Inactive)
REMARK    1  A    between atoms: O1_2  and  C2_3 
REMARK    2  A    between atoms: C6_8  and  O2_9 
REMARK    3  A    between atoms: O2_9  and  C7_10 
REMARK    4  A    between atoms: C7_10  and  C8_11 
REMARK    5  A    between atoms: C9_12  and  C10_14 
REMARK    6  A    between atoms: C10_14  and  C11_15 
REMARK    7  A    between atoms: C11_15  and  P1_16 
REMARK    8  A    between atoms: P1_16  and  N2_17 
REMARK    9  A    between atoms: C14_20  and  O3_21 
ROOT
HETATM    1  C2  UNL     1      26.862  -0.086  54.169  1.00  0.00     0.104 A 
HETATM    2  C3  UNL     1      25.792  -0.754  53.847  1.00  0.00     0.071 A 
HETATM    3  C4  UNL     1      24.731   0.136  53.359  1.00  0.00     0.067 A 
HETATM    4  N1  UNL     1      23.522   0.049  52.924  1.00  0.00    -0.282 NA
HETATM    5  C5  UNL     1      22.712   1.157  52.506  1.00  0.00     0.214 A 
HETATM    6  C6  UNL     1      23.381   2.455  52.612  1.00  0.00     0.067 A 
HETATM    7  C12 UNL     1      24.617   2.657  53.045  1.00  0.00     0.050 A 
HETATM    8  C13 UNL     1      25.373   1.463  53.453  1.00  0.00     0.031 A 
HETATM    9  C14 UNL     1      26.621   1.340  53.926  1.00  0.00     0.114 A 
ENDROOT
BRANCH   6  10
HETATM   10  O2  UNL     1      22.660   3.576  52.225  1.00  0.00    -0.350 OA
BRANCH  10  11
HETATM   11  C7  UNL     1      22.866   4.208  50.973  1.00  0.00     0.206 C 
BRANCH  11  12
HETATM   12  C8  UNL     1      22.302   3.388  49.889  1.00  0.00     0.042 C 
HETATM   13  C9  UNL     1      22.887   3.514  48.685  1.00  0.00     0.122 C 
HETATM   14  F1  UNL     1      23.889   4.418  48.822  1.00  0.00    -0.206 F 
BRANCH  13  15
HETATM   15  C10 UNL     1      22.296   2.675  47.620  1.00  0.00     0.099 C 
BRANCH  15  16
HETATM   16  C11 UNL     1      21.857   3.412  46.609  1.00  0.00    -0.099 C 
BRANCH  16  17
HETATM   17  P1  UNL     1      20.992   4.270  45.478  1.00  0.00     0.083 P 
BRANCH  17  18
HETATM   18  N2  UNL     1      20.914   3.591  43.801  1.00  0.00    -0.295 NA
HETATM   19  H11 UNL     1      21.687   2.891  43.732  1.00  0.00     0.124 HD
HETATM   20  H12 UNL     1      21.105   4.407  43.149  1.00  0.00     0.124 HD
ENDBRANCH  17  18
ENDBRANCH  16  17
ENDBRANCH  15  16
ENDBRANCH  13  15
ENDBRANCH  11  12
ENDBRANCH  10  11
ENDBRANCH   6  10
BRANCH   9  21
HETATM   21  O3  UNL     1      27.472   2.420  54.122  1.00  0.00    -0.352 OA
HETATM   22  C15 UNL     1      28.714   2.578  53.498  1.00  0.00     0.210 C 
ENDBRANCH   9  21
BRANCH   1  23
HETATM   23  O1  UNL     1      28.061  -0.580  54.664  1.00  0.00    -0.353 OA
HETATM   24  C1  UNL     1      29.172  -0.927  53.894  1.00  0.00     0.210 C 
ENDBRANCH   1  23
TORSDOF 9
ENDMDL
MODEL 7
REMARK VINA RESULT:      -6.0      1.880      2.554
REMARK  9 active torsions:
REMARK  status: ('A' for Active; 'I' for Inactive)
REMARK    1  A    between atoms: O1_2  and  C2_3 
REMARK    2  A    between atoms: C6_8  and  O2_9 
REMARK    3  A    between atoms: O2_9  and  C7_10 
REMARK    4  A    between atoms: C7_10  and  C8_11 
REMARK    5  A    between atoms: C9_12  and  C10_14 
REMARK    6  A    between atoms: C10_14  and  C11_15 
REMARK    7  A    between atoms: C11_15  and  P1_16 
REMARK    8  A    between atoms: P1_16  and  N2_17 
REMARK    9  A    between atoms: C14_20  and  O3_21 
ROOT
HETATM    1  C2  UNL     1      27.499  -0.103  53.457  1.00  0.00     0.104 A 
HETATM    2  C3  UNL     1      27.721   0.890  52.645  1.00  0.00     0.071 A 
HETATM    3  C4  UNL     1      26.468   1.435  52.108  1.00  0.00     0.067 A 
HETATM    4  N1  UNL     1      26.086   2.367  51.306  1.00  0.00    -0.282 NA
HETATM    5  C5  UNL     1      24.722   2.661  50.971  1.00  0.00     0.214 A 
HETATM    6  C6  UNL     1      23.747   1.791  51.631  1.00  0.00     0.067 A 
HETATM    7  C12 UNL     1      24.030   0.805  52.470  1.00  0.00     0.050 A 
HETATM    8  C13 UNL     1      25.455   0.576  52.755  1.00  0.00     0.031 A 
HETATM    9  C14 UNL     1      26.053  -0.326  53.547  1.00  0.00     0.114 A 
ENDROOT
BRANCH   6  10
HETATM   10  O2  UNL     1      22.405   2.015  51.356  1.00  0.00    -0.350 OA
BRANCH  10  11
HETATM   11  C7  UNL     1      21.630   2.944  52.094  1.00  0.00     0.206 C 
BRANCH  11  12
HETATM   12  C8  UNL     1      21.473   4.195  51.335  1.00  0.00     0.042 C 
HETATM   13  C9  UNL     1      22.115   5.269  51.827  1.00  0.00     0.122 C 
HETATM   14  F1  UNL     1      22.760   4.869  52.950  1.00  0.00    -0.206 F 
BRANCH  13  15
HETATM   15  C10 UNL     1      21.937   6.508  51.038  1.00  0.00     0.099 C 
BRANCH  15  16
HETATM   16  C11 UNL     1      23.102   7.070  50.748  1.00  0.00    -0.099 C 
BRANCH  16  17
HETATM   17  P1  UNL     1      24.424   7.813  50.067  1.00  0.00     0.083 P 
BRANCH  17  18
HETATM   18  N2  UNL     1      26.034   7.521  50.842  1.00  0.00    -0.295 NA
HETATM   19  H11 UNL     1      26.433   6.673  50.378  1.00  0.00     0.124 HD
HETATM   20  H12 UNL     1      25.831   7.313  51.863  1.00  0.00     0.124 HD
ENDBRANCH  17  18
ENDBRANCH  16  17
ENDBRANCH  15  16
ENDBRANCH  13  15
ENDBRANCH  11  12
ENDBRANCH  10  11
ENDBRANCH   6  10
BRANCH   9  21
HETATM   21  O3  UNL     1      25.354  -1.271  54.287  1.00  0.00    -0.352 OA
HETATM   22  C15 UNL     1      24.860  -1.062  55.580  1.00  0.00     0.210 C 
ENDBRANCH   9  21
BRANCH   1  23
HETATM   23  O1  UNL     1      28.429  -0.863  54.152  1.00  0.00    -0.353 OA
HETATM   24  C1  UNL     1      29.779  -0.993  53.818  1.00  0.00     0.210 C 
ENDBRANCH   1  23
TORSDOF 9
ENDMDL
MODEL 8
REMARK VINA RESULT:      -5.8      4.713      7.981
REMARK  9 active torsions:
REMARK  status: ('A' for Active; 'I' for Inactive)
REMARK    1  A    between atoms: O1_2  and  C2_3 
REMARK    2  A    between atoms: C6_8  and  O2_9 
REMARK    3  A    between atoms: O2_9  and  C7_10 
REMARK    4  A    between atoms: C7_10  and  C8_11 
REMARK    5  A    between atoms: C9_12  and  C10_14 
REMARK    6  A    between atoms: C10_14  and  C11_15 
REMARK    7  A    between atoms: C11_15  and  P1_16 
REMARK    8  A    between atoms: P1_16  and  N2_17 
REMARK    9  A    between atoms: C14_20  and  O3_21 
ROOT
HETATM    1  C2  UNL     1      27.376   7.207  47.805  1.00  0.00     0.104 A 
HETATM    2  C3  UNL     1      26.136   7.332  48.180  1.00  0.00     0.071 A 
HETATM    3  C4  UNL     1      25.673   6.142  48.906  1.00  0.00     0.067 A 
HETATM    4  N1  UNL     1      24.602   5.718  49.481  1.00  0.00    -0.282 NA
HETATM    5  C5  UNL     1      24.462   4.447  50.132  1.00  0.00     0.214 A 
HETATM    6  C6  UNL     1      25.673   3.625  50.099  1.00  0.00     0.067 A 
HETATM    7  C12 UNL     1      26.824   3.963  49.536  1.00  0.00     0.050 A 
HETATM    8  C13 UNL     1      26.876   5.284  48.891  1.00  0.00     0.031 A 
HETATM    9  C14 UNL     1      27.877   5.903  48.248  1.00  0.00     0.114 A 
ENDROOT
BRANCH   6  10
HETATM   10  O2  UNL     1      25.614   2.380  50.710  1.00  0.00    -0.350 OA
BRANCH  10  11
HETATM   11  C7  UNL     1      26.631   1.922  51.584  1.00  0.00     0.206 C 
BRANCH  11  12
HETATM   12  C8  UNL     1      26.037   1.349  52.802  1.00  0.00     0.042 C 
HETATM   13  C9  UNL     1      25.988   0.007  52.861  1.00  0.00     0.122 C 
HETATM   14  F1  UNL     1      26.531  -0.463  51.711  1.00  0.00    -0.206 F 
BRANCH  13  15
HETATM   15  C10 UNL     1      25.385  -0.535  54.099  1.00  0.00     0.099 C 
BRANCH  15  16
HETATM   16  C11 UNL     1      24.069  -0.651  53.987  1.00  0.00    -0.099 C 
BRANCH  16  17
HETATM   17  P1  UNL     1      22.438  -0.469  53.726  1.00  0.00     0.083 P 
BRANCH  17  18
HETATM   18  N2  UNL     1      21.314  -1.219  54.932  1.00  0.00    -0.295 NA
HETATM   19  H11 UNL     1      21.804  -2.067  55.301  1.00  0.00     0.124 HD
HETATM   20  H12 UNL     1      20.452  -1.509  54.385  1.00  0.00     0.124 HD
ENDBRANCH  17  18
ENDBRANCH  16  17
ENDBRANCH  15  16
ENDBRANCH  13  15
ENDBRANCH  11  12
ENDBRANCH  10  11
ENDBRANCH   6  10
BRANCH   9  21
HETATM   21  O3  UNL     1      29.134   5.340  48.076  1.00  0.00    -0.352 OA
HETATM   22  C15 UNL     1      30.321   5.868  48.597  1.00  0.00     0.210 C 
ENDBRANCH   9  21
BRANCH   1  23
HETATM   23  O1  UNL     1      28.151   8.119  47.102  1.00  0.00    -0.353 OA
HETATM   24  C1  UNL     1      28.839   9.198  47.662  1.00  0.00     0.210 C 
ENDBRANCH   1  23
TORSDOF 9
ENDMDL
MODEL 9
REMARK VINA RESULT:      -5.7      5.005      7.163
REMARK  9 active torsions:
REMARK  status: ('A' for Active; 'I' for Inactive)
REMARK    1  A    between atoms: O1_2  and  C2_3 
REMARK    2  A    between atoms: C6_8  and  O2_9 
REMARK    3  A    between atoms: O2_9  and  C7_10 
REMARK    4  A    between atoms: C7_10  and  C8_11 
REMARK    5  A    between atoms: C9_12  and  C10_14 
REMARK    6  A    between atoms: C10_14  and  C11_15 
REMARK    7  A    between atoms: C11_15  and  P1_16 
REMARK    8  A    between atoms: P1_16  and  N2_17 
REMARK    9  A    between atoms: C14_20  and  O3_21 
ROOT
HETATM    1  C2  UNL     1      27.091  -0.318  53.512  1.00  0.00     0.104 A 
HETATM    2  C3  UNL     1      27.100   0.530  52.525  1.00  0.00     0.071 A 
HETATM    3  C4  UNL     1      25.746   1.008  52.217  1.00  0.00     0.067 A 
HETATM    4  N1  UNL     1      25.170   1.810  51.390  1.00  0.00    -0.282 NA
HETATM    5  C5  UNL     1      23.760   2.074  51.341  1.00  0.00     0.214 A 
HETATM    6  C6  UNL     1      22.983   1.338  52.340  1.00  0.00     0.067 A 
HETATM    7  C12 UNL     1      23.473   0.491  53.234  1.00  0.00     0.050 A 
HETATM    8  C13 UNL     1      24.928   0.282  53.210  1.00  0.00     0.031 A 
HETATM    9  C14 UNL     1      25.711  -0.497  53.972  1.00  0.00     0.114 A 
ENDROOT
BRANCH   6  10
HETATM   10  O2  UNL     1      21.610   1.542  52.354  1.00  0.00    -0.350 OA
BRANCH  10  11
HETATM   11  C7  UNL     1      20.713   0.680  51.675  1.00  0.00     0.206 C 
BRANCH  11  12
HETATM   12  C8  UNL     1      19.876  -0.050  52.641  1.00  0.00     0.042 C 
HETATM   13  C9  UNL     1      18.683  -0.473  52.188  1.00  0.00     0.122 C 
HETATM   14  F1  UNL     1      18.585  -0.080  50.894  1.00  0.00    -0.206 F 
BRANCH  13  15
HETATM   15  C10 UNL     1      17.869  -1.203  53.185  1.00  0.00     0.099 C 
BRANCH  15  16
HETATM   16  C11 UNL     1      16.600  -1.281  52.811  1.00  0.00    -0.099 C 
BRANCH  16  17
HETATM   17  P1  UNL     1      15.112  -1.175  52.078  1.00  0.00     0.083 P 
BRANCH  17  18
HETATM   18  N2  UNL     1      13.651  -1.265  53.144  1.00  0.00    -0.295 NA
HETATM   19  H11 UNL     1      13.604  -2.250  53.495  1.00  0.00     0.124 HD
HETATM   20  H12 UNL     1      12.819  -1.066  52.514  1.00  0.00     0.124 HD
ENDBRANCH  17  18
ENDBRANCH  16  17
ENDBRANCH  15  16
ENDBRANCH  13  15
ENDBRANCH  11  12
ENDBRANCH  10  11
ENDBRANCH   6  10
BRANCH   9  21
HETATM   21  O3  UNL     1      25.222  -1.299  54.995  1.00  0.00    -0.352 OA
HETATM   22  C15 UNL     1      25.088  -0.895  56.328  1.00  0.00     0.210 C 
ENDBRANCH   9  21
BRANCH   1  23
HETATM   23  O1  UNL     1      28.172  -0.978  54.081  1.00  0.00    -0.353 OA
HETATM   24  C1  UNL     1      29.503  -0.846  53.679  1.00  0.00     0.210 C 
ENDBRANCH   1  23
TORSDOF 9
ENDMDL
