MODEL 1
REMARK VINA RESULT:      -7.3      0.000      0.000
REMARK  8 active torsions:
REMARK  status: ('A' for Active; 'I' for Inactive)
REMARK    1  A    between atoms: C3_3  and  C4_4 
REMARK       I    between atoms: C4_4  and  N1_6 
REMARK    2  A    between atoms: N1_6  and  C5_7 
REMARK    3  A    between atoms: C8_10  and  N2_11 
REMARK    4  A    between atoms: N2_11  and  C9_12 
REMARK    5  A    between atoms: C9_12  and  N3_13 
REMARK    6  A    between atoms: C10_14  and  C11_15 
REMARK    7  A    between atoms: C11_15  and  N4_16 
REMARK    8  A    between atoms: N4_16  and  C12_17 
ROOT
HETATM    1  C1  UNL     1      28.730   6.308  47.815  1.00  0.00     0.112 C 
HETATM    2  C2  UNL     1      27.859   5.351  48.517  1.00  0.00    -0.101 C 
HETATM    3  C3  UNL     1      27.163   4.557  49.095  1.00  0.00    -0.006 C 
ENDROOT
BRANCH   3   4
HETATM    4  C4  UNL     1      26.339   3.595  49.811  1.00  0.00     0.300 C 
HETATM    5  O1  UNL     1      25.297   3.126  49.284  1.00  0.00    -0.258 OA
HETATM    6  N1  UNL     1      26.805   3.242  51.125  1.00  0.00    -0.316 N 
HETATM    7  H4  UNL     1      27.671   3.636  51.550  1.00  0.00     0.170 HD
BRANCH   6   8
HETATM    8  C5  UNL     1      25.950   2.300  51.767  1.00  0.00     0.036 A 
HETATM    9  C6  UNL     1      26.624   1.125  52.085  1.00  0.00     0.032 A 
HETATM   10  C7  UNL     1      25.959   0.080  52.722  1.00  0.00     0.035 A 
HETATM   11  C8  UNL     1      24.617   0.237  53.030  1.00  0.00     0.076 A 
HETATM   12  C10 UNL     1      23.978   1.410  52.703  1.00  0.00    -0.009 A 
HETATM   13  C17 UNL     1      24.630   2.452  52.071  1.00  0.00     0.040 A 
BRANCH  11  14
HETATM   14  N2  UNL     1      23.868  -0.794  53.685  1.00  0.00    -0.188 NA
BRANCH  14  15
HETATM   15  C9  UNL     1      24.320  -1.221  54.816  1.00  0.00     0.093 C 
BRANCH  15  16
HETATM   16  N3  UNL     1      24.791  -1.356  56.006  1.00  0.00    -0.241 NA
HETATM   17  H7  UNL     1      25.237  -2.265  56.278  1.00  0.00     0.199 HD
ENDBRANCH  15  16
ENDBRANCH  14  15
ENDBRANCH  11  14
BRANCH  12  18
HETATM   18  C11 UNL     1      22.544   1.684  53.002  1.00  0.00     0.161 C 
BRANCH  18  19
HETATM   19  N4  UNL     1      21.689   0.851  52.141  1.00  0.00    -0.386 N 
HETATM   20  H10 UNL     1      21.985   0.725  51.140  1.00  0.00     0.160 HD
BRANCH  19  21
HETATM   21  C12 UNL     1      20.480   0.180  52.517  1.00  0.00     0.025 A 
HETATM   22  C13 UNL     1      19.910  -0.538  53.466  1.00  0.00     0.007 A 
HETATM   23  C14 UNL     1      18.520  -0.883  53.080  1.00  0.00     0.075 A 
HETATM   24  C15 UNL     1      18.364  -0.247  51.748  1.00  0.00    -0.006 A 
HETATM   25 BR1  UNL     1      16.649  -0.506  50.961  1.00  0.00    -0.055 Br
HETATM   26  C16 UNL     1      19.499   0.365  51.430  1.00  0.00     0.043 A 
ENDBRANCH  19  21
ENDBRANCH  18  19
ENDBRANCH  12  18
ENDBRANCH   6   8
ENDBRANCH   3   4
TORSDOF 8
ENDMDL
MODEL 2
REMARK VINA RESULT:      -6.9      3.284      5.554
REMARK  8 active torsions:
REMARK  status: ('A' for Active; 'I' for Inactive)
REMARK    1  A    between atoms: C3_3  and  C4_4 
REMARK       I    between atoms: C4_4  and  N1_6 
REMARK    2  A    between atoms: N1_6  and  C5_7 
REMARK    3  A    between atoms: C8_10  and  N2_11 
REMARK    4  A    between atoms: N2_11  and  C9_12 
REMARK    5  A    between atoms: C9_12  and  N3_13 
REMARK    6  A    between atoms: C10_14  and  C11_15 
REMARK    7  A    between atoms: C11_15  and  N4_16 
REMARK    8  A    between atoms: N4_16  and  C12_17 
ROOT
HETATM    1  C1  UNL     1      27.630   6.401  48.303  1.00  0.00     0.112 C 
HETATM    2  C2  UNL     1      26.635   5.479  48.875  1.00  0.00    -0.101 C 
HETATM    3  C3  UNL     1      25.834   4.719  49.357  1.00  0.00    -0.006 C 
ENDROOT
BRANCH   3   4
HETATM    4  C4  UNL     1      24.875   3.808  49.961  1.00  0.00     0.300 C 
HETATM    5  O1  UNL     1      24.246   2.978  49.253  1.00  0.00    -0.258 OA
HETATM    6  N1  UNL     1      24.714   3.937  51.384  1.00  0.00    -0.316 N 
HETATM    7  H4  UNL     1      25.242   4.627  51.959  1.00  0.00     0.170 HD
BRANCH   6   8
HETATM    8  C5  UNL     1      23.760   3.017  51.906  1.00  0.00     0.036 A 
HETATM    9  C6  UNL     1      22.460   3.502  51.792  1.00  0.00     0.032 A 
HETATM   10  C7  UNL     1      21.383   2.744  52.244  1.00  0.00     0.035 A 
HETATM   11  C8  UNL     1      21.633   1.502  52.806  1.00  0.00     0.076 A 
HETATM   12  C10 UNL     1      22.928   1.050  52.905  1.00  0.00    -0.009 A 
HETATM   13  C17 UNL     1      24.003   1.795  52.459  1.00  0.00     0.040 A 
BRANCH  11  14
HETATM   14  N2  UNL     1      20.574   0.667  53.292  1.00  0.00    -0.188 NA
BRANCH  14  15
HETATM   15  C9  UNL     1      19.745   0.202  52.419  1.00  0.00     0.093 C 
BRANCH  15  16
HETATM   16  N3  UNL     1      18.713  -0.160  51.740  1.00  0.00    -0.241 NA
HETATM   17  H7  UNL     1      18.159  -0.991  52.059  1.00  0.00     0.199 HD
ENDBRANCH  15  16
ENDBRANCH  14  15
ENDBRANCH  11  14
BRANCH  12  18
HETATM   18  C11 UNL     1      23.302  -0.273  53.479  1.00  0.00     0.161 C 
BRANCH  18  19
HETATM   19  N4  UNL     1      24.686  -0.604  53.101  1.00  0.00    -0.386 N 
HETATM   20  H10 UNL     1      24.833  -1.104  52.189  1.00  0.00     0.160 HD
BRANCH  19  21
HETATM   21  C12 UNL     1      25.875  -0.319  53.848  1.00  0.00     0.025 A 
HETATM   22  C13 UNL     1      26.327   0.197  54.976  1.00  0.00     0.007 A 
HETATM   23  C14 UNL     1      27.809   0.122  55.013  1.00  0.00     0.075 A 
HETATM   24  C15 UNL     1      28.154  -0.524  53.722  1.00  0.00    -0.006 A 
HETATM   25 BR1  UNL     1      30.023  -0.772  53.455  1.00  0.00    -0.055 Br
HETATM   26  C16 UNL     1      27.033  -0.775  53.056  1.00  0.00     0.043 A 
ENDBRANCH  19  21
ENDBRANCH  18  19
ENDBRANCH  12  18
ENDBRANCH   6   8
ENDBRANCH   3   4
TORSDOF 8
ENDMDL
MODEL 3
REMARK VINA RESULT:      -6.7      3.890      6.933
REMARK  8 active torsions:
REMARK  status: ('A' for Active; 'I' for Inactive)
REMARK    1  A    between atoms: C3_3  and  C4_4 
REMARK       I    between atoms: C4_4  and  N1_6 
REMARK    2  A    between atoms: N1_6  and  C5_7 
REMARK    3  A    between atoms: C8_10  and  N2_11 
REMARK    4  A    between atoms: N2_11  and  C9_12 
REMARK    5  A    between atoms: C9_12  and  N3_13 
REMARK    6  A    between atoms: C10_14  and  C11_15 
REMARK    7  A    between atoms: C11_15  and  N4_16 
REMARK    8  A    between atoms: N4_16  and  C12_17 
ROOT
HETATM    1  C1  UNL     1      30.033  -1.489  53.808  1.00  0.00     0.112 C 
HETATM    2  C2  UNL     1      28.845  -0.718  53.406  1.00  0.00    -0.101 C 
HETATM    3  C3  UNL     1      27.882  -0.083  53.061  1.00  0.00    -0.006 C 
ENDROOT
BRANCH   3   4
HETATM    4  C4  UNL     1      26.720   0.673  52.621  1.00  0.00     0.300 C 
HETATM    5  O1  UNL     1      26.701   1.218  51.486  1.00  0.00    -0.258 OA
HETATM    6  N1  UNL     1      25.636   0.742  53.564  1.00  0.00    -0.316 N 
HETATM    7  H4  UNL     1      25.663   0.285  54.500  1.00  0.00     0.170 HD
BRANCH   6   8
HETATM    8  C5  UNL     1      24.535   1.499  53.068  1.00  0.00     0.036 A 
HETATM    9  C6  UNL     1      23.529   0.679  52.567  1.00  0.00     0.032 A 
HETATM   10  C7  UNL     1      22.365   1.232  52.039  1.00  0.00     0.035 A 
HETATM   11  C8  UNL     1      22.233   2.612  52.025  1.00  0.00     0.076 A 
HETATM   12  C10 UNL     1      23.245   3.396  52.527  1.00  0.00    -0.009 A 
HETATM   13  C17 UNL     1      24.403   2.856  53.053  1.00  0.00     0.040 A 
BRANCH  11  14
HETATM   14  N2  UNL     1      21.064   3.252  51.497  1.00  0.00    -0.188 NA
BRANCH  14  15
HETATM   15  C9  UNL     1      19.924   2.721  51.785  1.00  0.00     0.093 C 
BRANCH  15  16
HETATM   16  N3  UNL     1      18.852   2.011  51.843  1.00  0.00    -0.241 NA
HETATM   17  H7  UNL     1      18.279   1.880  50.974  1.00  0.00     0.199 HD
ENDBRANCH  15  16
ENDBRANCH  14  15
ENDBRANCH  11  14
BRANCH  12  18
HETATM   18  C11 UNL     1      23.195   4.885  52.570  1.00  0.00     0.161 C 
BRANCH  18  19
HETATM   19  N4  UNL     1      23.234   5.423  51.201  1.00  0.00    -0.386 N 
HETATM   20  H10 UNL     1      22.315   5.581  50.716  1.00  0.00     0.160 HD
BRANCH  19  21
HETATM   21  C12 UNL     1      24.400   5.760  50.439  1.00  0.00     0.025 A 
HETATM   22  C13 UNL     1      25.255   5.306  49.542  1.00  0.00     0.007 A 
HETATM   23  C14 UNL     1      26.273   6.341  49.237  1.00  0.00     0.075 A 
HETATM   24  C15 UNL     1      25.875   7.480  50.102  1.00  0.00    -0.006 A 
HETATM   25 BR1  UNL     1      27.005   9.006  49.941  1.00  0.00    -0.055 Br
HETATM   26  C16 UNL     1      24.794   7.137  50.792  1.00  0.00     0.043 A 
ENDBRANCH  19  21
ENDBRANCH  18  19
ENDBRANCH  12  18
ENDBRANCH   6   8
ENDBRANCH   3   4
TORSDOF 8
ENDMDL
MODEL 4
REMARK VINA RESULT:      -6.7      3.433      7.192
REMARK  8 active torsions:
REMARK  status: ('A' for Active; 'I' for Inactive)
REMARK    1  A    between atoms: C3_3  and  C4_4 
REMARK       I    between atoms: C4_4  and  N1_6 
REMARK    2  A    between atoms: N1_6  and  C5_7 
REMARK    3  A    between atoms: C8_10  and  N2_11 
REMARK    4  A    between atoms: N2_11  and  C9_12 
REMARK    5  A    between atoms: C9_12  and  N3_13 
REMARK    6  A    between atoms: C10_14  and  C11_15 
REMARK    7  A    between atoms: C11_15  and  N4_16 
REMARK    8  A    between atoms: N4_16  and  C12_17 
ROOT
HETATM    1  C1  UNL     1      17.308  -1.894  53.026  1.00  0.00     0.112 C 
HETATM    2  C2  UNL     1      18.633  -1.320  53.315  1.00  0.00    -0.101 C 
HETATM    3  C3  UNL     1      19.725  -0.864  53.540  1.00  0.00    -0.006 C 
ENDROOT
BRANCH   3   4
HETATM    4  C4  UNL     1      21.050  -0.316  53.788  1.00  0.00     0.300 C 
HETATM    5  O1  UNL     1      21.226   0.556  54.678  1.00  0.00    -0.258 OA
HETATM    6  N1  UNL     1      22.098  -0.841  52.955  1.00  0.00    -0.316 N 
HETATM    7  H4  UNL     1      21.939  -1.564  52.222  1.00  0.00     0.170 HD
BRANCH   6   8
HETATM    8  C5  UNL     1      23.365  -0.259  53.250  1.00  0.00     0.036 A 
HETATM    9  C6  UNL     1      24.001  -0.914  54.300  1.00  0.00     0.032 A 
HETATM   10  C7  UNL     1      25.255  -0.495  54.737  1.00  0.00     0.035 A 
HETATM   11  C8  UNL     1      25.852   0.584  54.105  1.00  0.00     0.076 A 
HETATM   12  C10 UNL     1      25.199   1.212  53.071  1.00  0.00    -0.009 A 
HETATM   13  C17 UNL     1      23.954   0.803  52.630  1.00  0.00     0.040 A 
BRANCH  11  14
HETATM   14  N2  UNL     1      27.141   1.071  54.500  1.00  0.00    -0.188 NA
BRANCH  14  15
HETATM   15  C9  UNL     1      28.132   0.250  54.410  1.00  0.00     0.093 C 
BRANCH  15  16
HETATM   16  N3  UNL     1      28.905  -0.773  54.297  1.00  0.00    -0.241 NA
HETATM   17  H7  UNL     1      28.599  -1.691  54.704  1.00  0.00     0.199 HD
ENDBRANCH  15  16
ENDBRANCH  14  15
ENDBRANCH  11  14
BRANCH  12  18
HETATM   18  C11 UNL     1      25.758   2.370  52.318  1.00  0.00     0.161 C 
BRANCH  18  19
HETATM   19  N4  UNL     1      24.682   3.324  52.003  1.00  0.00    -0.386 N 
HETATM   20  H10 UNL     1      23.871   3.378  52.671  1.00  0.00     0.160 HD
BRANCH  19  21
HETATM   21  C12 UNL     1      24.610   4.201  50.873  1.00  0.00     0.025 A 
HETATM   22  C13 UNL     1      24.904   4.314  49.591  1.00  0.00     0.007 A 
HETATM   23  C14 UNL     1      24.476   5.641  49.084  1.00  0.00     0.075 A 
HETATM   24  C15 UNL     1      23.879   6.290  50.279  1.00  0.00    -0.006 A 
HETATM   25 BR1  UNL     1      23.215   8.046  49.956  1.00  0.00    -0.055 Br
HETATM   26  C16 UNL     1      23.960   5.453  51.306  1.00  0.00     0.043 A 
ENDBRANCH  19  21
ENDBRANCH  18  19
ENDBRANCH  12  18
ENDBRANCH   6   8
ENDBRANCH   3   4
TORSDOF 8
ENDMDL
MODEL 5
REMARK VINA RESULT:      -6.6      3.542      6.004
REMARK  8 active torsions:
REMARK  status: ('A' for Active; 'I' for Inactive)
REMARK    1  A    between atoms: C3_3  and  C4_4 
REMARK       I    between atoms: C4_4  and  N1_6 
REMARK    2  A    between atoms: N1_6  and  C5_7 
REMARK    3  A    between atoms: C8_10  and  N2_11 
REMARK    4  A    between atoms: N2_11  and  C9_12 
REMARK    5  A    between atoms: C9_12  and  N3_13 
REMARK    6  A    between atoms: C10_14  and  C11_15 
REMARK    7  A    between atoms: C11_15  and  N4_16 
REMARK    8  A    between atoms: N4_16  and  C12_17 
ROOT
HETATM    1  C1  UNL     1      30.207  -0.647  53.951  1.00  0.00     0.112 C 
HETATM    2  C2  UNL     1      28.775  -0.665  53.610  1.00  0.00    -0.101 C 
HETATM    3  C3  UNL     1      27.602  -0.662  53.341  1.00  0.00    -0.006 C 
ENDROOT
BRANCH   3   4
HETATM    4  C4  UNL     1      26.184  -0.635  53.013  1.00  0.00     0.300 C 
HETATM    5  O1  UNL     1      25.738  -1.299  52.042  1.00  0.00    -0.258 OA
HETATM    6  N1  UNL     1      25.371   0.189  53.866  1.00  0.00    -0.316 N 
HETATM    7  H4  UNL     1      25.752   0.733  54.669  1.00  0.00     0.170 HD
BRANCH   6   8
HETATM    8  C5  UNL     1      23.998   0.170  53.486  1.00  0.00     0.036 A 
HETATM    9  C6  UNL     1      23.245  -0.657  54.314  1.00  0.00     0.032 A 
HETATM   10  C7  UNL     1      21.876  -0.806  54.105  1.00  0.00     0.035 A 
HETATM   11  C8  UNL     1      21.284  -0.115  53.060  1.00  0.00     0.076 A 
HETATM   12  C10 UNL     1      22.054   0.695  52.259  1.00  0.00    -0.009 A 
HETATM   13  C17 UNL     1      23.413   0.849  52.458  1.00  0.00     0.040 A 
BRANCH  11  14
HETATM   14  N2  UNL     1      19.881  -0.219  52.786  1.00  0.00    -0.188 NA
BRANCH  14  15
HETATM   15  C9  UNL     1      19.232  -1.156  53.391  1.00  0.00     0.093 C 
BRANCH  15  16
HETATM   16  N3  UNL     1      18.370  -1.887  54.005  1.00  0.00    -0.241 NA
HETATM   17  H7  UNL     1      17.651  -1.424  54.614  1.00  0.00     0.199 HD
ENDBRANCH  15  16
ENDBRANCH  14  15
ENDBRANCH  11  14
BRANCH  12  18
HETATM   18  C11 UNL     1      21.514   1.490  51.120  1.00  0.00     0.161 C 
BRANCH  18  19
HETATM   19  N4  UNL     1      22.592   1.776  50.160  1.00  0.00    -0.386 N 
HETATM   20  H10 UNL     1      23.183   0.967  49.838  1.00  0.00     0.160 HD
BRANCH  19  21
HETATM   21  C12 UNL     1      22.936   3.051  49.604  1.00  0.00     0.025 A 
HETATM   22  C13 UNL     1      22.444   4.126  49.017  1.00  0.00     0.007 A 
HETATM   23  C14 UNL     1      23.532   5.090  48.722  1.00  0.00     0.075 A 
HETATM   24  C15 UNL     1      24.746   4.406  49.233  1.00  0.00    -0.006 A 
HETATM   25 BR1  UNL     1      26.352   5.404  49.003  1.00  0.00    -0.055 Br
HETATM   26  C16 UNL     1      24.394   3.231  49.740  1.00  0.00     0.043 A 
ENDBRANCH  19  21
ENDBRANCH  18  19
ENDBRANCH  12  18
ENDBRANCH   6   8
ENDBRANCH   3   4
TORSDOF 8
ENDMDL
MODEL 6
REMARK VINA RESULT:      -6.5      3.463      7.013
REMARK  8 active torsions:
REMARK  status: ('A' for Active; 'I' for Inactive)
REMARK    1  A    between atoms: C3_3  and  C4_4 
REMARK       I    between atoms: C4_4  and  N1_6 
REMARK    2  A    between atoms: N1_6  and  C5_7 
REMARK    3  A    between atoms: C8_10  and  N2_11 
REMARK    4  A    between atoms: N2_11  and  C9_12 
REMARK    5  A    between atoms: C9_12  and  N3_13 
REMARK    6  A    between atoms: C10_14  and  C11_15 
REMARK    7  A    between atoms: C11_15  and  N4_16 
REMARK    8  A    between atoms: N4_16  and  C12_17 
ROOT
HETATM    1  C1  UNL     1      17.321   2.276  51.189  1.00  0.00     0.112 C 
HETATM    2  C2  UNL     1      18.745   1.907  51.247  1.00  0.00    -0.101 C 
HETATM    3  C3  UNL     1      19.912   1.616  51.309  1.00  0.00    -0.006 C 
ENDROOT
BRANCH   3   4
HETATM    4  C4  UNL     1      21.320   1.266  51.410  1.00  0.00     0.300 C 
HETATM    5  O1  UNL     1      21.937   0.800  50.416  1.00  0.00    -0.258 OA
HETATM    6  N1  UNL     1      21.920   1.488  52.698  1.00  0.00    -0.316 N 
HETATM    7  H4  UNL     1      21.399   1.876  53.512  1.00  0.00     0.170 HD
BRANCH   6   8
HETATM    8  C5  UNL     1      23.297   1.121  52.723  1.00  0.00     0.036 A 
HETATM    9  C6  UNL     1      23.486  -0.132  53.298  1.00  0.00     0.032 A 
HETATM   10  C7  UNL     1      24.765  -0.671  53.411  1.00  0.00     0.035 A 
HETATM   11  C8  UNL     1      25.840   0.066  52.940  1.00  0.00     0.076 A 
HETATM   12  C10 UNL     1      25.622   1.302  52.377  1.00  0.00    -0.009 A 
HETATM   13  C17 UNL     1      24.356   1.844  52.261  1.00  0.00     0.040 A 
BRANCH  11  14
HETATM   14  N2  UNL     1      27.185  -0.424  53.023  1.00  0.00    -0.188 NA
BRANCH  14  15
HETATM   15  C9  UNL     1      27.355  -1.697  52.895  1.00  0.00     0.093 C 
BRANCH  15  16
HETATM   16  N3  UNL     1      27.798  -2.886  52.683  1.00  0.00    -0.241 NA
HETATM   17  H7  UNL     1      27.117  -3.682  52.628  1.00  0.00     0.199 HD
ENDBRANCH  15  16
ENDBRANCH  14  15
ENDBRANCH  11  14
BRANCH  12  18
HETATM   18  C11 UNL     1      26.705   2.166  51.830  1.00  0.00     0.161 C 
BRANCH  18  19
HETATM   19  N4  UNL     1      26.445   2.447  50.408  1.00  0.00    -0.386 N 
HETATM   20  H10 UNL     1      26.600   1.664  49.723  1.00  0.00     0.160 HD
BRANCH  19  21
HETATM   21  C12 UNL     1      26.000   3.684  49.840  1.00  0.00     0.025 A 
HETATM   22  C13 UNL     1      24.940   4.445  49.640  1.00  0.00     0.007 A 
HETATM   23  C14 UNL     1      25.328   5.681  48.916  1.00  0.00     0.075 A 
HETATM   24  C15 UNL     1      26.792   5.523  48.725  1.00  0.00    -0.006 A 
HETATM   25 BR1  UNL     1      27.614   6.976  47.809  1.00  0.00    -0.055 Br
HETATM   26  C16 UNL     1      27.171   4.369  49.262  1.00  0.00     0.043 A 
ENDBRANCH  19  21
ENDBRANCH  18  19
ENDBRANCH  12  18
ENDBRANCH   6   8
ENDBRANCH   3   4
TORSDOF 8
ENDMDL
MODEL 7
REMARK VINA RESULT:      -6.5      4.323      6.724
REMARK  8 active torsions:
REMARK  status: ('A' for Active; 'I' for Inactive)
REMARK    1  A    between atoms: C3_3  and  C4_4 
REMARK       I    between atoms: C4_4  and  N1_6 
REMARK    2  A    between atoms: N1_6  and  C5_7 
REMARK    3  A    between atoms: C8_10  and  N2_11 
REMARK    4  A    between atoms: N2_11  and  C9_12 
REMARK    5  A    between atoms: C9_12  and  N3_13 
REMARK    6  A    between atoms: C10_14  and  C11_15 
REMARK    7  A    between atoms: C11_15  and  N4_16 
REMARK    8  A    between atoms: N4_16  and  C12_17 
ROOT
HETATM    1  C1  UNL     1      30.955  12.027  48.661  1.00  0.00     0.112 C 
HETATM    2  C2  UNL     1      29.953  10.976  48.907  1.00  0.00    -0.101 C 
HETATM    3  C3  UNL     1      29.135  10.112  49.089  1.00  0.00    -0.006 C 
ENDROOT
BRANCH   3   4
HETATM    4  C4  UNL     1      28.159   9.053  49.294  1.00  0.00     0.300 C 
HETATM    5  O1  UNL     1      27.500   8.986  50.364  1.00  0.00    -0.258 OA
HETATM    6  N1  UNL     1      28.021   8.123  48.204  1.00  0.00    -0.316 N 
HETATM    7  H4  UNL     1      28.571   8.190  47.322  1.00  0.00     0.170 HD
BRANCH   6   8
HETATM    8  C5  UNL     1      27.051   7.115  48.475  1.00  0.00     0.036 A 
HETATM    9  C6  UNL     1      25.754   7.578  48.274  1.00  0.00     0.032 A 
HETATM   10  C7  UNL     1      24.664   6.737  48.483  1.00  0.00     0.035 A 
HETATM   11  C8  UNL     1      24.900   5.434  48.893  1.00  0.00     0.076 A 
HETATM   12  C10 UNL     1      26.192   5.005  49.084  1.00  0.00    -0.009 A 
HETATM   13  C17 UNL     1      27.280   5.833  48.878  1.00  0.00     0.040 A 
BRANCH  11  14
HETATM   14  N2  UNL     1      23.827   4.512  49.128  1.00  0.00    -0.188 NA
BRANCH  14  15
HETATM   15  C9  UNL     1      23.071   4.738  50.148  1.00  0.00     0.093 C 
BRANCH  15  16
HETATM   16  N3  UNL     1      22.556   4.873  51.320  1.00  0.00    -0.241 NA
HETATM   17  H7  UNL     1      23.035   5.490  52.020  1.00  0.00     0.199 HD
ENDBRANCH  15  16
ENDBRANCH  14  15
ENDBRANCH  11  14
BRANCH  12  18
HETATM   18  C11 UNL     1      26.553   3.624  49.509  1.00  0.00     0.161 C 
BRANCH  18  19
HETATM   19  N4  UNL     1      26.366   3.488  50.963  1.00  0.00    -0.386 N 
HETATM   20  H10 UNL     1      26.703   4.277  51.571  1.00  0.00     0.160 HD
BRANCH  19  21
HETATM   21  C12 UNL     1      25.770   2.384  51.656  1.00  0.00     0.025 A 
HETATM   22  C13 UNL     1      24.689   1.990  52.302  1.00  0.00     0.007 A 
HETATM   23  C14 UNL     1      24.851   0.589  52.762  1.00  0.00     0.075 A 
HETATM   24  C15 UNL     1      26.207   0.223  52.280  1.00  0.00    -0.006 A 
HETATM   25 BR1  UNL     1      26.730  -1.556  52.716  1.00  0.00    -0.055 Br
HETATM   26  C16 UNL     1      26.730   1.264  51.643  1.00  0.00     0.043 A 
ENDBRANCH  19  21
ENDBRANCH  18  19
ENDBRANCH  12  18
ENDBRANCH   6   8
ENDBRANCH   3   4
TORSDOF 8
ENDMDL
MODEL 8
REMARK VINA RESULT:      -6.5      1.950      2.194
REMARK  8 active torsions:
REMARK  status: ('A' for Active; 'I' for Inactive)
REMARK    1  A    between atoms: C3_3  and  C4_4 
REMARK       I    between atoms: C4_4  and  N1_6 
REMARK    2  A    between atoms: N1_6  and  C5_7 
REMARK    3  A    between atoms: C8_10  and  N2_11 
REMARK    4  A    between atoms: N2_11  and  C9_12 
REMARK    5  A    between atoms: C9_12  and  N3_13 
REMARK    6  A    between atoms: C10_14  and  C11_15 
REMARK    7  A    between atoms: C11_15  and  N4_16 
REMARK    8  A    between atoms: N4_16  and  C12_17 
ROOT
HETATM    1  C1  UNL     1      28.237   6.844  47.638  1.00  0.00     0.112 C 
HETATM    2  C2  UNL     1      27.530   5.769  48.354  1.00  0.00    -0.101 C 
HETATM    3  C3  UNL     1      26.948   4.902  48.953  1.00  0.00    -0.006 C 
ENDROOT
BRANCH   3   4
HETATM    4  C4  UNL     1      26.228   3.872  49.685  1.00  0.00     0.300 C 
HETATM    5  O1  UNL     1      25.183   3.357  49.207  1.00  0.00    -0.258 OA
HETATM    6  N1  UNL     1      26.794   3.509  50.957  1.00  0.00    -0.316 N 
HETATM    7  H4  UNL     1      27.661   3.942  51.341  1.00  0.00     0.170 HD
BRANCH   6   8
HETATM    8  C5  UNL     1      26.037   2.499  51.617  1.00  0.00     0.036 A 
HETATM    9  C6  UNL     1      26.831   1.416  51.984  1.00  0.00     0.032 A 
HETATM   10  C7  UNL     1      26.273   0.325  52.646  1.00  0.00     0.035 A 
HETATM   11  C8  UNL     1      24.917   0.342  52.930  1.00  0.00     0.076 A 
HETATM   12  C10 UNL     1      24.158   1.426  52.554  1.00  0.00    -0.009 A 
HETATM   13  C17 UNL     1      24.703   2.513  51.897  1.00  0.00     0.040 A 
BRANCH  11  14
HETATM   14  N2  UNL     1      24.275  -0.745  53.608  1.00  0.00    -0.188 NA
BRANCH  14  15
HETATM   15  C9  UNL     1      24.743  -1.074  54.765  1.00  0.00     0.093 C 
BRANCH  15  16
HETATM   16  N3  UNL     1      24.951  -1.290  56.016  1.00  0.00    -0.241 NA
HETATM   17  H7  UNL     1      24.476  -0.680  56.725  1.00  0.00     0.199 HD
ENDBRANCH  15  16
ENDBRANCH  14  15
ENDBRANCH  11  14
BRANCH  12  18
HETATM   18  C11 UNL     1      22.698   1.549  52.823  1.00  0.00     0.161 C 
BRANCH  18  19
HETATM   19  N4  UNL     1      22.199   2.823  52.281  1.00  0.00    -0.386 N 
HETATM   20  H10 UNL     1      22.687   3.703  52.584  1.00  0.00     0.160 HD
BRANCH  19  21
HETATM   21  C12 UNL     1      21.105   3.004  51.373  1.00  0.00     0.025 A 
HETATM   22  C13 UNL     1      20.774   3.033  50.096  1.00  0.00     0.007 A 
HETATM   23  C14 UNL     1      19.321   3.301  49.952  1.00  0.00     0.075 A 
HETATM   24  C15 UNL     1      18.853   3.424  51.355  1.00  0.00    -0.006 A 
HETATM   25 BR1  UNL     1      16.988   3.775  51.521  1.00  0.00    -0.055 Br
HETATM   26  C16 UNL     1      19.887   3.251  52.169  1.00  0.00     0.043 A 
ENDBRANCH  19  21
ENDBRANCH  18  19
ENDBRANCH  12  18
ENDBRANCH   6   8
ENDBRANCH   3   4
TORSDOF 8
ENDMDL
MODEL 9
REMARK VINA RESULT:      -6.4      5.238      8.851
REMARK  8 active torsions:
REMARK  status: ('A' for Active; 'I' for Inactive)
REMARK    1  A    between atoms: C3_3  and  C4_4 
REMARK       I    between atoms: C4_4  and  N1_6 
REMARK    2  A    between atoms: N1_6  and  C5_7 
REMARK    3  A    between atoms: C8_10  and  N2_11 
REMARK    4  A    between atoms: N2_11  and  C9_12 
REMARK    5  A    between atoms: C9_12  and  N3_13 
REMARK    6  A    between atoms: C10_14  and  C11_15 
REMARK    7  A    between atoms: C11_15  and  N4_16 
REMARK    8  A    between atoms: N4_16  and  C12_17 
ROOT
HETATM    1  C1  UNL     1      30.011  -1.593  54.037  1.00  0.00     0.112 C 
HETATM    2  C2  UNL     1      29.126  -0.529  53.536  1.00  0.00    -0.101 C 
HETATM    3  C3  UNL     1      28.417   0.353  53.125  1.00  0.00    -0.006 C 
ENDROOT
BRANCH   3   4
HETATM    4  C4  UNL     1      27.579   1.427  52.613  1.00  0.00     0.300 C 
HETATM    5  O1  UNL     1      27.498   2.524  53.225  1.00  0.00    -0.258 OA
HETATM    6  N1  UNL     1      26.877   1.132  51.393  1.00  0.00    -0.316 N 
HETATM    7  H4  UNL     1      26.954   0.220  50.895  1.00  0.00     0.170 HD
BRANCH   6   8
HETATM    8  C5  UNL     1      26.075   2.224  50.953  1.00  0.00     0.036 A 
HETATM    9  C6  UNL     1      24.771   2.133  51.431  1.00  0.00     0.032 A 
HETATM   10  C7  UNL     1      23.833   3.112  51.112  1.00  0.00     0.035 A 
HETATM   11  C8  UNL     1      24.227   4.174  50.313  1.00  0.00     0.076 A 
HETATM   12  C10 UNL     1      25.522   4.237  49.855  1.00  0.00    -0.009 A 
HETATM   13  C17 UNL     1      26.460   3.270  50.167  1.00  0.00     0.040 A 
BRANCH  11  14
HETATM   14  N2  UNL     1      23.316   5.218  49.944  1.00  0.00    -0.188 NA
BRANCH  14  15
HETATM   15  C9  UNL     1      22.793   5.907  50.902  1.00  0.00     0.093 C 
BRANCH  15  16
HETATM   16  N3  UNL     1      22.021   6.554  51.702  1.00  0.00    -0.241 NA
HETATM   17  H7  UNL     1      21.016   6.266  51.785  1.00  0.00     0.199 HD
ENDBRANCH  15  16
ENDBRANCH  14  15
ENDBRANCH  11  14
BRANCH  12  18
HETATM   18  C11 UNL     1      26.048   5.340  49.004  1.00  0.00     0.161 C 
BRANCH  18  19
HETATM   19  N4  UNL     1      27.520   5.315  49.012  1.00  0.00    -0.386 N 
HETATM   20  H10 UNL     1      27.990   4.622  49.649  1.00  0.00     0.160 HD
BRANCH  19  21
HETATM   21  C12 UNL     1      28.401   6.141  48.242  1.00  0.00     0.025 A 
HETATM   22  C13 UNL     1      28.476   7.259  47.544  1.00  0.00     0.007 A 
HETATM   23  C14 UNL     1      29.849   7.437  47.011  1.00  0.00     0.075 A 
HETATM   24  C15 UNL     1      30.570   6.240  47.511  1.00  0.00    -0.006 A 
HETATM   25 BR1  UNL     1      32.402   6.166  46.991  1.00  0.00    -0.055 Br
HETATM   26  C16 UNL     1      29.729   5.498  48.220  1.00  0.00     0.043 A 
ENDBRANCH  19  21
ENDBRANCH  18  19
ENDBRANCH  12  18
ENDBRANCH   6   8
ENDBRANCH   3   4
TORSDOF 8
ENDMDL
