MODEL 1
REMARK VINA RESULT:      -6.9      0.000      0.000
REMARK  7 active torsions:
REMARK  status: ('A' for Active; 'I' for Inactive)
REMARK    1  A    between atoms: C5_5  and  C6_6 
REMARK    2  A    between atoms: C6_6  and  N1_7 
REMARK    3  A    between atoms: N1_7  and  C7_8 
REMARK    4  A    between atoms: C13_17  and  C14_18 
REMARK    5  A    between atoms: C14_18  and  O2_19 
REMARK    6  A    between atoms: C16_21  and  C17_22 
REMARK    7  A    between atoms: C17_22  and  O3_23 
ROOT
HETATM    1  C1  UNL     1      18.190   0.275  50.330  1.00  0.00     0.017 C 
HETATM    2  C2  UNL     1      17.562  -0.135  51.274  1.00  0.00    -0.083 C 
HETATM    3  C3  UNL     1      16.794  -0.611  52.389  1.00  0.00    -0.012 C 
HETATM    4  C4  UNL     1      15.336  -0.380  52.562  1.00  0.00     0.058 C 
HETATM    5  C5  UNL     1      17.393  -1.307  53.343  1.00  0.00     0.008 C 
ENDROOT
BRANCH   5   6
HETATM    6  C6  UNL     1      18.832  -1.667  53.398  1.00  0.00     0.149 C 
BRANCH   6   7
HETATM    7  N1  UNL     1      19.620  -0.723  54.165  1.00  0.00    -0.370 N 
HETATM    8  H8  UNL     1      19.051  -0.061  54.770  1.00  0.00     0.161 HD
BRANCH   7   9
HETATM    9  C7  UNL     1      21.056  -0.648  54.150  1.00  0.00     0.138 A 
HETATM   10  N2  UNL     1      21.619  -1.495  55.024  1.00  0.00    -0.224 NA
HETATM   11  C8  UNL     1      22.950  -1.534  55.129  1.00  0.00     0.236 A 
HETATM   12  N3  UNL     1      23.747  -0.726  54.362  1.00  0.00    -0.232 NA
HETATM   13  C9  UNL     1      23.165   0.098  53.511  1.00  0.00     0.127 A 
HETATM   14  C10 UNL     1      21.778   0.221  53.318  1.00  0.00     0.049 A 
HETATM   15  C20 UNL     1      23.583   1.043  52.631  1.00  0.00    -0.015 C 
HETATM   16  C11 UNL     1      20.979   1.075  52.411  1.00  0.00     0.042 C 
HETATM   17  C12 UNL     1      21.123   2.347  52.033  1.00  0.00     0.136 C 
HETATM   18  O1  UNL     1      21.882   3.478  52.156  1.00  0.00    -0.353 OA
HETATM   19  C13 UNL     1      22.353   4.204  51.042  1.00  0.00     0.183 C 
HETATM   20  C16 UNL     1      23.189   3.258  50.187  1.00  0.00     0.195 C 
HETATM   21  O4  UNL     1      24.269   2.762  51.058  1.00  0.00    -0.293 OA
HETATM   22  C19 UNL     1      23.903   1.817  51.918  1.00  0.00     0.062 C 
BRANCH  19  23
HETATM   23  C14 UNL     1      23.199   5.317  51.608  1.00  0.00     0.202 C 
BRANCH  23  24
HETATM   24  O2  UNL     1      22.948   6.535  51.026  1.00  0.00    -0.393 OA
HETATM   25  C15 UNL     1      24.175   7.233  51.063  1.00  0.00     0.201 C 
ENDBRANCH  23  24
ENDBRANCH  19  23
BRANCH  20  26
HETATM   26  C17 UNL     1      23.728   3.786  48.946  1.00  0.00     0.203 C 
BRANCH  26  27
HETATM   27  O3  UNL     1      22.672   4.408  48.240  1.00  0.00    -0.393 OA
HETATM   28  C18 UNL     1      22.126   3.463  47.365  1.00  0.00     0.201 C 
ENDBRANCH  26  27
ENDBRANCH  20  26
ENDBRANCH   7   9
ENDBRANCH   6   7
ENDBRANCH   5   6
TORSDOF 7
ENDMDL
MODEL 2
REMARK VINA RESULT:      -6.6      3.342      5.974
REMARK  7 active torsions:
REMARK  status: ('A' for Active; 'I' for Inactive)
REMARK    1  A    between atoms: C5_5  and  C6_6 
REMARK    2  A    between atoms: C6_6  and  N1_7 
REMARK    3  A    between atoms: N1_7  and  C7_8 
REMARK    4  A    between atoms: C13_17  and  C14_18 
REMARK    5  A    between atoms: C14_18  and  O2_19 
REMARK    6  A    between atoms: C16_21  and  C17_22 
REMARK    7  A    between atoms: C17_22  and  O3_23 
ROOT
HETATM    1  C1  UNL     1      23.534   4.482  52.354  1.00  0.00     0.017 C 
HETATM    2  C2  UNL     1      23.069   4.140  51.296  1.00  0.00    -0.083 C 
HETATM    3  C3  UNL     1      22.531   3.749  50.024  1.00  0.00    -0.012 C 
HETATM    4  C4  UNL     1      23.055   4.213  48.714  1.00  0.00     0.058 C 
HETATM    5  C5  UNL     1      21.499   2.920  49.980  1.00  0.00     0.008 C 
ENDROOT
BRANCH   5   6
HETATM    6  C6  UNL     1      20.801   2.321  51.146  1.00  0.00     0.149 C 
BRANCH   6   7
HETATM    7  N1  UNL     1      20.990   0.887  51.239  1.00  0.00    -0.370 N 
HETATM    8  H8  UNL     1      20.836   0.361  50.330  1.00  0.00     0.161 HD
BRANCH   7   9
HETATM    9  C7  UNL     1      21.361   0.184  52.438  1.00  0.00     0.138 A 
HETATM   10  N2  UNL     1      20.294  -0.243  53.129  1.00  0.00    -0.224 NA
HETATM   11  C8  UNL     1      20.481  -0.907  54.273  1.00  0.00     0.236 A 
HETATM   12  N3  UNL     1      21.740  -1.160  54.750  1.00  0.00    -0.232 NA
HETATM   13  C9  UNL     1      22.771  -0.728  54.049  1.00  0.00     0.127 A 
HETATM   14  C10 UNL     1      22.691  -0.022  52.836  1.00  0.00     0.049 A 
HETATM   15  C20 UNL     1      24.121  -0.748  54.190  1.00  0.00    -0.015 C 
HETATM   16  C11 UNL     1      23.735   0.516  51.935  1.00  0.00     0.042 C 
HETATM   17  C12 UNL     1      24.899   1.118  52.184  1.00  0.00     0.136 C 
HETATM   18  O1  UNL     1      25.750   1.562  53.159  1.00  0.00    -0.353 OA
HETATM   19  C13 UNL     1      27.125   1.245  53.172  1.00  0.00     0.183 C 
HETATM   20  C16 UNL     1      27.254  -0.274  53.194  1.00  0.00     0.195 C 
HETATM   21  O4  UNL     1      26.541  -0.730  54.400  1.00  0.00    -0.293 OA
HETATM   22  C19 UNL     1      25.217  -0.748  54.292  1.00  0.00     0.062 C 
BRANCH  19  23
HETATM   23  C14 UNL     1      27.673   1.856  54.437  1.00  0.00     0.202 C 
BRANCH  23  24
HETATM   24  O2  UNL     1      28.682   2.759  54.206  1.00  0.00    -0.393 OA
HETATM   25  C15 UNL     1      29.871   2.106  54.599  1.00  0.00     0.201 C 
ENDBRANCH  23  24
ENDBRANCH  19  23
BRANCH  20  26
HETATM   26  C17 UNL     1      28.597  -0.827  53.149  1.00  0.00     0.203 C 
BRANCH  26  27
HETATM   27  O3  UNL     1      28.529  -2.177  53.568  1.00  0.00    -0.393 OA
HETATM   28  C18 UNL     1      27.811  -2.889  52.602  1.00  0.00     0.201 C 
ENDBRANCH  26  27
ENDBRANCH  20  26
ENDBRANCH   7   9
ENDBRANCH   6   7
ENDBRANCH   5   6
TORSDOF 7
ENDMDL
MODEL 3
REMARK VINA RESULT:      -6.6      2.328      5.693
REMARK  7 active torsions:
REMARK  status: ('A' for Active; 'I' for Inactive)
REMARK    1  A    between atoms: C5_5  and  C6_6 
REMARK    2  A    between atoms: C6_6  and  N1_7 
REMARK    3  A    between atoms: N1_7  and  C7_8 
REMARK    4  A    between atoms: C13_17  and  C14_18 
REMARK    5  A    between atoms: C14_18  and  O2_19 
REMARK    6  A    between atoms: C16_21  and  C17_22 
REMARK    7  A    between atoms: C17_22  and  O3_23 
ROOT
HETATM    1  C1  UNL     1      26.794   2.122  51.408  1.00  0.00     0.017 C 
HETATM    2  C2  UNL     1      27.173   1.334  52.238  1.00  0.00    -0.083 C 
HETATM    3  C3  UNL     1      27.647   0.407  53.226  1.00  0.00    -0.012 C 
HETATM    4  C4  UNL     1      28.993   0.467  53.853  1.00  0.00     0.058 C 
HETATM    5  C5  UNL     1      26.858  -0.577  53.628  1.00  0.00     0.008 C 
ENDROOT
BRANCH   5   6
HETATM    6  C6  UNL     1      25.478  -0.848  53.154  1.00  0.00     0.149 C 
BRANCH   6   7
HETATM    7  N1  UNL     1      24.468  -0.505  54.137  1.00  0.00    -0.370 N 
HETATM    8  H8  UNL     1      24.851  -0.248  55.093  1.00  0.00     0.161 HD
BRANCH   7   9
HETATM    9  C7  UNL     1      23.051  -0.491  53.888  1.00  0.00     0.138 A 
HETATM   10  N2  UNL     1      22.405  -1.446  54.573  1.00  0.00    -0.224 NA
HETATM   11  C8  UNL     1      21.081  -1.563  54.438  1.00  0.00     0.236 A 
HETATM   12  N3  UNL     1      20.375  -0.726  53.615  1.00  0.00    -0.232 NA
HETATM   13  C9  UNL     1      21.038   0.205  52.954  1.00  0.00     0.127 A 
HETATM   14  C10 UNL     1      22.426   0.417  53.020  1.00  0.00     0.049 A 
HETATM   15  C20 UNL     1      20.722   1.169  52.053  1.00  0.00    -0.015 C 
HETATM   16  C11 UNL     1      23.307   1.407  52.361  1.00  0.00     0.042 C 
HETATM   17  C12 UNL     1      23.312   1.905  51.123  1.00  0.00     0.136 C 
HETATM   18  O1  UNL     1      22.699   1.887  49.900  1.00  0.00    -0.353 OA
HETATM   19  C13 UNL     1      22.299   3.064  49.231  1.00  0.00     0.183 C 
HETATM   20  C16 UNL     1      21.340   3.818  50.145  1.00  0.00     0.195 C 
HETATM   21  O4  UNL     1      20.223   2.897  50.419  1.00  0.00    -0.293 OA
HETATM   22  C19 UNL     1      20.486   1.952  51.316  1.00  0.00     0.062 C 
BRANCH  19  23
HETATM   23  C14 UNL     1      21.605   2.603  47.975  1.00  0.00     0.202 C 
BRANCH  23  24
HETATM   24  O2  UNL     1      22.044   3.252  46.847  1.00  0.00    -0.393 OA
HETATM   25  C15 UNL     1      20.878   3.725  46.205  1.00  0.00     0.201 C 
ENDBRANCH  23  24
ENDBRANCH  19  23
BRANCH  20  26
HETATM   26  C17 UNL     1      20.847   5.101  49.675  1.00  0.00     0.203 C 
BRANCH  26  27
HETATM   27  O3  UNL     1      21.484   6.117  50.427  1.00  0.00    -0.393 OA
HETATM   28  C18 UNL     1      20.906   7.340  50.072  1.00  0.00     0.201 C 
ENDBRANCH  26  27
ENDBRANCH  20  26
ENDBRANCH   7   9
ENDBRANCH   6   7
ENDBRANCH   5   6
TORSDOF 7
ENDMDL
MODEL 4
REMARK VINA RESULT:      -6.5      6.366     10.700
REMARK  7 active torsions:
REMARK  status: ('A' for Active; 'I' for Inactive)
REMARK    1  A    between atoms: C5_5  and  C6_6 
REMARK    2  A    between atoms: C6_6  and  N1_7 
REMARK    3  A    between atoms: N1_7  and  C7_8 
REMARK    4  A    between atoms: C13_17  and  C14_18 
REMARK    5  A    between atoms: C14_18  and  O2_19 
REMARK    6  A    between atoms: C16_21  and  C17_22 
REMARK    7  A    between atoms: C17_22  and  O3_23 
ROOT
HETATM    1  C1  UNL     1      33.156   4.787  44.403  1.00  0.00     0.017 C 
HETATM    2  C2  UNL     1      32.859   4.197  45.412  1.00  0.00    -0.083 C 
HETATM    3  C3  UNL     1      32.514   3.475  46.603  1.00  0.00    -0.012 C 
HETATM    4  C4  UNL     1      32.890   2.061  46.863  1.00  0.00     0.058 C 
HETATM    5  C5  UNL     1      31.817   4.079  47.553  1.00  0.00     0.008 C 
ENDROOT
BRANCH   5   6
HETATM    6  C6  UNL     1      31.327   5.480  47.529  1.00  0.00     0.149 C 
BRANCH   6   7
HETATM    7  N1  UNL     1      30.276   5.726  48.497  1.00  0.00    -0.370 N 
HETATM    8  H8  UNL     1      30.336   5.132  49.375  1.00  0.00     0.161 HD
BRANCH   7   9
HETATM    9  C7  UNL     1      29.218   6.687  48.335  1.00  0.00     0.138 A 
HETATM   10  N2  UNL     1      29.684   7.926  48.123  1.00  0.00    -0.224 NA
HETATM   11  C8  UNL     1      28.818   8.930  47.961  1.00  0.00     0.236 A 
HETATM   12  N3  UNL     1      27.466   8.715  48.008  1.00  0.00    -0.232 NA
HETATM   13  C9  UNL     1      27.036   7.485  48.218  1.00  0.00     0.127 A 
HETATM   14  C10 UNL     1      27.855   6.358  48.400  1.00  0.00     0.049 A 
HETATM   15  C20 UNL     1      25.826   6.888  48.358  1.00  0.00    -0.015 C 
HETATM   16  C11 UNL     1      27.536   4.931  48.632  1.00  0.00     0.042 C 
HETATM   17  C12 UNL     1      26.596   4.341  49.372  1.00  0.00     0.136 C 
HETATM   18  O1  UNL     1      25.540   4.540  50.218  1.00  0.00    -0.353 OA
HETATM   19  C13 UNL     1      24.290   3.912  50.038  1.00  0.00     0.183 C 
HETATM   20  C16 UNL     1      23.769   4.295  48.657  1.00  0.00     0.195 C 
HETATM   21  O4  UNL     1      23.689   5.767  48.641  1.00  0.00    -0.293 OA
HETATM   22  C19 UNL     1      24.853   6.388  48.481  1.00  0.00     0.062 C 
BRANCH  19  23
HETATM   23  C14 UNL     1      23.398   4.456  51.125  1.00  0.00     0.202 C 
BRANCH  23  24
HETATM   24  O2  UNL     1      23.059   3.515  52.066  1.00  0.00    -0.393 OA
HETATM   25  C15 UNL     1      21.647   3.520  52.114  1.00  0.00     0.201 C 
ENDBRANCH  23  24
ENDBRANCH  19  23
BRANCH  20  26
HETATM   26  C17 UNL     1      22.511   3.705  48.234  1.00  0.00     0.203 C 
BRANCH  26  27
HETATM   27  O3  UNL     1      22.738   2.334  47.971  1.00  0.00    -0.393 OA
HETATM   28  C18 UNL     1      21.730   1.603  48.610  1.00  0.00     0.201 C 
ENDBRANCH  26  27
ENDBRANCH  20  26
ENDBRANCH   7   9
ENDBRANCH   6   7
ENDBRANCH   5   6
TORSDOF 7
ENDMDL
MODEL 5
REMARK VINA RESULT:      -6.3      3.421      6.188
REMARK  7 active torsions:
REMARK  status: ('A' for Active; 'I' for Inactive)
REMARK    1  A    between atoms: C5_5  and  C6_6 
REMARK    2  A    between atoms: C6_6  and  N1_7 
REMARK    3  A    between atoms: N1_7  and  C7_8 
REMARK    4  A    between atoms: C13_17  and  C14_18 
REMARK    5  A    between atoms: C14_18  and  O2_19 
REMARK    6  A    between atoms: C16_21  and  C17_22 
REMARK    7  A    between atoms: C17_22  and  O3_23 
ROOT
HETATM    1  C1  UNL     1      23.664   4.424  48.765  1.00  0.00     0.017 C 
HETATM    2  C2  UNL     1      22.508   4.084  48.704  1.00  0.00    -0.083 C 
HETATM    3  C3  UNL     1      21.138   3.670  48.608  1.00  0.00    -0.012 C 
HETATM    4  C4  UNL     1      20.585   2.852  47.497  1.00  0.00     0.058 C 
HETATM    5  C5  UNL     1      20.283   4.022  49.556  1.00  0.00     0.008 C 
ENDROOT
BRANCH   5   6
HETATM    6  C6  UNL     1      20.590   4.833  50.761  1.00  0.00     0.149 C 
BRANCH   6   7
HETATM    7  N1  UNL     1      21.542   4.190  51.645  1.00  0.00    -0.370 N 
HETATM    8  H8  UNL     1      22.422   4.753  51.830  1.00  0.00     0.161 HD
BRANCH   7   9
HETATM    9  C7  UNL     1      21.356   2.899  52.252  1.00  0.00     0.138 A 
HETATM   10  N2  UNL     1      20.085   2.690  52.626  1.00  0.00    -0.224 NA
HETATM   11  C8  UNL     1      19.760   1.536  53.214  1.00  0.00     0.236 A 
HETATM   12  N3  UNL     1      20.699   0.565  53.440  1.00  0.00    -0.232 NA
HETATM   13  C9  UNL     1      21.941   0.798  53.062  1.00  0.00     0.127 A 
HETATM   14  C10 UNL     1      22.394   1.973  52.437  1.00  0.00     0.049 A 
HETATM   15  C20 UNL     1      23.121   0.132  53.133  1.00  0.00    -0.015 C 
HETATM   16  C11 UNL     1      23.730   2.381  51.949  1.00  0.00     0.042 C 
HETATM   17  C12 UNL     1      24.952   2.205  52.455  1.00  0.00     0.136 C 
HETATM   18  O1  UNL     1      25.676   1.680  53.490  1.00  0.00    -0.353 OA
HETATM   19  C13 UNL     1      26.796   0.845  53.290  1.00  0.00     0.183 C 
HETATM   20  C16 UNL     1      26.340  -0.359  52.474  1.00  0.00     0.195 C 
HETATM   21  O4  UNL     1      25.267  -1.002  53.252  1.00  0.00    -0.293 OA
HETATM   22  C19 UNL     1      24.088  -0.391  53.188  1.00  0.00     0.062 C 
BRANCH  19  23
HETATM   23  C14 UNL     1      27.247   0.430  54.668  1.00  0.00     0.202 C 
BRANCH  23  24
HETATM   24  O2  UNL     1      28.355   1.115  55.102  1.00  0.00    -0.393 OA
HETATM   25  C15 UNL     1      29.431   0.620  54.335  1.00  0.00     0.201 C 
ENDBRANCH  23  24
ENDBRANCH  19  23
BRANCH  20  26
HETATM   26  C17 UNL     1      27.355  -1.328  52.097  1.00  0.00     0.203 C 
BRANCH  26  27
HETATM   27  O3  UNL     1      27.346  -2.367  53.057  1.00  0.00    -0.393 OA
HETATM   28  C18 UNL     1      28.649  -2.866  53.160  1.00  0.00     0.201 C 
ENDBRANCH  26  27
ENDBRANCH  20  26
ENDBRANCH   7   9
ENDBRANCH   6   7
ENDBRANCH   5   6
TORSDOF 7
ENDMDL
MODEL 6
REMARK VINA RESULT:      -6.2      2.306      5.353
REMARK  7 active torsions:
REMARK  status: ('A' for Active; 'I' for Inactive)
REMARK    1  A    between atoms: C5_5  and  C6_6 
REMARK    2  A    between atoms: C6_6  and  N1_7 
REMARK    3  A    between atoms: N1_7  and  C7_8 
REMARK    4  A    between atoms: C13_17  and  C14_18 
REMARK    5  A    between atoms: C14_18  and  O2_19 
REMARK    6  A    between atoms: C16_21  and  C17_22 
REMARK    7  A    between atoms: C17_22  and  O3_23 
ROOT
HETATM    1  C1  UNL     1      26.403   1.674  51.475  1.00  0.00     0.017 C 
HETATM    2  C2  UNL     1      26.451   1.007  52.479  1.00  0.00    -0.083 C 
HETATM    3  C3  UNL     1      26.534   0.220  53.676  1.00  0.00    -0.012 C 
HETATM    4  C4  UNL     1      27.724   0.167  54.563  1.00  0.00     0.058 C 
HETATM    5  C5  UNL     1      25.498  -0.518  54.043  1.00  0.00     0.008 C 
ENDROOT
BRANCH   5   6
HETATM    6  C6  UNL     1      24.202  -0.633  53.329  1.00  0.00     0.149 C 
BRANCH   6   7
HETATM    7  N1  UNL     1      23.137   0.112  53.971  1.00  0.00    -0.370 N 
HETATM    8  H8  UNL     1      23.344   0.409  54.968  1.00  0.00     0.161 HD
BRANCH   7   9
HETATM    9  C7  UNL     1      21.884   0.454  53.351  1.00  0.00     0.138 A 
HETATM   10  N2  UNL     1      20.968  -0.516  53.486  1.00  0.00    -0.224 NA
HETATM   11  C8  UNL     1      19.755  -0.346  52.953  1.00  0.00     0.236 A 
HETATM   12  N3  UNL     1      19.431   0.799  52.275  1.00  0.00    -0.232 NA
HETATM   13  C9  UNL     1      20.353   1.737  52.159  1.00  0.00     0.127 A 
HETATM   14  C10 UNL     1      21.657   1.664  52.677  1.00  0.00     0.049 A 
HETATM   15  C20 UNL     1      20.434   2.952  51.560  1.00  0.00    -0.015 C 
HETATM   16  C11 UNL     1      22.789   2.616  52.642  1.00  0.00     0.042 C 
HETATM   17  C12 UNL     1      23.240   3.425  51.682  1.00  0.00     0.136 C 
HETATM   18  O1  UNL     1      23.057   3.856  50.396  1.00  0.00    -0.353 OA
HETATM   19  C13 UNL     1      23.004   5.223  50.052  1.00  0.00     0.183 C 
HETATM   20  C16 UNL     1      21.871   5.861  50.848  1.00  0.00     0.195 C 
HETATM   21  O4  UNL     1      20.648   5.122  50.490  1.00  0.00    -0.293 OA
HETATM   22  C19 UNL     1      20.521   3.936  51.075  1.00  0.00     0.062 C 
BRANCH  19  23
HETATM   23  C14 UNL     1      22.716   5.260  48.572  1.00  0.00     0.202 C 
BRANCH  23  24
HETATM   24  O2  UNL     1      23.502   6.158  47.892  1.00  0.00    -0.393 OA
HETATM   25  C15 UNL     1      22.693   6.652  46.845  1.00  0.00     0.201 C 
ENDBRANCH  23  24
ENDBRANCH  19  23
BRANCH  20  26
HETATM   26  C17 UNL     1      21.674   7.292  50.692  1.00  0.00     0.203 C 
BRANCH  26  27
HETATM   27  O3  UNL     1      20.458   7.493  49.996  1.00  0.00    -0.393 OA
HETATM   28  C18 UNL     1      20.294   8.869  49.810  1.00  0.00     0.201 C 
ENDBRANCH  26  27
ENDBRANCH  20  26
ENDBRANCH   7   9
ENDBRANCH   6   7
ENDBRANCH   5   6
TORSDOF 7
ENDMDL
MODEL 7
REMARK VINA RESULT:      -6.1      6.071     10.670
REMARK  7 active torsions:
REMARK  status: ('A' for Active; 'I' for Inactive)
REMARK    1  A    between atoms: C5_5  and  C6_6 
REMARK    2  A    between atoms: C6_6  and  N1_7 
REMARK    3  A    between atoms: N1_7  and  C7_8 
REMARK    4  A    between atoms: C13_17  and  C14_18 
REMARK    5  A    between atoms: C14_18  and  O2_19 
REMARK    6  A    between atoms: C16_21  and  C17_22 
REMARK    7  A    between atoms: C17_22  and  O3_23 
ROOT
HETATM    1  C1  UNL     1      28.571   8.173  46.007  1.00  0.00     0.017 C 
HETATM    2  C2  UNL     1      29.179   7.660  46.914  1.00  0.00    -0.083 C 
HETATM    3  C3  UNL     1      29.899   7.028  47.982  1.00  0.00    -0.012 C 
HETATM    4  C4  UNL     1      30.284   5.593  47.998  1.00  0.00     0.058 C 
HETATM    5  C5  UNL     1      30.259   7.742  49.037  1.00  0.00     0.008 C 
ENDROOT
BRANCH   5   6
HETATM    6  C6  UNL     1      29.993   9.186  49.256  1.00  0.00     0.149 C 
BRANCH   6   7
HETATM    7  N1  UNL     1      28.742   9.429  49.946  1.00  0.00    -0.370 N 
HETATM    8  H8  UNL     1      28.770   9.243  50.991  1.00  0.00     0.161 HD
BRANCH   7   9
HETATM    9  C7  UNL     1      27.533   9.892  49.318  1.00  0.00     0.138 A 
HETATM   10  N2  UNL     1      27.605  11.184  48.965  1.00  0.00    -0.224 NA
HETATM   11  C8  UNL     1      26.552  11.758  48.377  1.00  0.00     0.236 A 
HETATM   12  N3  UNL     1      25.405  11.052  48.128  1.00  0.00    -0.232 NA
HETATM   13  C9  UNL     1      25.363   9.783  48.486  1.00  0.00     0.127 A 
HETATM   14  C10 UNL     1      26.408   9.079  49.110  1.00  0.00     0.049 A 
HETATM   15  C20 UNL     1      24.439   8.790  48.445  1.00  0.00    -0.015 C 
HETATM   16  C11 UNL     1      26.523   7.674  49.560  1.00  0.00     0.042 C 
HETATM   17  C12 UNL     1      25.649   6.857  50.150  1.00  0.00     0.136 C 
HETATM   18  O1  UNL     1      24.377   6.733  50.640  1.00  0.00    -0.353 OA
HETATM   19  C13 UNL     1      23.529   5.661  50.292  1.00  0.00     0.183 C 
HETATM   20  C16 UNL     1      23.371   5.662  48.776  1.00  0.00     0.195 C 
HETATM   21  O4  UNL     1      22.818   6.981  48.420  1.00  0.00    -0.293 OA
HETATM   22  C19 UNL     1      23.699   7.975  48.426  1.00  0.00     0.062 C 
BRANCH  19  23
HETATM   23  C14 UNL     1      22.214   5.943  50.976  1.00  0.00     0.202 C 
BRANCH  23  24
HETATM   24  O2  UNL     1      21.950   5.081  52.012  1.00  0.00    -0.393 OA
HETATM   25  C15 UNL     1      20.882   4.271  51.568  1.00  0.00     0.201 C 
ENDBRANCH  23  24
ENDBRANCH  19  23
BRANCH  20  26
HETATM   26  C17 UNL     1      22.578   4.595  48.190  1.00  0.00     0.203 C 
BRANCH  26  27
HETATM   27  O3  UNL     1      22.997   3.372  48.765  1.00  0.00    -0.393 OA
HETATM   28  C18 UNL     1      22.528   2.334  47.953  1.00  0.00     0.201 C 
ENDBRANCH  26  27
ENDBRANCH  20  26
ENDBRANCH   7   9
ENDBRANCH   6   7
ENDBRANCH   5   6
TORSDOF 7
ENDMDL
MODEL 8
REMARK VINA RESULT:      -6.1      3.443      7.423
REMARK  7 active torsions:
REMARK  status: ('A' for Active; 'I' for Inactive)
REMARK    1  A    between atoms: C5_5  and  C6_6 
REMARK    2  A    between atoms: C6_6  and  N1_7 
REMARK    3  A    between atoms: N1_7  and  C7_8 
REMARK    4  A    between atoms: C13_17  and  C14_18 
REMARK    5  A    between atoms: C14_18  and  O2_19 
REMARK    6  A    between atoms: C16_21  and  C17_22 
REMARK    7  A    between atoms: C17_22  and  O3_23 
ROOT
HETATM    1  C1  UNL     1      25.154   7.589  47.503  1.00  0.00     0.017 C 
HETATM    2  C2  UNL     1      25.677   6.729  48.167  1.00  0.00    -0.083 C 
HETATM    3  C3  UNL     1      26.317   5.703  48.940  1.00  0.00    -0.012 C 
HETATM    4  C4  UNL     1      27.613   5.070  48.581  1.00  0.00     0.058 C 
HETATM    5  C5  UNL     1      25.743   5.270  50.051  1.00  0.00     0.008 C 
ENDROOT
BRANCH   5   6
HETATM    6  C6  UNL     1      24.455   5.742  50.618  1.00  0.00     0.149 C 
BRANCH   6   7
HETATM    7  N1  UNL     1      24.192   5.209  51.940  1.00  0.00    -0.370 N 
HETATM    8  H8  UNL     1      24.471   5.849  52.738  1.00  0.00     0.161 HD
BRANCH   7   9
HETATM    9  C7  UNL     1      23.597   3.926  52.204  1.00  0.00     0.138 A 
HETATM   10  N2  UNL     1      24.501   3.018  52.601  1.00  0.00    -0.224 NA
HETATM   11  C8  UNL     1      24.099   1.774  52.876  1.00  0.00     0.236 A 
HETATM   12  N3  UNL     1      22.783   1.412  52.762  1.00  0.00    -0.232 NA
HETATM   13  C9  UNL     1      21.916   2.326  52.369  1.00  0.00     0.127 A 
HETATM   14  C10 UNL     1      22.228   3.660  52.054  1.00  0.00     0.049 A 
HETATM   15  C20 UNL     1      20.584   2.357  52.112  1.00  0.00    -0.015 C 
HETATM   16  C11 UNL     1      21.384   4.795  51.616  1.00  0.00     0.042 C 
HETATM   17  C12 UNL     1      20.352   4.860  50.773  1.00  0.00     0.136 C 
HETATM   18  O1  UNL     1      19.538   4.150  49.933  1.00  0.00    -0.353 OA
HETATM   19  C13 UNL     1      18.131   4.230  49.988  1.00  0.00     0.183 C 
HETATM   20  C16 UNL     1      17.694   3.831  51.394  1.00  0.00     0.195 C 
HETATM   21  O4  UNL     1      18.209   2.468  51.613  1.00  0.00    -0.293 OA
HETATM   22  C19 UNL     1      19.506   2.399  51.892  1.00  0.00     0.062 C 
BRANCH  19  23
HETATM   23  C14 UNL     1      17.625   3.247  48.962  1.00  0.00     0.202 C 
BRANCH  23  24
HETATM   24  O2  UNL     1      18.611   2.791  48.121  1.00  0.00    -0.393 OA
HETATM   25  C15 UNL     1      18.216   3.189  46.825  1.00  0.00     0.201 C 
ENDBRANCH  23  24
ENDBRANCH  19  23
BRANCH  20  26
HETATM   26  C17 UNL     1      16.275   3.901  51.693  1.00  0.00     0.203 C 
BRANCH  26  27
HETATM   27  O3  UNL     1      16.123   4.539  52.948  1.00  0.00    -0.393 OA
HETATM   28  C18 UNL     1      14.831   4.269  53.411  1.00  0.00     0.201 C 
ENDBRANCH  26  27
ENDBRANCH  20  26
ENDBRANCH   7   9
ENDBRANCH   6   7
ENDBRANCH   5   6
TORSDOF 7
ENDMDL
MODEL 9
REMARK VINA RESULT:      -6.1      3.381      7.293
REMARK  7 active torsions:
REMARK  status: ('A' for Active; 'I' for Inactive)
REMARK    1  A    between atoms: C5_5  and  C6_6 
REMARK    2  A    between atoms: C6_6  and  N1_7 
REMARK    3  A    between atoms: N1_7  and  C7_8 
REMARK    4  A    between atoms: C13_17  and  C14_18 
REMARK    5  A    between atoms: C14_18  and  O2_19 
REMARK    6  A    between atoms: C16_21  and  C17_22 
REMARK    7  A    between atoms: C17_22  and  O3_23 
ROOT
HETATM    1  C1  UNL     1      22.812   9.627  47.939  1.00  0.00     0.017 C 
HETATM    2  C2  UNL     1      22.268   8.931  48.760  1.00  0.00    -0.083 C 
HETATM    3  C3  UNL     1      21.597   8.108  49.726  1.00  0.00    -0.012 C 
HETATM    4  C4  UNL     1      20.144   7.799  49.698  1.00  0.00     0.058 C 
HETATM    5  C5  UNL     1      22.289   7.573  50.719  1.00  0.00     0.008 C 
ENDROOT
BRANCH   5   6
HETATM    6  C6  UNL     1      23.745   7.732  50.963  1.00  0.00     0.149 C 
BRANCH   6   7
HETATM    7  N1  UNL     1      24.337   6.578  51.610  1.00  0.00    -0.370 N 
HETATM    8  H8  UNL     1      24.587   6.724  52.631  1.00  0.00     0.161 HD
BRANCH   7   9
HETATM    9  C7  UNL     1      24.582   5.313  50.970  1.00  0.00     0.138 A 
HETATM   10  N2  UNL     1      25.585   5.377  50.082  1.00  0.00    -0.224 NA
HETATM   11  C8  UNL     1      25.924   4.280  49.400  1.00  0.00     0.236 A 
HETATM   12  N3  UNL     1      25.267   3.093  49.593  1.00  0.00    -0.232 NA
HETATM   13  C9  UNL     1      24.284   3.060  50.473  1.00  0.00     0.127 A 
HETATM   14  C10 UNL     1      23.845   4.151  51.243  1.00  0.00     0.049 A 
HETATM   15  C20 UNL     1      23.403   2.126  50.912  1.00  0.00    -0.015 C 
HETATM   16  C11 UNL     1      22.780   4.274  52.264  1.00  0.00     0.042 C 
HETATM   17  C12 UNL     1      21.552   3.759  52.332  1.00  0.00     0.136 C 
HETATM   18  O1  UNL     1      20.626   2.969  51.707  1.00  0.00    -0.353 OA
HETATM   19  C13 UNL     1      19.955   1.916  52.363  1.00  0.00     0.183 C 
HETATM   20  C16 UNL     1      21.009   0.949  52.891  1.00  0.00     0.195 C 
HETATM   21  O4  UNL     1      21.784   0.504  51.720  1.00  0.00    -0.293 OA
HETATM   22  C19 UNL     1      22.676   1.384  51.275  1.00  0.00     0.062 C 
BRANCH  19  23
HETATM   23  C14 UNL     1      19.095   1.262  51.311  1.00  0.00     0.202 C 
BRANCH  23  24
HETATM   24  O2  UNL     1      19.243   1.825  50.067  1.00  0.00    -0.393 OA
HETATM   25  C15 UNL     1      17.941   1.892  49.524  1.00  0.00     0.201 C 
ENDBRANCH  23  24
ENDBRANCH  19  23
BRANCH  20  26
HETATM   26  C17 UNL     1      20.538  -0.190  53.660  1.00  0.00     0.203 C 
BRANCH  26  27
HETATM   27  O3  UNL     1      21.591  -1.132  53.736  1.00  0.00    -0.393 OA
HETATM   28  C18 UNL     1      22.296  -0.892  54.920  1.00  0.00     0.201 C 
ENDBRANCH  26  27
ENDBRANCH  20  26
ENDBRANCH   7   9
ENDBRANCH   6   7
ENDBRANCH   5   6
TORSDOF 7
ENDMDL
