MODEL 1
REMARK VINA RESULT:      -7.0      0.000      0.000
REMARK  8 active torsions:
REMARK  status: ('A' for Active; 'I' for Inactive)
REMARK    1  A    between atoms: C4_4  and  C5_5 
REMARK    2  A    between atoms: C5_5  and  C6_6 
REMARK    3  A    between atoms: C6_6  and  N1_7 
REMARK    4  A    between atoms: N1_7  and  C7_8 
REMARK    5  A    between atoms: C7_8  and  C11_12 
REMARK    6  A    between atoms: C8_9  and  C9_10 
REMARK    7  A    between atoms: N4_17  and  C14_18 
REMARK    8  A    between atoms: C14_18  and  C15_19 
ROOT
HETATM    1  C1  UNL     1      22.538   2.118  48.203  1.00  0.00     0.099 C 
HETATM    2  C2  UNL     1      22.319   2.737  49.329  1.00  0.00    -0.123 C 
HETATM    3  C3  UNL     1      22.160   3.443  50.438  1.00  0.00     0.105 A 
HETATM    4  C4  UNL     1      22.597   4.706  50.609  1.00  0.00     0.017 A 
HETATM    5  C13 UNL     1      22.181   4.971  51.921  1.00  0.00     0.153 A 
HETATM    6  N3  UNL     1      21.547   3.866  52.404  1.00  0.00    -0.183 NA
HETATM    7  N4  UNL     1      21.536   2.904  51.466  1.00  0.00    -0.258 N 
ENDROOT
BRANCH   4   8
HETATM    8  C5  UNL     1      23.247   5.533  49.808  1.00  0.00     0.008 C 
BRANCH   8   9
HETATM    9  C6  UNL     1      24.480   6.216  50.324  1.00  0.00     0.148 C 
BRANCH   9  10
HETATM   10  N1  UNL     1      25.537   5.286  50.579  1.00  0.00    -0.389 N 
HETATM   11  H6  UNL     1      25.727   5.026  51.572  1.00  0.00     0.159 HD
BRANCH  10  12
HETATM   12  C7  UNL     1      26.341   4.696  49.566  1.00  0.00     0.018 C 
HETATM   13  C8  UNL     1      26.534   3.388  49.537  1.00  0.00     0.021 C 
BRANCH  13  14
HETATM   14  C9  UNL     1      25.918   2.543  50.550  1.00  0.00    -0.024 C 
HETATM   15  C10 UNL     1      26.554   1.935  51.538  1.00  0.00     0.031 C 
ENDBRANCH  13  14
BRANCH  12  16
HETATM   16  C11 UNL     1      26.936   5.601  48.572  1.00  0.00     0.180 C 
HETATM   17  C12 UNL     1      28.374   5.377  48.415  1.00  0.00     0.065 C 
HETATM   18  N2  UNL     1      29.526   5.196  48.301  1.00  0.00    -0.197 NA
ENDBRANCH  12  16
ENDBRANCH  10  12
ENDBRANCH   9  10
ENDBRANCH   8   9
ENDBRANCH   4   8
BRANCH   7  19
HETATM   19  C14 UNL     1      20.950   1.601  51.630  1.00  0.00     0.190 C 
BRANCH  19  20
HETATM   20  C15 UNL     1      21.673   0.771  52.614  1.00  0.00    -0.038 A 
HETATM   21  C16 UNL     1      23.041   0.607  52.495  1.00  0.00     0.009 A 
HETATM   22  C17 UNL     1      23.681  -0.182  53.440  1.00  0.00     0.001 A 
HETATM   23  C18 UNL     1      23.007  -0.798  54.477  1.00  0.00     0.000 A 
HETATM   24  C19 UNL     1      21.647  -0.630  54.590  1.00  0.00     0.001 A 
HETATM   25  C20 UNL     1      21.002   0.161  53.642  1.00  0.00     0.009 A 
ENDBRANCH  19  20
ENDBRANCH   7  19
TORSDOF 8
ENDMDL
MODEL 2
REMARK VINA RESULT:      -6.9      2.829      5.034
REMARK  8 active torsions:
REMARK  status: ('A' for Active; 'I' for Inactive)
REMARK    1  A    between atoms: C4_4  and  C5_5 
REMARK    2  A    between atoms: C5_5  and  C6_6 
REMARK    3  A    between atoms: C6_6  and  N1_7 
REMARK    4  A    between atoms: N1_7  and  C7_8 
REMARK    5  A    between atoms: C7_8  and  C11_12 
REMARK    6  A    between atoms: C8_9  and  C9_10 
REMARK    7  A    between atoms: N4_17  and  C14_18 
REMARK    8  A    between atoms: C14_18  and  C15_19 
ROOT
HETATM    1  C1  UNL     1      22.958   1.027  52.926  1.00  0.00     0.099 C 
HETATM    2  C2  UNL     1      24.097   1.487  52.491  1.00  0.00    -0.123 C 
HETATM    3  C3  UNL     1      25.204   1.983  51.959  1.00  0.00     0.105 A 
HETATM    4  C4  UNL     1      25.248   2.700  50.820  1.00  0.00     0.017 A 
HETATM    5  C13 UNL     1      26.620   2.971  50.713  1.00  0.00     0.153 A 
HETATM    6  N3  UNL     1      27.256   2.402  51.777  1.00  0.00    -0.183 NA
HETATM    7  N4  UNL     1      26.359   1.781  52.560  1.00  0.00    -0.258 N 
ENDROOT
BRANCH   4   8
HETATM    8  C5  UNL     1      24.304   3.084  49.978  1.00  0.00     0.008 C 
BRANCH   8   9
HETATM    9  C6  UNL     1      23.647   4.417  50.191  1.00  0.00     0.148 C 
BRANCH   9  10
HETATM   10  N1  UNL     1      24.188   5.421  49.328  1.00  0.00    -0.389 N 
HETATM   11  H6  UNL     1      24.038   5.312  48.300  1.00  0.00     0.159 HD
BRANCH  10  12
HETATM   12  C7  UNL     1      24.915   6.556  49.781  1.00  0.00     0.018 C 
HETATM   13  C8  UNL     1      26.184   6.719  49.447  1.00  0.00     0.021 C 
BRANCH  13  14
HETATM   14  C9  UNL     1      26.845   5.730  48.608  1.00  0.00    -0.024 C 
HETATM   15  C10 UNL     1      28.152   5.602  48.448  1.00  0.00     0.031 C 
ENDBRANCH  13  14
BRANCH  12  16
HETATM   16  C11 UNL     1      24.194   7.520  50.625  1.00  0.00     0.180 C 
HETATM   17  C12 UNL     1      23.024   8.079  49.945  1.00  0.00     0.065 C 
HETATM   18  N2  UNL     1      22.094   8.526  49.390  1.00  0.00    -0.197 NA
ENDBRANCH  12  16
ENDBRANCH  10  12
ENDBRANCH   9  10
ENDBRANCH   8   9
ENDBRANCH   4   8
BRANCH   7  19
HETATM   19  C14 UNL     1      26.675   1.072  53.771  1.00  0.00     0.190 C 
BRANCH  19  20
HETATM   20  C15 UNL     1      27.491  -0.134  53.529  1.00  0.00    -0.038 A 
HETATM   21  C16 UNL     1      28.828  -0.137  53.885  1.00  0.00     0.009 A 
HETATM   22  C17 UNL     1      29.559  -1.291  53.640  1.00  0.00     0.001 A 
HETATM   23  C18 UNL     1      29.004  -2.416  53.062  1.00  0.00     0.000 A 
HETATM   24  C19 UNL     1      27.675  -2.407  52.711  1.00  0.00     0.001 A 
HETATM   25  C20 UNL     1      26.938  -1.250  52.956  1.00  0.00     0.009 A 
ENDBRANCH  19  20
ENDBRANCH   7  19
TORSDOF 8
ENDMDL
MODEL 3
REMARK VINA RESULT:      -6.9      2.003      6.858
REMARK  8 active torsions:
REMARK  status: ('A' for Active; 'I' for Inactive)
REMARK    1  A    between atoms: C4_4  and  C5_5 
REMARK    2  A    between atoms: C5_5  and  C6_6 
REMARK    3  A    between atoms: C6_6  and  N1_7 
REMARK    4  A    between atoms: N1_7  and  C7_8 
REMARK    5  A    between atoms: C7_8  and  C11_12 
REMARK    6  A    between atoms: C8_9  and  C9_10 
REMARK    7  A    between atoms: N4_17  and  C14_18 
REMARK    8  A    between atoms: C14_18  and  C15_19 
ROOT
HETATM    1  C1  UNL     1      22.655   2.411  47.721  1.00  0.00     0.099 C 
HETATM    2  C2  UNL     1      23.075   2.957  48.829  1.00  0.00    -0.123 C 
HETATM    3  C3  UNL     1      23.457   3.429  50.005  1.00  0.00     0.105 A 
HETATM    4  C4  UNL     1      23.353   2.757  51.168  1.00  0.00     0.017 A 
HETATM    5  C13 UNL     1      23.886   3.684  52.075  1.00  0.00     0.153 A 
HETATM    6  N3  UNL     1      24.252   4.801  51.385  1.00  0.00    -0.183 NA
HETATM    7  N4  UNL     1      23.980   4.636  50.080  1.00  0.00    -0.258 N 
ENDROOT
BRANCH   4   8
HETATM    8  C5  UNL     1      22.888   1.554  51.456  1.00  0.00     0.008 C 
BRANCH   8   9
HETATM    9  C6  UNL     1      23.024   1.046  52.863  1.00  0.00     0.148 C 
BRANCH   9  10
HETATM   10  N1  UNL     1      23.728  -0.198  52.913  1.00  0.00    -0.389 N 
HETATM   11  H6  UNL     1      23.425  -0.956  52.262  1.00  0.00     0.159 HD
BRANCH  10  12
HETATM   12  C7  UNL     1      24.811  -0.467  53.794  1.00  0.00     0.018 C 
HETATM   13  C8  UNL     1      26.060  -0.267  53.405  1.00  0.00     0.021 C 
BRANCH  13  14
HETATM   14  C9  UNL     1      26.329   0.232  52.064  1.00  0.00    -0.024 C 
HETATM   15  C10 UNL     1      26.712   1.461  51.761  1.00  0.00     0.031 C 
ENDBRANCH  13  14
BRANCH  12  16
HETATM   16  C11 UNL     1      24.476  -0.969  55.134  1.00  0.00     0.180 C 
HETATM   17  C12 UNL     1      23.099  -1.462  55.208  1.00  0.00     0.065 C 
HETATM   18  N2  UNL     1      21.994  -1.849  55.260  1.00  0.00    -0.197 NA
ENDBRANCH  12  16
ENDBRANCH  10  12
ENDBRANCH   9  10
ENDBRANCH   8   9
ENDBRANCH   4   8
BRANCH   7  19
HETATM   19  C14 UNL     1      24.234   5.614  49.057  1.00  0.00     0.190 C 
BRANCH  19  20
HETATM   20  C15 UNL     1      25.672   5.766  48.758  1.00  0.00    -0.038 A 
HETATM   21  C16 UNL     1      26.531   4.705  48.980  1.00  0.00     0.009 A 
HETATM   22  C17 UNL     1      27.875   4.890  48.687  1.00  0.00     0.001 A 
HETATM   23  C18 UNL     1      28.372   6.078  48.189  1.00  0.00     0.000 A 
HETATM   24  C19 UNL     1      27.513   7.129  47.969  1.00  0.00     0.001 A 
HETATM   25  C20 UNL     1      26.163   6.946  48.263  1.00  0.00     0.009 A 
ENDBRANCH  19  20
ENDBRANCH   7  19
TORSDOF 8
ENDMDL
MODEL 4
REMARK VINA RESULT:      -6.8      1.857      2.419
REMARK  8 active torsions:
REMARK  status: ('A' for Active; 'I' for Inactive)
REMARK    1  A    between atoms: C4_4  and  C5_5 
REMARK    2  A    between atoms: C5_5  and  C6_6 
REMARK    3  A    between atoms: C6_6  and  N1_7 
REMARK    4  A    between atoms: N1_7  and  C7_8 
REMARK    5  A    between atoms: C7_8  and  C11_12 
REMARK    6  A    between atoms: C8_9  and  C9_10 
REMARK    7  A    between atoms: N4_17  and  C14_18 
REMARK    8  A    between atoms: C14_18  and  C15_19 
ROOT
HETATM    1  C1  UNL     1      22.831   2.882  48.667  1.00  0.00     0.099 C 
HETATM    2  C2  UNL     1      23.126   3.129  49.913  1.00  0.00    -0.123 C 
HETATM    3  C3  UNL     1      23.425   3.482  51.154  1.00  0.00     0.105 A 
HETATM    4  C4  UNL     1      23.416   4.750  51.609  1.00  0.00     0.017 A 
HETATM    5  C13 UNL     1      23.798   4.569  52.946  1.00  0.00     0.153 A 
HETATM    6  N3  UNL     1      23.996   3.238  53.162  1.00  0.00    -0.183 NA
HETATM    7  N4  UNL     1      23.760   2.556  52.029  1.00  0.00    -0.258 N 
ENDROOT
BRANCH   4   8
HETATM    8  C5  UNL     1      23.136   5.900  51.021  1.00  0.00     0.008 C 
BRANCH   8   9
HETATM    9  C6  UNL     1      23.994   7.094  51.326  1.00  0.00     0.148 C 
BRANCH   9  10
HETATM   10  N1  UNL     1      25.367   6.859  51.002  1.00  0.00    -0.389 N 
HETATM   11  H6  UNL     1      25.923   6.253  51.645  1.00  0.00     0.159 HD
BRANCH  10  12
HETATM   12  C7  UNL     1      26.020   7.398  49.860  1.00  0.00     0.018 C 
HETATM   13  C8  UNL     1      26.393   6.612  48.863  1.00  0.00     0.021 C 
BRANCH  13  14
HETATM   14  C9  UNL     1      26.133   5.182  48.934  1.00  0.00    -0.024 C 
HETATM   15  C10 UNL     1      27.041   4.242  49.140  1.00  0.00     0.031 C 
ENDBRANCH  13  14
BRANCH  12  16
HETATM   16  C11 UNL     1      26.255   8.850  49.846  1.00  0.00     0.180 C 
HETATM   17  C12 UNL     1      27.679   9.176  49.747  1.00  0.00     0.065 C 
HETATM   18  N2  UNL     1      28.821   9.428  49.674  1.00  0.00    -0.197 NA
ENDBRANCH  12  16
ENDBRANCH  10  12
ENDBRANCH   9  10
ENDBRANCH   8   9
ENDBRANCH   4   8
BRANCH   7  19
HETATM   19  C14 UNL     1      23.872   1.129  51.889  1.00  0.00     0.190 C 
BRANCH  19  20
HETATM   20  C15 UNL     1      22.992   0.394  52.818  1.00  0.00    -0.038 A 
HETATM   21  C16 UNL     1      23.549  -0.430  53.779  1.00  0.00     0.009 A 
HETATM   22  C17 UNL     1      22.687  -1.103  54.632  1.00  0.00     0.001 A 
HETATM   23  C18 UNL     1      21.313  -0.979  54.553  1.00  0.00     0.000 A 
HETATM   24  C19 UNL     1      20.765  -0.158  53.596  1.00  0.00     0.001 A 
HETATM   25  C20 UNL     1      21.629   0.519  52.738  1.00  0.00     0.009 A 
ENDBRANCH  19  20
ENDBRANCH   7  19
TORSDOF 8
ENDMDL
MODEL 5
REMARK VINA RESULT:      -6.8      2.722      5.102
REMARK  8 active torsions:
REMARK  status: ('A' for Active; 'I' for Inactive)
REMARK    1  A    between atoms: C4_4  and  C5_5 
REMARK    2  A    between atoms: C5_5  and  C6_6 
REMARK    3  A    between atoms: C6_6  and  N1_7 
REMARK    4  A    between atoms: N1_7  and  C7_8 
REMARK    5  A    between atoms: C7_8  and  C11_12 
REMARK    6  A    between atoms: C8_9  and  C9_10 
REMARK    7  A    between atoms: N4_17  and  C14_18 
REMARK    8  A    between atoms: C14_18  and  C15_19 
ROOT
HETATM    1  C1  UNL     1      22.936   0.841  52.716  1.00  0.00     0.099 C 
HETATM    2  C2  UNL     1      24.045   1.391  52.307  1.00  0.00    -0.123 C 
HETATM    3  C3  UNL     1      25.121   1.974  51.802  1.00  0.00     0.105 A 
HETATM    4  C4  UNL     1      25.135   2.697  50.666  1.00  0.00     0.017 A 
HETATM    5  C13 UNL     1      26.483   3.075  50.590  1.00  0.00     0.153 A 
HETATM    6  N3  UNL     1      27.138   2.553  51.666  1.00  0.00    -0.183 NA
HETATM    7  N4  UNL     1      26.275   1.860  52.428  1.00  0.00    -0.258 N 
ENDROOT
BRANCH   4   8
HETATM    8  C5  UNL     1      24.182   3.010  49.804  1.00  0.00     0.008 C 
BRANCH   8   9
HETATM    9  C6  UNL     1      24.208   4.367  49.162  1.00  0.00     0.148 C 
BRANCH   9  10
HETATM   10  N1  UNL     1      23.102   5.173  49.576  1.00  0.00    -0.389 N 
HETATM   11  H6  UNL     1      22.320   5.313  48.898  1.00  0.00     0.159 HD
BRANCH  10  12
HETATM   12  C7  UNL     1      23.001   5.794  50.851  1.00  0.00     0.018 C 
HETATM   13  C8  UNL     1      22.034   5.459  51.689  1.00  0.00     0.021 C 
BRANCH  13  14
HETATM   14  C9  UNL     1      21.063   4.445  51.303  1.00  0.00    -0.024 C 
HETATM   15  C10 UNL     1      20.544   3.529  52.105  1.00  0.00     0.031 C 
ENDBRANCH  13  14
BRANCH  12  16
HETATM   16  C11 UNL     1      24.011   6.810  51.183  1.00  0.00     0.180 C 
HETATM   17  C12 UNL     1      24.036   7.900  50.206  1.00  0.00     0.065 C 
HETATM   18  N2  UNL     1      24.054   8.765  49.415  1.00  0.00    -0.197 NA
ENDBRANCH  12  16
ENDBRANCH  10  12
ENDBRANCH   9  10
ENDBRANCH   8   9
ENDBRANCH   4   8
BRANCH   7  19
HETATM   19  C14 UNL     1      26.619   1.173  53.644  1.00  0.00     0.190 C 
BRANCH  19  20
HETATM   20  C15 UNL     1      27.355  -0.083  53.400  1.00  0.00    -0.038 A 
HETATM   21  C16 UNL     1      26.681  -1.185  52.905  1.00  0.00     0.009 A 
HETATM   22  C17 UNL     1      27.409  -2.346  52.691  1.00  0.00     0.001 A 
HETATM   23  C18 UNL     1      28.762  -2.436  52.953  1.00  0.00     0.000 A 
HETATM   24  C19 UNL     1      29.428  -1.337  53.444  1.00  0.00     0.001 A 
HETATM   25  C20 UNL     1      28.698  -0.170  53.660  1.00  0.00     0.009 A 
ENDBRANCH  19  20
ENDBRANCH   7  19
TORSDOF 8
ENDMDL
MODEL 6
REMARK VINA RESULT:      -6.7      2.696      6.462
REMARK  8 active torsions:
REMARK  status: ('A' for Active; 'I' for Inactive)
REMARK    1  A    between atoms: C4_4  and  C5_5 
REMARK    2  A    between atoms: C5_5  and  C6_6 
REMARK    3  A    between atoms: C6_6  and  N1_7 
REMARK    4  A    between atoms: N1_7  and  C7_8 
REMARK    5  A    between atoms: C7_8  and  C11_12 
REMARK    6  A    between atoms: C8_9  and  C9_10 
REMARK    7  A    between atoms: N4_17  and  C14_18 
REMARK    8  A    between atoms: C14_18  and  C15_19 
ROOT
HETATM    1  C1  UNL     1      26.509   3.254  49.539  1.00  0.00     0.099 C 
HETATM    2  C2  UNL     1      26.056   2.837  50.688  1.00  0.00    -0.123 C 
HETATM    3  C3  UNL     1      25.499   2.442  51.822  1.00  0.00     0.105 A 
HETATM    4  C4  UNL     1      24.171   2.369  52.035  1.00  0.00     0.017 A 
HETATM    5  C13 UNL     1      24.125   1.908  53.359  1.00  0.00     0.153 A 
HETATM    6  N3  UNL     1      25.403   1.752  53.806  1.00  0.00    -0.183 NA
HETATM    7  N4  UNL     1      26.266   2.089  52.834  1.00  0.00    -0.258 N 
ENDROOT
BRANCH   4   8
HETATM    8  C5  UNL     1      23.134   2.640  51.261  1.00  0.00     0.008 C 
BRANCH   8   9
HETATM    9  C6  UNL     1      22.583   1.551  50.387  1.00  0.00     0.148 C 
BRANCH   9  10
HETATM   10  N1  UNL     1      21.907   0.547  51.149  1.00  0.00    -0.389 N 
HETATM   11  H6  UNL     1      22.395  -0.365  51.295  1.00  0.00     0.159 HD
BRANCH  10  12
HETATM   12  C7  UNL     1      20.615   0.713  51.718  1.00  0.00     0.018 C 
HETATM   13  C8  UNL     1      20.360   0.290  52.945  1.00  0.00     0.021 C 
BRANCH  13  14
HETATM   14  C9  UNL     1      21.411  -0.353  53.721  1.00  0.00    -0.024 C 
HETATM   15  C10 UNL     1      21.340  -1.555  54.270  1.00  0.00     0.031 C 
ENDBRANCH  13  14
BRANCH  12  16
HETATM   16  C11 UNL     1      19.596   1.369  50.885  1.00  0.00     0.180 C 
HETATM   17  C12 UNL     1      19.122   2.620  51.480  1.00  0.00     0.065 C 
HETATM   18  N2  UNL     1      18.744   3.617  51.967  1.00  0.00    -0.197 NA
ENDBRANCH  12  16
ENDBRANCH  10  12
ENDBRANCH   9  10
ENDBRANCH   8   9
ENDBRANCH   4   8
BRANCH   7  19
HETATM   19  C14 UNL     1      27.699   2.047  52.954  1.00  0.00     0.190 C 
BRANCH  19  20
HETATM   20  C15 UNL     1      28.219   0.672  53.093  1.00  0.00    -0.038 A 
HETATM   21  C16 UNL     1      29.482   0.469  53.618  1.00  0.00     0.009 A 
HETATM   22  C17 UNL     1      29.933  -0.838  53.730  1.00  0.00     0.001 A 
HETATM   23  C18 UNL     1      29.173  -1.924  53.341  1.00  0.00     0.000 A 
HETATM   24  C19 UNL     1      27.918  -1.716  52.820  1.00  0.00     0.001 A 
HETATM   25  C20 UNL     1      27.463  -0.404  52.706  1.00  0.00     0.009 A 
ENDBRANCH  19  20
ENDBRANCH   7  19
TORSDOF 8
ENDMDL
MODEL 7
REMARK VINA RESULT:      -6.7      2.683      5.778
REMARK  8 active torsions:
REMARK  status: ('A' for Active; 'I' for Inactive)
REMARK    1  A    between atoms: C4_4  and  C5_5 
REMARK    2  A    between atoms: C5_5  and  C6_6 
REMARK    3  A    between atoms: C6_6  and  N1_7 
REMARK    4  A    between atoms: N1_7  and  C7_8 
REMARK    5  A    between atoms: C7_8  and  C11_12 
REMARK    6  A    between atoms: C8_9  and  C9_10 
REMARK    7  A    between atoms: N4_17  and  C14_18 
REMARK    8  A    between atoms: C14_18  and  C15_19 
ROOT
HETATM    1  C1  UNL     1      22.999   0.893  53.009  1.00  0.00     0.099 C 
HETATM    2  C2  UNL     1      24.085   1.401  52.497  1.00  0.00    -0.123 C 
HETATM    3  C3  UNL     1      25.132   1.940  51.890  1.00  0.00     0.105 A 
HETATM    4  C4  UNL     1      25.075   2.615  50.727  1.00  0.00     0.017 A 
HETATM    5  C13 UNL     1      26.421   2.961  50.537  1.00  0.00     0.153 A 
HETATM    6  N3  UNL     1      27.143   2.470  51.584  1.00  0.00    -0.183 NA
HETATM    7  N4  UNL     1      26.326   1.827  52.435  1.00  0.00    -0.258 N 
ENDROOT
BRANCH   4   8
HETATM    8  C5  UNL     1      24.068   2.913  49.924  1.00  0.00     0.008 C 
BRANCH   8   9
HETATM    9  C6  UNL     1      23.915   4.331  49.454  1.00  0.00     0.148 C 
BRANCH   9  10
HETATM   10  N1  UNL     1      23.825   5.248  50.548  1.00  0.00    -0.389 N 
HETATM   11  H6  UNL     1      24.698   5.736  50.847  1.00  0.00     0.159 HD
BRANCH  10  12
HETATM   12  C7  UNL     1      22.623   5.535  51.251  1.00  0.00     0.018 C 
HETATM   13  C8  UNL     1      21.814   6.496  50.838  1.00  0.00     0.021 C 
BRANCH  13  14
HETATM   14  C9  UNL     1      22.156   7.268  49.652  1.00  0.00    -0.024 C 
HETATM   15  C10 UNL     1      22.547   8.532  49.639  1.00  0.00     0.031 C 
ENDBRANCH  13  14
BRANCH  12  16
HETATM   16  C11 UNL     1      22.333   4.721  52.441  1.00  0.00     0.180 C 
HETATM   17  C12 UNL     1      21.067   3.996  52.316  1.00  0.00     0.065 C 
HETATM   18  N2  UNL     1      20.049   3.425  52.210  1.00  0.00    -0.197 NA
ENDBRANCH  12  16
ENDBRANCH  10  12
ENDBRANCH   9  10
ENDBRANCH   8   9
ENDBRANCH   4   8
BRANCH   7  19
HETATM   19  C14 UNL     1      26.746   1.183  53.651  1.00  0.00     0.190 C 
BRANCH  19  20
HETATM   20  C15 UNL     1      27.454  -0.088  53.408  1.00  0.00    -0.038 A 
HETATM   21  C16 UNL     1      26.759  -1.172  52.903  1.00  0.00     0.009 A 
HETATM   22  C17 UNL     1      27.463  -2.349  52.690  1.00  0.00     0.001 A 
HETATM   23  C18 UNL     1      28.812  -2.470  52.961  1.00  0.00     0.000 A 
HETATM   24  C19 UNL     1      29.498  -1.389  53.461  1.00  0.00     0.001 A 
HETATM   25  C20 UNL     1      28.794  -0.206  53.677  1.00  0.00     0.009 A 
ENDBRANCH  19  20
ENDBRANCH   7  19
TORSDOF 8
ENDMDL
MODEL 8
REMARK VINA RESULT:      -6.6      2.662      5.901
REMARK  8 active torsions:
REMARK  status: ('A' for Active; 'I' for Inactive)
REMARK    1  A    between atoms: C4_4  and  C5_5 
REMARK    2  A    between atoms: C5_5  and  C6_6 
REMARK    3  A    between atoms: C6_6  and  N1_7 
REMARK    4  A    between atoms: N1_7  and  C7_8 
REMARK    5  A    between atoms: C7_8  and  C11_12 
REMARK    6  A    between atoms: C8_9  and  C9_10 
REMARK    7  A    between atoms: N4_17  and  C14_18 
REMARK    8  A    between atoms: C14_18  and  C15_19 
ROOT
HETATM    1  C1  UNL     1      26.607   3.180  49.384  1.00  0.00     0.099 C 
HETATM    2  C2  UNL     1      26.158   2.929  50.582  1.00  0.00    -0.123 C 
HETATM    3  C3  UNL     1      25.613   2.727  51.772  1.00  0.00     0.105 A 
HETATM    4  C4  UNL     1      24.335   3.012  52.084  1.00  0.00     0.017 A 
HETATM    5  C13 UNL     1      24.280   2.616  53.428  1.00  0.00     0.153 A 
HETATM    6  N3  UNL     1      25.506   2.141  53.788  1.00  0.00    -0.183 NA
HETATM    7  N4  UNL     1      26.344   2.213  52.740  1.00  0.00    -0.258 N 
ENDROOT
BRANCH   4   8
HETATM    8  C5  UNL     1      23.343   3.524  51.375  1.00  0.00     0.008 C 
BRANCH   8   9
HETATM    9  C6  UNL     1      22.025   3.770  52.052  1.00  0.00     0.148 C 
BRANCH   9  10
HETATM   10  N1  UNL     1      20.985   2.956  51.502  1.00  0.00    -0.389 N 
HETATM   11  H6  UNL     1      20.184   3.439  51.038  1.00  0.00     0.159 HD
BRANCH  10  12
HETATM   12  C7  UNL     1      20.975   1.535  51.547  1.00  0.00     0.018 C 
HETATM   13  C8  UNL     1      20.979   0.826  50.431  1.00  0.00     0.021 C 
BRANCH  13  14
HETATM   14  C9  UNL     1      20.993   1.504  49.143  1.00  0.00    -0.024 C 
HETATM   15  C10 UNL     1      21.991   1.489  48.274  1.00  0.00     0.031 C 
ENDBRANCH  13  14
BRANCH  12  16
HETATM   16  C11 UNL     1      20.961   0.909  52.877  1.00  0.00     0.180 C 
HETATM   17  C12 UNL     1      22.004  -0.110  53.016  1.00  0.00     0.065 C 
HETATM   18  N2  UNL     1      22.837  -0.928  53.117  1.00  0.00    -0.197 NA
ENDBRANCH  12  16
ENDBRANCH  10  12
ENDBRANCH   9  10
ENDBRANCH   8   9
ENDBRANCH   4   8
BRANCH   7  19
HETATM   19  C14 UNL     1      27.721   1.798  52.758  1.00  0.00     0.190 C 
BRANCH  19  20
HETATM   20  C15 UNL     1      27.874   0.332  52.828  1.00  0.00    -0.038 A 
HETATM   21  C16 UNL     1      29.015  -0.210  53.391  1.00  0.00     0.009 A 
HETATM   22  C17 UNL     1      29.119  -1.593  53.437  1.00  0.00     0.001 A 
HETATM   23  C18 UNL     1      28.137  -2.431  52.945  1.00  0.00     0.000 A 
HETATM   24  C19 UNL     1      27.004  -1.886  52.387  1.00  0.00     0.001 A 
HETATM   25  C20 UNL     1      26.898  -0.498  52.340  1.00  0.00     0.009 A 
ENDBRANCH  19  20
ENDBRANCH   7  19
TORSDOF 8
ENDMDL
MODEL 9
REMARK VINA RESULT:      -6.6      3.295      7.126
REMARK  8 active torsions:
REMARK  status: ('A' for Active; 'I' for Inactive)
REMARK    1  A    between atoms: C4_4  and  C5_5 
REMARK    2  A    between atoms: C5_5  and  C6_6 
REMARK    3  A    between atoms: C6_6  and  N1_7 
REMARK    4  A    between atoms: N1_7  and  C7_8 
REMARK    5  A    between atoms: C7_8  and  C11_12 
REMARK    6  A    between atoms: C8_9  and  C9_10 
REMARK    7  A    between atoms: N4_17  and  C14_18 
REMARK    8  A    between atoms: C14_18  and  C15_19 
ROOT
HETATM    1  C1  UNL     1      21.697  -0.560  54.431  1.00  0.00     0.099 C 
HETATM    2  C2  UNL     1      22.638  -0.042  53.693  1.00  0.00    -0.123 C 
HETATM    3  C3  UNL     1      23.518   0.519  52.877  1.00  0.00     0.105 A 
HETATM    4  C4  UNL     1      23.197   1.319  51.843  1.00  0.00     0.017 A 
HETATM    5  C13 UNL     1      24.464   1.630  51.326  1.00  0.00     0.153 A 
HETATM    6  N3  UNL     1      25.405   0.998  52.084  1.00  0.00    -0.183 NA
HETATM    7  N4  UNL     1      24.804   0.299  53.061  1.00  0.00    -0.258 N 
ENDROOT
BRANCH   4   8
HETATM    8  C5  UNL     1      22.034   1.743  51.379  1.00  0.00     0.008 C 
BRANCH   8   9
HETATM    9  C6  UNL     1      21.278   2.776  52.163  1.00  0.00     0.148 C 
BRANCH   9  10
HETATM   10  N1  UNL     1      20.004   2.290  52.594  1.00  0.00    -0.389 N 
HETATM   11  H6  UNL     1      19.902   2.015  53.596  1.00  0.00     0.159 HD
BRANCH  10  12
HETATM   12  C7  UNL     1      18.871   2.159  51.745  1.00  0.00     0.018 C 
HETATM   13  C8  UNL     1      18.303   0.979  51.559  1.00  0.00     0.021 C 
BRANCH  13  14
HETATM   14  C9  UNL     1      18.840  -0.196  52.229  1.00  0.00    -0.024 C 
HETATM   15  C10 UNL     1      18.137  -1.081  52.917  1.00  0.00     0.031 C 
ENDBRANCH  13  14
BRANCH  12  16
HETATM   16  C11 UNL     1      18.376   3.382  51.097  1.00  0.00     0.180 C 
HETATM   17  C12 UNL     1      17.195   3.922  51.773  1.00  0.00     0.065 C 
HETATM   18  N2  UNL     1      16.246   4.344  52.316  1.00  0.00    -0.197 NA
ENDBRANCH  12  16
ENDBRANCH  10  12
ENDBRANCH   9  10
ENDBRANCH   8   9
ENDBRANCH   4   8
BRANCH   7  19
HETATM   19  C14 UNL     1      25.490  -0.491  54.048  1.00  0.00     0.190 C 
BRANCH  19  20
HETATM   20  C15 UNL     1      26.958  -0.408  53.925  1.00  0.00    -0.038 A 
HETATM   21  C16 UNL     1      27.637  -1.362  53.190  1.00  0.00     0.009 A 
HETATM   22  C17 UNL     1      29.017  -1.248  53.100  1.00  0.00     0.001 A 
HETATM   23  C18 UNL     1      29.722  -0.229  53.712  1.00  0.00     0.000 A 
HETATM   24  C19 UNL     1      29.042   0.717  54.441  1.00  0.00     0.001 A 
HETATM   25  C20 UNL     1      27.656   0.604  54.533  1.00  0.00     0.009 A 
ENDBRANCH  19  20
ENDBRANCH   7  19
TORSDOF 8
ENDMDL
