MODEL 1
REMARK VINA RESULT:      -7.0      0.000      0.000
REMARK  5 active torsions:
REMARK  status: ('A' for Active; 'I' for Inactive)
REMARK    1  A    between atoms: C2_2  and  N1_3 
REMARK    2  A    between atoms: C5_6  and  N2_7 
REMARK    3  A    between atoms: N2_7  and  C6_8 
REMARK    4  A    between atoms: N3_9  and  C7_10 
REMARK    5  A    between atoms: C12_18  and  C13_19 
ROOT
HETATM    1  C6  UNL     1      24.610   1.482  52.582  1.00  0.00     0.197 C 
HETATM    2  N3  UNL     1      23.454   1.162  53.053  1.00  0.00    -0.270 NA
ENDROOT
BRANCH   2   3
HETATM    3  C7  UNL     1      22.613   0.259  52.431  1.00  0.00     0.228 C 
HETATM    4  C8  UNL     1      21.763   0.948  51.378  1.00  0.00     0.121 C 
HETATM    5  N4  UNL     1      20.574   0.383  51.562  1.00  0.00    -0.232 NA
HETATM    6  C9  UNL     1      20.438  -0.407  52.907  1.00  0.00     0.490 A 
HETATM    7  N5  UNL     1      20.818  -1.013  54.117  1.00  0.00     0.226 N 
HETATM    8  C12 UNL     1      19.141  -0.755  53.061  1.00  0.00     0.330 A 
HETATM    9  N6  UNL     1      20.275  -0.922  53.781  1.00  0.00     0.228 N 
HETATM   10  C11 UNL     1      21.546  -0.446  53.360  1.00  0.00     0.451 A 
HETATM   11  C10 UNL     1      22.032  -1.018  54.561  1.00  0.00     0.299 A 
BRANCH   8  12
HETATM   12  C13 UNL     1      17.780  -1.232  53.461  1.00  0.00     0.443 C 
HETATM   13  O1  UNL     1      16.986  -1.012  52.554  1.00  0.00    -0.427 OA
ENDBRANCH   8  12
ENDBRANCH   2   3
BRANCH   1  14
HETATM   14  N2  UNL     1      25.344   2.443  53.375  1.00  0.00    -0.380 N 
HETATM   15  H11 UNL     1      24.856   3.390  53.447  1.00  0.00     0.160 HD
BRANCH  14  16
HETATM   16  C5  UNL     1      26.638   2.120  54.025  1.00  0.00     0.085 C 
HETATM   17  C4  UNL     1      27.772   2.316  53.077  1.00  0.00     0.044 C 
HETATM   18  C3  UNL     1      29.031   1.622  53.583  1.00  0.00     0.119 C 
HETATM   19  N1  UNL     1      28.789   0.274  53.907  1.00  0.00    -0.413 N 
HETATM   20  C15 UNL     1      27.729  -0.044  54.775  1.00  0.00     0.119 C 
HETATM   21  C14 UNL     1      26.479   0.657  54.375  1.00  0.00     0.044 C 
BRANCH  19  22
HETATM   22  C2  UNL     1      29.786  -0.683  53.637  1.00  0.00     0.112 C 
HETATM   23  C1  UNL     1      29.275  -2.062  53.305  1.00  0.00     0.026 C 
ENDBRANCH  19  22
ENDBRANCH  14  16
ENDBRANCH   1  14
TORSDOF 5
ENDMDL
MODEL 2
REMARK VINA RESULT:      -7.0      4.286      6.025
REMARK  5 active torsions:
REMARK  status: ('A' for Active; 'I' for Inactive)
REMARK    1  A    between atoms: C2_2  and  N1_3 
REMARK    2  A    between atoms: C5_6  and  N2_7 
REMARK    3  A    between atoms: N2_7  and  C6_8 
REMARK    4  A    between atoms: N3_9  and  C7_10 
REMARK    5  A    between atoms: C12_18  and  C13_19 
ROOT
HETATM    1  C6  UNL     1      26.437   3.106  50.756  1.00  0.00     0.197 C 
HETATM    2  N3  UNL     1      25.601   2.173  51.055  1.00  0.00    -0.270 NA
ENDROOT
BRANCH   2   3
HETATM    3  C7  UNL     1      25.452   1.681  52.338  1.00  0.00     0.228 C 
HETATM    4  C8  UNL     1      26.177   0.356  52.498  1.00  0.00     0.121 C 
HETATM    5  N4  UNL     1      25.311  -0.355  53.212  1.00  0.00    -0.232 NA
HETATM    6  C9  UNL     1      23.871   0.257  53.272  1.00  0.00     0.490 A 
HETATM    7  N5  UNL     1      22.833   1.188  53.100  1.00  0.00     0.226 N 
HETATM    8  C12 UNL     1      23.053  -0.651  53.850  1.00  0.00     0.330 A 
HETATM    9  N6  UNL     1      22.902   0.590  53.334  1.00  0.00     0.228 N 
HETATM   10  C11 UNL     1      23.972   1.345  52.783  1.00  0.00     0.451 A 
HETATM   11  C10 UNL     1      23.000   2.349  52.557  1.00  0.00     0.299 A 
BRANCH   8  12
HETATM   12  C13 UNL     1      21.959  -1.487  54.436  1.00  0.00     0.443 C 
HETATM   13  O1  UNL     1      22.326  -1.948  55.510  1.00  0.00    -0.427 OA
ENDBRANCH   8  12
ENDBRANCH   2   3
BRANCH   1  14
HETATM   14  N2  UNL     1      26.448   3.487  49.361  1.00  0.00    -0.380 N 
HETATM   15  H11 UNL     1      26.657   2.673  48.703  1.00  0.00     0.160 HD
BRANCH  14  16
HETATM   16  C5  UNL     1      26.181   4.876  48.911  1.00  0.00     0.085 C 
HETATM   17  C4  UNL     1      27.454   5.589  48.604  1.00  0.00     0.044 C 
HETATM   18  C3  UNL     1      27.230   7.095  48.533  1.00  0.00     0.119 C 
HETATM   19  N1  UNL     1      26.570   7.579  49.677  1.00  0.00    -0.413 N 
HETATM   20  C15 UNL     1      25.368   6.972  50.085  1.00  0.00     0.119 C 
HETATM   21  C14 UNL     1      25.498   5.490  50.112  1.00  0.00     0.044 C 
BRANCH  19  22
HETATM   22  C2  UNL     1      26.928   8.840  50.190  1.00  0.00     0.112 C 
HETATM   23  C1  UNL     1      28.253   9.374  49.707  1.00  0.00     0.026 C 
ENDBRANCH  19  22
ENDBRANCH  14  16
ENDBRANCH   1  14
TORSDOF 5
ENDMDL
MODEL 3
REMARK VINA RESULT:      -6.8      4.014      7.068
REMARK  5 active torsions:
REMARK  status: ('A' for Active; 'I' for Inactive)
REMARK    1  A    between atoms: C2_2  and  N1_3 
REMARK    2  A    between atoms: C5_6  and  N2_7 
REMARK    3  A    between atoms: N2_7  and  C6_8 
REMARK    4  A    between atoms: N3_9  and  C7_10 
REMARK    5  A    between atoms: C12_18  and  C13_19 
ROOT
HETATM    1  C6  UNL     1      22.868   1.274  52.167  1.00  0.00     0.197 C 
HETATM    2  N3  UNL     1      23.791   1.088  53.046  1.00  0.00    -0.270 NA
ENDROOT
BRANCH   2   3
HETATM    3  C7  UNL     1      24.631  -0.009  53.031  1.00  0.00     0.228 C 
HETATM    4  C8  UNL     1      24.702  -0.656  54.403  1.00  0.00     0.121 C 
HETATM    5  N4  UNL     1      25.996  -0.937  54.516  1.00  0.00    -0.232 NA
HETATM    6  C9  UNL     1      26.905  -0.218  53.464  1.00  0.00     0.490 A 
HETATM    7  N5  UNL     1      27.258   0.544  52.338  1.00  0.00     0.226 N 
HETATM    8  C12 UNL     1      28.195  -0.429  53.810  1.00  0.00     0.330 A 
HETATM    9  N6  UNL     1      27.560   0.238  52.818  1.00  0.00     0.228 N 
HETATM   10  C11 UNL     1      26.146   0.285  52.686  1.00  0.00     0.451 A 
HETATM   11  C10 UNL     1      26.393   1.071  51.534  1.00  0.00     0.299 A 
BRANCH   8  12
HETATM   12  C13 UNL     1      29.678  -0.504  53.995  1.00  0.00     0.443 C 
HETATM   13  O1  UNL     1      30.057  -1.653  53.802  1.00  0.00    -0.427 OA
ENDBRANCH   8  12
ENDBRANCH   2   3
BRANCH   1  14
HETATM   14  N2  UNL     1      22.091   2.480  52.349  1.00  0.00    -0.380 N 
HETATM   15  H11 UNL     1      21.397   2.417  53.158  1.00  0.00     0.160 HD
BRANCH  14  16
HETATM   16  C5  UNL     1      22.265   3.679  51.492  1.00  0.00     0.085 C 
HETATM   17  C4  UNL     1      22.972   3.329  50.226  1.00  0.00     0.044 C 
HETATM   18  C3  UNL     1      23.506   4.580  49.538  1.00  0.00     0.119 C 
HETATM   19  N1  UNL     1      24.270   5.372  50.414  1.00  0.00    -0.413 N 
HETATM   20  C15 UNL     1      23.722   5.749  51.654  1.00  0.00     0.119 C 
HETATM   21  C14 UNL     1      23.121   4.581  52.353  1.00  0.00     0.044 C 
BRANCH  19  22
HETATM   22  C2  UNL     1      25.406   6.039  49.917  1.00  0.00     0.112 C 
HETATM   23  C1  UNL     1      26.322   5.196  49.068  1.00  0.00     0.026 C 
ENDBRANCH  19  22
ENDBRANCH  14  16
ENDBRANCH   1  14
TORSDOF 5
ENDMDL
MODEL 4
REMARK VINA RESULT:      -6.7      3.417      7.519
REMARK  5 active torsions:
REMARK  status: ('A' for Active; 'I' for Inactive)
REMARK    1  A    between atoms: C2_2  and  N1_3 
REMARK    2  A    between atoms: C5_6  and  N2_7 
REMARK    3  A    between atoms: N2_7  and  C6_8 
REMARK    4  A    between atoms: N3_9  and  C7_10 
REMARK    5  A    between atoms: C12_18  and  C13_19 
ROOT
HETATM    1  C6  UNL     1      22.267  -0.562  53.431  1.00  0.00     0.197 C 
HETATM    2  N3  UNL     1      23.350   0.047  53.770  1.00  0.00    -0.270 NA
ENDROOT
BRANCH   2   3
HETATM    3  C7  UNL     1      24.585  -0.572  53.791  1.00  0.00     0.228 C 
HETATM    4  C8  UNL     1      24.994  -0.920  55.211  1.00  0.00     0.121 C 
HETATM    5  N4  UNL     1      26.283  -0.600  55.221  1.00  0.00    -0.232 NA
HETATM    6  C9  UNL     1      26.736   0.280  54.007  1.00  0.00     0.490 A 
HETATM    7  N5  UNL     1      26.668   0.948  52.773  1.00  0.00     0.226 N 
HETATM    8  C12 UNL     1      28.001   0.696  54.240  1.00  0.00     0.330 A 
HETATM    9  N6  UNL     1      27.095   0.875  53.251  1.00  0.00     0.228 N 
HETATM   10  C11 UNL     1      25.800   0.290  53.261  1.00  0.00     0.451 A 
HETATM   11  C10 UNL     1      25.625   0.930  52.010  1.00  0.00     0.299 A 
BRANCH   8  12
HETATM   12  C13 UNL     1      29.374   1.292  54.279  1.00  0.00     0.443 C 
HETATM   13  O1  UNL     1      29.387   2.239  55.056  1.00  0.00    -0.427 OA
ENDBRANCH   8  12
ENDBRANCH   2   3
BRANCH   1  14
HETATM   14  N2  UNL     1      21.073   0.253  53.472  1.00  0.00    -0.380 N 
HETATM   15  H11 UNL     1      20.681   0.378  54.457  1.00  0.00     0.160 HD
BRANCH  14  16
HETATM   16  C5  UNL     1      20.477   0.857  52.254  1.00  0.00     0.085 C 
HETATM   17  C4  UNL     1      21.136   0.330  51.024  1.00  0.00     0.044 C 
HETATM   18  C3  UNL     1      20.825   1.214  49.821  1.00  0.00     0.119 C 
HETATM   19  N1  UNL     1      21.107   2.567  50.081  1.00  0.00    -0.413 N 
HETATM   20  C15 UNL     1      20.562   3.174  51.227  1.00  0.00     0.119 C 
HETATM   21  C14 UNL     1      20.773   2.328  52.434  1.00  0.00     0.044 C 
BRANCH  19  22
HETATM   22  C2  UNL     1      21.635   3.365  49.048  1.00  0.00     0.112 C 
HETATM   23  C1  UNL     1      23.048   3.033  48.642  1.00  0.00     0.026 C 
ENDBRANCH  19  22
ENDBRANCH  14  16
ENDBRANCH   1  14
TORSDOF 5
ENDMDL
MODEL 5
REMARK VINA RESULT:      -6.7      4.712      7.290
REMARK  5 active torsions:
REMARK  status: ('A' for Active; 'I' for Inactive)
REMARK    1  A    between atoms: C2_2  and  N1_3 
REMARK    2  A    between atoms: C5_6  and  N2_7 
REMARK    3  A    between atoms: N2_7  and  C6_8 
REMARK    4  A    between atoms: N3_9  and  C7_10 
REMARK    5  A    between atoms: C12_18  and  C13_19 
ROOT
HETATM    1  C6  UNL     1      25.718   2.695  51.215  1.00  0.00     0.197 C 
HETATM    2  N3  UNL     1      25.416   2.553  52.459  1.00  0.00    -0.270 NA
ENDROOT
BRANCH   2   3
HETATM    3  C7  UNL     1      26.179   1.807  53.337  1.00  0.00     0.228 C 
HETATM    4  C8  UNL     1      27.660   2.066  53.123  1.00  0.00     0.121 C 
HETATM    5  N4  UNL     1      28.177   0.847  53.226  1.00  0.00    -0.232 NA
HETATM    6  C9  UNL     1      27.123  -0.308  53.152  1.00  0.00     0.490 A 
HETATM    7  N5  UNL     1      25.868  -0.938  53.112  1.00  0.00     0.226 N 
HETATM    8  C12 UNL     1      27.790  -1.481  53.069  1.00  0.00     0.330 A 
HETATM    9  N6  UNL     1      26.488  -1.113  53.088  1.00  0.00     0.228 N 
HETATM   10  C11 UNL     1      26.058   0.237  53.199  1.00  0.00     0.451 A 
HETATM   11  C10 UNL     1      24.747  -0.296  53.159  1.00  0.00     0.299 A 
BRANCH   8  12
HETATM   12  C13 UNL     1      28.294  -2.885  52.950  1.00  0.00     0.443 C 
HETATM   13  O1  UNL     1      29.244  -3.044  53.707  1.00  0.00    -0.427 OA
ENDBRANCH   8  12
ENDBRANCH   2   3
BRANCH   1  14
HETATM   14  N2  UNL     1      24.797   3.511  50.455  1.00  0.00    -0.380 N 
HETATM   15  H11 UNL     1      23.780   3.393  50.758  1.00  0.00     0.160 HD
BRANCH  14  16
HETATM   16  C5  UNL     1      25.245   4.425  49.375  1.00  0.00     0.085 C 
HETATM   17  C4  UNL     1      26.734   4.505  49.330  1.00  0.00     0.044 C 
HETATM   18  C3  UNL     1      27.189   5.713  48.520  1.00  0.00     0.119 C 
HETATM   19  N1  UNL     1      26.570   6.898  48.958  1.00  0.00    -0.413 N 
HETATM   20  C15 UNL     1      25.168   6.941  49.066  1.00  0.00     0.119 C 
HETATM   21  C14 UNL     1      24.649   5.750  49.792  1.00  0.00     0.044 C 
BRANCH  19  22
HETATM   22  C2  UNL     1      27.311   8.095  48.959  1.00  0.00     0.112 C 
HETATM   23  C1  UNL     1      27.128   8.959  50.181  1.00  0.00     0.026 C 
ENDBRANCH  19  22
ENDBRANCH  14  16
ENDBRANCH   1  14
TORSDOF 5
ENDMDL
MODEL 6
REMARK VINA RESULT:      -6.7      3.071      7.220
REMARK  5 active torsions:
REMARK  status: ('A' for Active; 'I' for Inactive)
REMARK    1  A    between atoms: C2_2  and  N1_3 
REMARK    2  A    between atoms: C5_6  and  N2_7 
REMARK    3  A    between atoms: N2_7  and  C6_8 
REMARK    4  A    between atoms: N3_9  and  C7_10 
REMARK    5  A    between atoms: C12_18  and  C13_19 
ROOT
HETATM    1  C6  UNL     1      24.450   2.359  52.135  1.00  0.00     0.197 C 
HETATM    2  N3  UNL     1      24.906   2.564  53.322  1.00  0.00    -0.270 NA
ENDROOT
BRANCH   2   3
HETATM    3  C7  UNL     1      25.977   1.866  53.846  1.00  0.00     0.228 C 
HETATM    4  C8  UNL     1      27.250   2.168  53.075  1.00  0.00     0.121 C 
HETATM    5  N4  UNL     1      27.816   0.969  52.983  1.00  0.00    -0.232 NA
HETATM    6  C9  UNL     1      26.861  -0.222  53.333  1.00  0.00     0.490 A 
HETATM    7  N5  UNL     1      25.712  -0.893  53.786  1.00  0.00     0.226 N 
HETATM    8  C12 UNL     1      27.490  -1.374  53.011  1.00  0.00     0.330 A 
HETATM    9  N6  UNL     1      26.283  -1.048  53.527  1.00  0.00     0.228 N 
HETATM   10  C11 UNL     1      25.875   0.289  53.781  1.00  0.00     0.451 A 
HETATM   11  C10 UNL     1      24.671  -0.287  54.255  1.00  0.00     0.299 A 
BRANCH   8  12
HETATM   12  C13 UNL     1      27.965  -2.763  52.721  1.00  0.00     0.443 C 
HETATM   13  O1  UNL     1      28.868  -3.057  53.495  1.00  0.00    -0.427 OA
ENDBRANCH   8  12
ENDBRANCH   2   3
BRANCH   1  14
HETATM   14  N2  UNL     1      23.324   3.188  51.766  1.00  0.00    -0.380 N 
HETATM   15  H11 UNL     1      23.526   4.233  51.842  1.00  0.00     0.160 HD
BRANCH  14  16
HETATM   16  C5  UNL     1      22.028   2.620  51.317  1.00  0.00     0.085 C 
HETATM   17  C4  UNL     1      20.939   2.958  52.278  1.00  0.00     0.044 C 
HETATM   18  C3  UNL     1      19.721   2.068  52.054  1.00  0.00     0.119 C 
HETATM   19  N1  UNL     1      20.066   0.705  52.043  1.00  0.00    -0.413 N 
HETATM   20  C15 UNL     1      21.097   0.264  51.194  1.00  0.00     0.119 C 
HETATM   21  C14 UNL     1      22.300   1.132  51.314  1.00  0.00     0.044 C 
BRANCH  19  22
HETATM   22  C2  UNL     1      19.178  -0.229  52.612  1.00  0.00     0.112 C 
HETATM   23  C1  UNL     1      17.897  -0.441  51.847  1.00  0.00     0.026 C 
ENDBRANCH  19  22
ENDBRANCH  14  16
ENDBRANCH   1  14
TORSDOF 5
ENDMDL
MODEL 7
REMARK VINA RESULT:      -6.7      4.643      6.678
REMARK  5 active torsions:
REMARK  status: ('A' for Active; 'I' for Inactive)
REMARK    1  A    between atoms: C2_2  and  N1_3 
REMARK    2  A    between atoms: C5_6  and  N2_7 
REMARK    3  A    between atoms: N2_7  and  C6_8 
REMARK    4  A    between atoms: N3_9  and  C7_10 
REMARK    5  A    between atoms: C12_18  and  C13_19 
ROOT
HETATM    1  C6  UNL     1      24.301   1.675  51.596  1.00  0.00     0.197 C 
HETATM    2  N3  UNL     1      24.352   2.961  51.652  1.00  0.00    -0.270 NA
ENDROOT
BRANCH   2   3
HETATM    3  C7  UNL     1      24.512   3.756  50.533  1.00  0.00     0.228 C 
HETATM    4  C8  UNL     1      25.928   3.656  49.995  1.00  0.00     0.121 C 
HETATM    5  N4  UNL     1      26.202   4.918  49.685  1.00  0.00    -0.232 NA
HETATM    6  C9  UNL     1      25.204   5.961  50.292  1.00  0.00     0.490 A 
HETATM    7  N5  UNL     1      24.069   6.460  50.952  1.00  0.00     0.226 N 
HETATM    8  C12 UNL     1      25.704   7.198  50.071  1.00  0.00     0.330 A 
HETATM    9  N6  UNL     1      24.601   6.698  50.676  1.00  0.00     0.228 N 
HETATM   10  C11 UNL     1      24.313   5.309  50.754  1.00  0.00     0.451 A 
HETATM   11  C10 UNL     1      23.139   5.706  51.439  1.00  0.00     0.299 A 
BRANCH   8  12
HETATM   12  C13 UNL     1      26.055   8.649  49.966  1.00  0.00     0.443 C 
HETATM   13  O1  UNL     1      27.196   8.825  50.375  1.00  0.00    -0.427 OA
ENDBRANCH   8  12
ENDBRANCH   2   3
BRANCH   1  14
HETATM   14  N2  UNL     1      24.130   1.018  52.873  1.00  0.00    -0.380 N 
HETATM   15  H11 UNL     1      23.161   1.165  53.296  1.00  0.00     0.160 HD
BRANCH  14  16
HETATM   16  C5  UNL     1      25.203   0.212  53.506  1.00  0.00     0.085 C 
HETATM   17  C4  UNL     1      25.976   1.033  54.483  1.00  0.00     0.044 C 
HETATM   18  C3  UNL     1      27.298   0.359  54.832  1.00  0.00     0.119 C 
HETATM   19  N1  UNL     1      28.027   0.011  53.681  1.00  0.00    -0.413 N 
HETATM   20  C15 UNL     1      27.399  -0.743  52.673  1.00  0.00     0.119 C 
HETATM   21  C14 UNL     1      26.068  -0.176  52.328  1.00  0.00     0.044 C 
BRANCH  19  22
HETATM   22  C2  UNL     1      29.430   0.127  53.699  1.00  0.00     0.112 C 
HETATM   23  C1  UNL     1      30.180  -1.181  53.703  1.00  0.00     0.026 C 
ENDBRANCH  19  22
ENDBRANCH  14  16
ENDBRANCH   1  14
TORSDOF 5
ENDMDL
MODEL 8
REMARK VINA RESULT:      -6.6      4.337      5.850
REMARK  5 active torsions:
REMARK  status: ('A' for Active; 'I' for Inactive)
REMARK    1  A    between atoms: C2_2  and  N1_3 
REMARK    2  A    between atoms: C5_6  and  N2_7 
REMARK    3  A    between atoms: N2_7  and  C6_8 
REMARK    4  A    between atoms: N3_9  and  C7_10 
REMARK    5  A    between atoms: C12_18  and  C13_19 
ROOT
HETATM    1  C6  UNL     1      24.115   4.018  50.830  1.00  0.00     0.197 C 
HETATM    2  N3  UNL     1      24.678   2.974  51.332  1.00  0.00    -0.270 NA
ENDROOT
BRANCH   2   3
HETATM    3  C7  UNL     1      24.090   1.723  51.317  1.00  0.00     0.228 C 
HETATM    4  C8  UNL     1      22.576   1.835  51.325  1.00  0.00     0.121 C 
HETATM    5  N4  UNL     1      22.227   0.874  52.174  1.00  0.00    -0.232 NA
HETATM    6  C9  UNL     1      23.408   0.315  53.035  1.00  0.00     0.490 A 
HETATM    7  N5  UNL     1      24.726   0.110  53.480  1.00  0.00     0.226 N 
HETATM    8  C12 UNL     1      22.890  -0.500  53.981  1.00  0.00     0.330 A 
HETATM    9  N6  UNL     1      24.132  -0.080  53.648  1.00  0.00     0.228 N 
HETATM   10  C11 UNL     1      24.397   0.799  52.563  1.00  0.00     0.451 A 
HETATM   11  C10 UNL     1      25.757   0.666  52.934  1.00  0.00     0.299 A 
BRANCH   8  12
HETATM   12  C13 UNL     1      22.559  -1.420  55.114  1.00  0.00     0.443 C 
HETATM   13  O1  UNL     1      21.406  -1.815  54.998  1.00  0.00    -0.427 OA
ENDBRANCH   8  12
ENDBRANCH   2   3
BRANCH   1  14
HETATM   14  N2  UNL     1      24.886   5.236  50.942  1.00  0.00    -0.380 N 
HETATM   15  H11 UNL     1      25.050   5.540  51.952  1.00  0.00     0.160 HD
BRANCH  14  16
HETATM   16  C5  UNL     1      25.398   5.969  49.757  1.00  0.00     0.085 C 
HETATM   17  C4  UNL     1      26.593   5.283  49.185  1.00  0.00     0.044 C 
HETATM   18  C3  UNL     1      27.353   6.211  48.245  1.00  0.00     0.119 C 
HETATM   19  N1  UNL     1      27.645   7.445  48.853  1.00  0.00    -0.413 N 
HETATM   20  C15 UNL     1      26.604   8.178  49.452  1.00  0.00     0.119 C 
HETATM   21  C14 UNL     1      25.777   7.313  50.336  1.00  0.00     0.044 C 
BRANCH  19  22
HETATM   22  C2  UNL     1      28.873   8.073  48.570  1.00  0.00     0.112 C 
HETATM   23  C1  UNL     1      29.766   7.327  47.612  1.00  0.00     0.026 C 
ENDBRANCH  19  22
ENDBRANCH  14  16
ENDBRANCH   1  14
TORSDOF 5
ENDMDL
MODEL 9
REMARK VINA RESULT:      -6.6      1.958      2.392
REMARK  5 active torsions:
REMARK  status: ('A' for Active; 'I' for Inactive)
REMARK    1  A    between atoms: C2_2  and  N1_3 
REMARK    2  A    between atoms: C5_6  and  N2_7 
REMARK    3  A    between atoms: N2_7  and  C6_8 
REMARK    4  A    between atoms: N3_9  and  C7_10 
REMARK    5  A    between atoms: C12_18  and  C13_19 
ROOT
HETATM    1  C6  UNL     1      23.502   2.859  52.630  1.00  0.00     0.197 C 
HETATM    2  N3  UNL     1      23.006   3.129  51.473  1.00  0.00    -0.270 NA
ENDROOT
BRANCH   2   3
HETATM    3  C7  UNL     1      21.648   3.110  51.214  1.00  0.00     0.228 C 
HETATM    4  C8  UNL     1      20.860   3.601  52.416  1.00  0.00     0.121 C 
HETATM    5  N4  UNL     1      19.838   2.752  52.449  1.00  0.00    -0.232 NA
HETATM    6  C9  UNL     1      20.032   1.477  51.561  1.00  0.00     0.490 A 
HETATM    7  N5  UNL     1      20.609   0.610  50.618  1.00  0.00     0.226 N 
HETATM    8  C12 UNL     1      19.026   0.617  51.837  1.00  0.00     0.330 A 
HETATM    9  N6  UNL     1      20.103   0.608  51.019  1.00  0.00     0.228 N 
HETATM   10  C11 UNL     1      21.019   1.690  50.918  1.00  0.00     0.451 A 
HETATM   11  C10 UNL     1      21.684   0.890  49.957  1.00  0.00     0.299 A 
BRANCH   8  12
HETATM   12  C13 UNL     1      18.035  -0.496  51.982  1.00  0.00     0.443 C 
HETATM   13  O1  UNL     1      17.539  -0.459  53.101  1.00  0.00    -0.427 OA
ENDBRANCH   8  12
ENDBRANCH   2   3
BRANCH   1  14
HETATM   14  N2  UNL     1      24.944   2.931  52.705  1.00  0.00    -0.380 N 
HETATM   15  H11 UNL     1      25.362   3.679  52.068  1.00  0.00     0.160 HD
BRANCH  14  16
HETATM   16  C5  UNL     1      25.742   2.051  53.595  1.00  0.00     0.085 C 
HETATM   17  C4  UNL     1      27.203   2.240  53.355  1.00  0.00     0.044 C 
HETATM   18  C3  UNL     1      28.004   1.088  53.952  1.00  0.00     0.119 C 
HETATM   19  N1  UNL     1      27.516  -0.162  53.529  1.00  0.00    -0.413 N 
HETATM   20  C15 UNL     1      26.147  -0.451  53.678  1.00  0.00     0.119 C 
HETATM   21  C14 UNL     1      25.304   0.666  53.174  1.00  0.00     0.044 C 
BRANCH  19  22
HETATM   22  C2  UNL     1      28.430  -1.203  53.279  1.00  0.00     0.112 C 
HETATM   23  C1  UNL     1      29.879  -0.848  53.499  1.00  0.00     0.026 C 
ENDBRANCH  19  22
ENDBRANCH  14  16
ENDBRANCH   1  14
TORSDOF 5
ENDMDL
