MODEL 1
REMARK VINA RESULT:      -9.2      0.000      0.000
REMARK  7 active torsions:
REMARK  status: ('A' for Active; 'I' for Inactive)
REMARK    1  A    between atoms: O1_2  and  C2_3 
REMARK    2  A    between atoms: C7_8  and  N1_9 
REMARK    3  A    between atoms: N1_9  and  C8_10 
REMARK    4  A    between atoms: C8_10  and  C9_11 
REMARK    5  A    between atoms: C12_17  and  C13_18 
REMARK       I    between atoms: C13_18  and  N4_20 
REMARK    6  A    between atoms: N4_20  and  C14_21 
REMARK    7  A    between atoms: C17_24  and  N5_25 
ROOT
HETATM    1  C9  UNL     1      22.958   0.858  52.422  1.00  0.00    -0.021 A 
HETATM    2  C10 UNL     1      22.238   0.717  53.522  1.00  0.00     0.146 A 
HETATM    3  N2  UNL     1      20.903   1.193  53.443  1.00  0.00    -0.159 NA
HETATM    4  N3  UNL     1      20.417   1.715  52.411  1.00  0.00    -0.111 NA
HETATM    5  C11 UNL     1      21.152   1.885  51.215  1.00  0.00     0.279 A 
HETATM    6  O2  UNL     1      20.551   2.415  50.267  1.00  0.00    -0.268 OA
HETATM    7  C12 UNL     1      22.565   1.454  51.096  1.00  0.00     0.206 A 
ENDROOT
BRANCH   7   8
HETATM    8  C13 UNL     1      23.411   2.677  50.889  1.00  0.00     0.239 C 
HETATM    9  O3  UNL     1      23.399   3.583  51.758  1.00  0.00    -0.272 OA
HETATM   10  N4  UNL     1      24.220   2.855  49.758  1.00  0.00    -0.326 N 
HETATM   11  H15 UNL     1      24.153   2.034  49.096  1.00  0.00     0.169 HD
BRANCH  10  12
HETATM   12  C14 UNL     1      25.072   3.927  49.395  1.00  0.00     0.034 A 
HETATM   13  C15 UNL     1      26.428   3.728  49.367  1.00  0.00     0.032 A 
HETATM   14  C16 UNL     1      27.319   4.720  49.021  1.00  0.00     0.031 A 
HETATM   15  C17 UNL     1      26.888   5.974  48.683  1.00  0.00     0.030 A 
HETATM   16  C23 UNL     1      25.531   6.213  48.699  1.00  0.00     0.031 A 
HETATM   17  C24 UNL     1      24.679   5.183  49.054  1.00  0.00     0.032 A 
BRANCH  15  18
HETATM   18  N5  UNL     1      27.871   6.941  48.337  1.00  0.00    -0.378 N 
HETATM   19  C18 UNL     1      29.195   6.523  48.008  1.00  0.00     0.153 C 
HETATM   20  C19 UNL     1      30.107   7.723  47.845  1.00  0.00     0.291 C 
HETATM   21  N6  UNL     1      30.012   8.659  48.934  1.00  0.00     0.087 N 
HETATM   22  C20 UNL     1      30.732   9.859  48.556  1.00  0.00     0.310 C 
HETATM   23  C21 UNL     1      28.661   8.996  49.277  1.00  0.00     0.291 C 
HETATM   24  C22 UNL     1      27.678   8.374  48.277  1.00  0.00     0.153 C 
ENDBRANCH  15  18
ENDBRANCH  10  12
ENDBRANCH   7   8
BRANCH   1  25
HETATM   25  C8  UNL     1      24.353   0.443  52.271  1.00  0.00     0.157 C 
BRANCH  25  26
HETATM   26  N1  UNL     1      25.171   0.705  53.441  1.00  0.00    -0.384 N 
HETATM   27  H10 UNL     1      25.221   1.231  54.323  1.00  0.00     0.160 HD
BRANCH  26  28
HETATM   28  C7  UNL     1      26.396  -0.056  53.358  1.00  0.00     0.058 A 
HETATM   29  C2  UNL     1      27.797   0.213  53.763  1.00  0.00     0.096 A 
HETATM   30  C3  UNL     1      28.505  -0.859  53.441  1.00  0.00    -0.045 A 
HETATM   31  C4  UNL     1      29.952  -1.095  53.636  1.00  0.00     0.046 C 
HETATM   32  C5  UNL     1      27.662  -1.900  52.812  1.00  0.00     0.066 A 
HETATM   33  C6  UNL     1      26.322  -1.263  52.816  1.00  0.00     0.010 A 
BRANCH  29  34
HETATM   34  O1  UNL     1      27.951   1.462  54.339  1.00  0.00    -0.353 OA
HETATM   35  C1  UNL     1      28.578   2.525  53.655  1.00  0.00     0.210 C 
ENDBRANCH  29  34
ENDBRANCH  26  28
ENDBRANCH  25  26
ENDBRANCH   1  25
TORSDOF 7
ENDMDL
MODEL 2
REMARK VINA RESULT:      -8.9      0.877      1.539
REMARK  7 active torsions:
REMARK  status: ('A' for Active; 'I' for Inactive)
REMARK    1  A    between atoms: O1_2  and  C2_3 
REMARK    2  A    between atoms: C7_8  and  N1_9 
REMARK    3  A    between atoms: N1_9  and  C8_10 
REMARK    4  A    between atoms: C8_10  and  C9_11 
REMARK    5  A    between atoms: C12_17  and  C13_18 
REMARK       I    between atoms: C13_18  and  N4_20 
REMARK    6  A    between atoms: N4_20  and  C14_21 
REMARK    7  A    between atoms: C17_24  and  N5_25 
ROOT
HETATM    1  C9  UNL     1      23.163   1.239  52.160  1.00  0.00    -0.021 A 
HETATM    2  C10 UNL     1      22.287   1.122  53.143  1.00  0.00     0.146 A 
HETATM    3  N2  UNL     1      20.957   1.499  52.824  1.00  0.00    -0.159 NA
HETATM    4  N3  UNL     1      20.612   1.918  51.693  1.00  0.00    -0.111 NA
HETATM    5  C11 UNL     1      21.516   2.059  50.615  1.00  0.00     0.279 A 
HETATM    6  O2  UNL     1      21.044   2.484  49.548  1.00  0.00    -0.268 OA
HETATM    7  C12 UNL     1      22.953   1.719  50.748  1.00  0.00     0.206 A 
ENDROOT
BRANCH   7   8
HETATM    8  C13 UNL     1      23.749   2.981  50.582  1.00  0.00     0.239 C 
HETATM    9  O3  UNL     1      23.581   3.921  51.397  1.00  0.00    -0.272 OA
HETATM   10  N4  UNL     1      24.680   3.158  49.549  1.00  0.00    -0.326 N 
HETATM   11  H15 UNL     1      24.740   2.306  48.925  1.00  0.00     0.169 HD
BRANCH  10  12
HETATM   12  C14 UNL     1      25.510   4.263  49.236  1.00  0.00     0.034 A 
HETATM   13  C15 UNL     1      26.866   4.081  49.148  1.00  0.00     0.032 A 
HETATM   14  C16 UNL     1      27.735   5.105  48.846  1.00  0.00     0.031 A 
HETATM   15  C17 UNL     1      27.283   6.376  48.615  1.00  0.00     0.030 A 
HETATM   16  C23 UNL     1      25.925   6.598  48.694  1.00  0.00     0.031 A 
HETATM   17  C24 UNL     1      25.095   5.535  49.001  1.00  0.00     0.032 A 
BRANCH  15  18
HETATM   18  N5  UNL     1      28.245   7.376  48.307  1.00  0.00    -0.378 N 
HETATM   19  C18 UNL     1      29.621   7.022  48.177  1.00  0.00     0.153 C 
HETATM   20  C19 UNL     1      30.478   8.264  48.022  1.00  0.00     0.291 C 
HETATM   21  N6  UNL     1      30.194   9.274  49.007  1.00  0.00     0.087 N 
HETATM   22  C20 UNL     1      30.887  10.486  48.616  1.00  0.00     0.310 C 
HETATM   23  C21 UNL     1      28.794   9.546  49.154  1.00  0.00     0.291 C 
HETATM   24  C22 UNL     1      27.980   8.784  48.101  1.00  0.00     0.153 C 
ENDBRANCH  15  18
ENDBRANCH  10  12
ENDBRANCH   7   8
BRANCH   1  25
HETATM   25  C8  UNL     1      24.587   0.912  52.257  1.00  0.00     0.157 C 
BRANCH  25  26
HETATM   26  N1  UNL     1      25.107   0.963  53.611  1.00  0.00    -0.384 N 
HETATM   27  H10 UNL     1      24.845   1.016  54.604  1.00  0.00     0.160 HD
BRANCH  26  28
HETATM   28  C7  UNL     1      26.551   0.930  53.578  1.00  0.00     0.058 A 
HETATM   29  C2  UNL     1      27.548  -0.167  53.557  1.00  0.00     0.096 A 
HETATM   30  C3  UNL     1      28.745   0.400  53.525  1.00  0.00    -0.045 A 
HETATM   31  C4  UNL     1      30.070  -0.257  53.494  1.00  0.00     0.046 C 
HETATM   32  C5  UNL     1      28.649   1.876  53.525  1.00  0.00     0.066 A 
HETATM   33  C6  UNL     1      27.182   2.095  53.560  1.00  0.00     0.010 A 
BRANCH  29  34
HETATM   34  O1  UNL     1      26.960  -1.419  53.576  1.00  0.00    -0.353 OA
HETATM   35  C1  UNL     1      27.037  -2.295  52.472  1.00  0.00     0.210 C 
ENDBRANCH  29  34
ENDBRANCH  26  28
ENDBRANCH  25  26
ENDBRANCH   1  25
TORSDOF 7
ENDMDL
MODEL 3
REMARK VINA RESULT:      -8.8      1.477      2.038
REMARK  7 active torsions:
REMARK  status: ('A' for Active; 'I' for Inactive)
REMARK    1  A    between atoms: O1_2  and  C2_3 
REMARK    2  A    between atoms: C7_8  and  N1_9 
REMARK    3  A    between atoms: N1_9  and  C8_10 
REMARK    4  A    between atoms: C8_10  and  C9_11 
REMARK    5  A    between atoms: C12_17  and  C13_18 
REMARK       I    between atoms: C13_18  and  N4_20 
REMARK    6  A    between atoms: N4_20  and  C14_21 
REMARK    7  A    between atoms: C17_24  and  N5_25 
ROOT
HETATM    1  C9  UNL     1      22.849  -0.185  53.337  1.00  0.00    -0.021 A 
HETATM    2  C10 UNL     1      22.342  -0.399  54.539  1.00  0.00     0.146 A 
HETATM    3  N2  UNL     1      20.984  -0.022  54.705  1.00  0.00    -0.159 NA
HETATM    4  N3  UNL     1      20.291   0.482  53.788  1.00  0.00    -0.111 NA
HETATM    5  C11 UNL     1      20.795   0.728  52.490  1.00  0.00     0.279 A 
HETATM    6  O2  UNL     1      20.003   1.229  51.676  1.00  0.00    -0.268 OA
HETATM    7  C12 UNL     1      22.192   0.405  52.117  1.00  0.00     0.206 A 
ENDROOT
BRANCH   7   8
HETATM    8  C13 UNL     1      22.901   1.691  51.807  1.00  0.00     0.239 C 
HETATM    9  O3  UNL     1      23.062   2.537  52.720  1.00  0.00    -0.272 OA
HETATM   10  N4  UNL     1      23.398   1.992  50.530  1.00  0.00    -0.326 N 
HETATM   11  H15 UNL     1      23.209   1.212  49.842  1.00  0.00     0.169 HD
BRANCH  10  12
HETATM   12  C14 UNL     1      24.082   3.138  50.055  1.00  0.00     0.034 A 
HETATM   13  C15 UNL     1      23.365   4.164  49.495  1.00  0.00     0.032 A 
HETATM   14  C16 UNL     1      23.958   5.311  49.015  1.00  0.00     0.031 A 
HETATM   15  C17 UNL     1      25.314   5.486  49.072  1.00  0.00     0.030 A 
HETATM   16  C23 UNL     1      26.069   4.476  49.628  1.00  0.00     0.031 A 
HETATM   17  C24 UNL     1      25.424   3.346  50.096  1.00  0.00     0.032 A 
BRANCH  15  18
HETATM   18  N5  UNL     1      25.847   6.698  48.555  1.00  0.00    -0.378 N 
HETATM   19  C18 UNL     1      25.106   7.449  47.595  1.00  0.00     0.153 C 
HETATM   20  C19 UNL     1      25.937   8.599  47.062  1.00  0.00     0.291 C 
HETATM   21  N6  UNL     1      27.255   8.200  46.645  1.00  0.00     0.087 N 
HETATM   22  C20 UNL     1      28.026   9.401  46.389  1.00  0.00     0.310 C 
HETATM   23  C21 UNL     1      27.936   7.388  47.611  1.00  0.00     0.291 C 
HETATM   24  C22 UNL     1      27.120   7.292  48.906  1.00  0.00     0.153 C 
ENDBRANCH  15  18
ENDBRANCH  10  12
ENDBRANCH   7   8
BRANCH   1  25
HETATM   25  C8  UNL     1      24.223  -0.492  52.936  1.00  0.00     0.157 C 
BRANCH  25  26
HETATM   26  N1  UNL     1      25.222   0.330  53.595  1.00  0.00    -0.384 N 
HETATM   27  H10 UNL     1      25.369   1.194  54.130  1.00  0.00     0.160 HD
BRANCH  26  28
HETATM   28  C7  UNL     1      26.523  -0.284  53.457  1.00  0.00     0.058 A 
HETATM   29  C2  UNL     1      27.898   0.147  53.805  1.00  0.00     0.096 A 
HETATM   30  C3  UNL     1      28.712  -0.835  53.449  1.00  0.00    -0.045 A 
HETATM   31  C4  UNL     1      30.184  -0.901  53.583  1.00  0.00     0.046 C 
HETATM   32  C5  UNL     1      27.970  -1.968  52.852  1.00  0.00     0.066 A 
HETATM   33  C6  UNL     1      26.567  -1.492  52.914  1.00  0.00     0.010 A 
BRANCH  29  34
HETATM   34  O1  UNL     1      27.930   1.406  54.378  1.00  0.00    -0.353 OA
HETATM   35  C1  UNL     1      28.525   2.507  53.726  1.00  0.00     0.210 C 
ENDBRANCH  29  34
ENDBRANCH  26  28
ENDBRANCH  25  26
ENDBRANCH   1  25
TORSDOF 7
ENDMDL
MODEL 4
REMARK VINA RESULT:      -8.7      3.021      9.330
REMARK  7 active torsions:
REMARK  status: ('A' for Active; 'I' for Inactive)
REMARK    1  A    between atoms: O1_2  and  C2_3 
REMARK    2  A    between atoms: C7_8  and  N1_9 
REMARK    3  A    between atoms: N1_9  and  C8_10 
REMARK    4  A    between atoms: C8_10  and  C9_11 
REMARK    5  A    between atoms: C12_17  and  C13_18 
REMARK       I    between atoms: C13_18  and  N4_20 
REMARK    6  A    between atoms: N4_20  and  C14_21 
REMARK    7  A    between atoms: C17_24  and  N5_25 
ROOT
HETATM    1  C9  UNL     1      26.686   1.622  52.553  1.00  0.00    -0.021 A 
HETATM    2  C10 UNL     1      27.523   2.237  53.372  1.00  0.00     0.146 A 
HETATM    3  N2  UNL     1      27.716   1.610  54.631  1.00  0.00    -0.159 NA
HETATM    4  N3  UNL     1      27.143   0.546  54.966  1.00  0.00    -0.111 NA
HETATM    5  C11 UNL     1      26.241  -0.142  54.122  1.00  0.00     0.279 A 
HETATM    6  O2  UNL     1      25.744  -1.185  54.577  1.00  0.00    -0.268 OA
HETATM    7  C12 UNL     1      25.905   0.353  52.766  1.00  0.00     0.206 A 
ENDROOT
BRANCH   7   8
HETATM    8  C13 UNL     1      24.448   0.717  52.750  1.00  0.00     0.239 C 
HETATM    9  O3  UNL     1      24.099   1.856  53.144  1.00  0.00    -0.272 OA
HETATM   10  N4  UNL     1      23.453  -0.166  52.308  1.00  0.00    -0.326 N 
HETATM   11  H15 UNL     1      23.859  -1.092  52.000  1.00  0.00     0.169 HD
BRANCH  10  12
HETATM   12  C14 UNL     1      22.048  -0.002  52.224  1.00  0.00     0.034 A 
HETATM   13  C15 UNL     1      21.501   0.530  51.085  1.00  0.00     0.032 A 
HETATM   14  C16 UNL     1      20.146   0.717  50.927  1.00  0.00     0.031 A 
HETATM   15  C17 UNL     1      19.263   0.377  51.916  1.00  0.00     0.030 A 
HETATM   16  C23 UNL     1      19.775  -0.160  53.077  1.00  0.00     0.031 A 
HETATM   17  C24 UNL     1      21.143  -0.328  53.184  1.00  0.00     0.032 A 
BRANCH  15  18
HETATM   18  N5  UNL     1      17.880   0.601  51.675  1.00  0.00    -0.378 N 
HETATM   19  C18 UNL     1      17.394   1.932  51.502  1.00  0.00     0.153 C 
HETATM   20  C19 UNL     1      15.880   1.941  51.432  1.00  0.00     0.291 C 
HETATM   21  N6  UNL     1      15.260   1.194  52.494  1.00  0.00     0.087 N 
HETATM   22  C20 UNL     1      13.847   1.072  52.189  1.00  0.00     0.310 C 
HETATM   23  C21 UNL     1      15.827  -0.110  52.678  1.00  0.00     0.291 C 
HETATM   24  C22 UNL     1      16.852  -0.414  51.579  1.00  0.00     0.153 C 
ENDBRANCH  15  18
ENDBRANCH  10  12
ENDBRANCH   7   8
BRANCH   1  25
HETATM   25  C8  UNL     1      26.334   2.083  51.209  1.00  0.00     0.157 C 
BRANCH  25  26
HETATM   26  N1  UNL     1      26.288   3.528  51.080  1.00  0.00    -0.384 N 
HETATM   27  H10 UNL     1      26.717   4.407  51.395  1.00  0.00     0.160 HD
BRANCH  26  28
HETATM   28  C7  UNL     1      25.242   3.900  50.155  1.00  0.00     0.058 A 
HETATM   29  C2  UNL     1      24.954   5.128  49.377  1.00  0.00     0.096 A 
HETATM   30  C3  UNL     1      23.848   4.898  48.686  1.00  0.00    -0.045 A 
HETATM   31  C4  UNL     1      23.143   5.804  47.754  1.00  0.00     0.046 C 
HETATM   32  C5  UNL     1      23.322   3.538  48.939  1.00  0.00     0.066 A 
HETATM   33  C6  UNL     1      24.309   2.993  49.903  1.00  0.00     0.010 A 
BRANCH  29  34
HETATM   34  O1  UNL     1      25.891   6.123  49.592  1.00  0.00    -0.353 OA
HETATM   35  C1  UNL     1      25.596   7.271  50.358  1.00  0.00     0.210 C 
ENDBRANCH  29  34
ENDBRANCH  26  28
ENDBRANCH  25  26
ENDBRANCH   1  25
TORSDOF 7
ENDMDL
MODEL 5
REMARK VINA RESULT:      -8.6      2.394      5.434
REMARK  7 active torsions:
REMARK  status: ('A' for Active; 'I' for Inactive)
REMARK    1  A    between atoms: O1_2  and  C2_3 
REMARK    2  A    between atoms: C7_8  and  N1_9 
REMARK    3  A    between atoms: N1_9  and  C8_10 
REMARK    4  A    between atoms: C8_10  and  C9_11 
REMARK    5  A    between atoms: C12_17  and  C13_18 
REMARK       I    between atoms: C13_18  and  N4_20 
REMARK    6  A    between atoms: N4_20  and  C14_21 
REMARK    7  A    between atoms: C17_24  and  N5_25 
ROOT
HETATM    1  C9  UNL     1      26.142  -0.918  53.277  1.00  0.00    -0.021 A 
HETATM    2  C10 UNL     1      26.891  -1.860  52.729  1.00  0.00     0.146 A 
HETATM    3  N2  UNL     1      28.262  -1.838  53.094  1.00  0.00    -0.159 NA
HETATM    4  N3  UNL     1      28.753  -0.994  53.882  1.00  0.00    -0.111 NA
HETATM    5  C11 UNL     1      27.987   0.029  54.488  1.00  0.00     0.279 A 
HETATM    6  O2  UNL     1      28.597   0.798  55.249  1.00  0.00    -0.268 OA
HETATM    7  C12 UNL     1      26.535   0.177  54.232  1.00  0.00     0.206 A 
ENDROOT
BRANCH   7   8
HETATM    8  C13 UNL     1      26.317   1.484  53.528  1.00  0.00     0.239 C 
HETATM    9  O3  UNL     1      26.374   2.551  54.186  1.00  0.00    -0.272 OA
HETATM   10  N4  UNL     1      26.050   1.567  52.153  1.00  0.00    -0.326 N 
HETATM   11  H15 UNL     1      26.026   0.613  51.700  1.00  0.00     0.169 HD
BRANCH  10  12
HETATM   12  C14 UNL     1      25.818   2.695  51.327  1.00  0.00     0.034 A 
HETATM   13  C15 UNL     1      26.743   3.031  50.373  1.00  0.00     0.032 A 
HETATM   14  C16 UNL     1      26.586   4.109  49.531  1.00  0.00     0.031 A 
HETATM   15  C17 UNL     1      25.481   4.913  49.606  1.00  0.00     0.030 A 
HETATM   16  C23 UNL     1      24.528   4.607  50.554  1.00  0.00     0.031 A 
HETATM   17  C24 UNL     1      24.734   3.513  51.374  1.00  0.00     0.032 A 
BRANCH  15  18
HETATM   18  N5  UNL     1      25.394   6.005  48.701  1.00  0.00    -0.378 N 
HETATM   19  C18 UNL     1      26.580   6.678  48.282  1.00  0.00     0.153 C 
HETATM   20  C19 UNL     1      26.235   7.906  47.463  1.00  0.00     0.291 C 
HETATM   21  N6  UNL     1      25.242   8.742  48.086  1.00  0.00     0.087 N 
HETATM   22  C20 UNL     1      24.822   9.735  47.117  1.00  0.00     0.310 C 
HETATM   23  C21 UNL     1      24.099   8.013  48.555  1.00  0.00     0.291 C 
HETATM   24  C22 UNL     1      24.181   6.543  48.123  1.00  0.00     0.153 C 
ENDBRANCH  15  18
ENDBRANCH  10  12
ENDBRANCH   7   8
BRANCH   1  25
HETATM   25  C8  UNL     1      24.706  -0.744  53.047  1.00  0.00     0.157 C 
BRANCH  25  26
HETATM   26  N1  UNL     1      23.943  -0.522  54.261  1.00  0.00    -0.384 N 
HETATM   27  H10 UNL     1      24.014  -0.303  55.263  1.00  0.00     0.160 HD
BRANCH  26  28
HETATM   28  C7  UNL     1      22.532  -0.656  53.979  1.00  0.00     0.058 A 
HETATM   29  C2  UNL     1      21.595   0.066  53.086  1.00  0.00     0.096 A 
HETATM   30  C3  UNL     1      20.406  -0.499  53.236  1.00  0.00    -0.045 A 
HETATM   31  C4  UNL     1      19.133  -0.148  52.569  1.00  0.00     0.046 C 
HETATM   32  C5  UNL     1      20.450  -1.609  54.213  1.00  0.00     0.066 A 
HETATM   33  C6  UNL     1      21.876  -1.613  54.621  1.00  0.00     0.010 A 
BRANCH  29  34
HETATM   34  O1  UNL     1      22.212   1.084  52.381  1.00  0.00    -0.353 OA
HETATM   35  C1  UNL     1      22.139   1.167  50.974  1.00  0.00     0.210 C 
ENDBRANCH  29  34
ENDBRANCH  26  28
ENDBRANCH  25  26
ENDBRANCH   1  25
TORSDOF 7
ENDMDL
MODEL 6
REMARK VINA RESULT:      -8.4      1.648      2.381
REMARK  7 active torsions:
REMARK  status: ('A' for Active; 'I' for Inactive)
REMARK    1  A    between atoms: O1_2  and  C2_3 
REMARK    2  A    between atoms: C7_8  and  N1_9 
REMARK    3  A    between atoms: N1_9  and  C8_10 
REMARK    4  A    between atoms: C8_10  and  C9_11 
REMARK    5  A    between atoms: C12_17  and  C13_18 
REMARK       I    between atoms: C13_18  and  N4_20 
REMARK    6  A    between atoms: N4_20  and  C14_21 
REMARK    7  A    between atoms: C17_24  and  N5_25 
ROOT
HETATM    1  C9  UNL     1      21.423   2.088  51.454  1.00  0.00    -0.021 A 
HETATM    2  C10 UNL     1      20.875   2.730  52.471  1.00  0.00     0.146 A 
HETATM    3  N2  UNL     1      19.927   3.728  52.123  1.00  0.00    -0.159 NA
HETATM    4  N3  UNL     1      19.615   4.000  50.939  1.00  0.00    -0.111 NA
HETATM    5  C11 UNL     1      20.177   3.337  49.824  1.00  0.00     0.279 A 
HETATM    6  O2  UNL     1      19.779   3.703  48.705  1.00  0.00    -0.268 OA
HETATM    7  C12 UNL     1      21.188   2.265  49.977  1.00  0.00     0.206 A 
ENDROOT
BRANCH   7   8
HETATM    8  C13 UNL     1      22.476   2.747  49.375  1.00  0.00     0.239 C 
HETATM    9  O3  UNL     1      22.871   2.247  48.293  1.00  0.00    -0.272 OA
HETATM   10  N4  UNL     1      23.264   3.742  49.972  1.00  0.00    -0.326 N 
HETATM   11  H15 UNL     1      22.838   4.091  50.874  1.00  0.00     0.169 HD
BRANCH  10  12
HETATM   12  C14 UNL     1      24.492   4.315  49.558  1.00  0.00     0.034 A 
HETATM   13  C15 UNL     1      24.507   5.601  49.082  1.00  0.00     0.032 A 
HETATM   14  C16 UNL     1      25.661   6.226  48.665  1.00  0.00     0.031 A 
HETATM   15  C17 UNL     1      26.869   5.585  48.705  1.00  0.00     0.030 A 
HETATM   16  C23 UNL     1      26.895   4.291  49.177  1.00  0.00     0.031 A 
HETATM   17  C24 UNL     1      25.708   3.709  49.584  1.00  0.00     0.032 A 
BRANCH  15  18
HETATM   18  N5  UNL     1      28.013   6.301  48.257  1.00  0.00    -0.378 N 
HETATM   19  C18 UNL     1      29.271   5.636  48.147  1.00  0.00     0.153 C 
HETATM   20  C19 UNL     1      30.371   6.627  47.822  1.00  0.00     0.291 C 
HETATM   21  N6  UNL     1      30.361   7.784  48.679  1.00  0.00     0.087 N 
HETATM   22  C20 UNL     1      31.286   8.756  48.127  1.00  0.00     0.310 C 
HETATM   23  C21 UNL     1      29.064   8.378  48.817  1.00  0.00     0.291 C 
HETATM   24  C22 UNL     1      28.056   7.699  47.882  1.00  0.00     0.153 C 
ENDBRANCH  15  18
ENDBRANCH  10  12
ENDBRANCH   7   8
BRANCH   1  25
HETATM   25  C8  UNL     1      22.422   1.024  51.570  1.00  0.00     0.157 C 
BRANCH  25  26
HETATM   26  N1  UNL     1      23.018   0.923  52.889  1.00  0.00    -0.384 N 
HETATM   27  H10 UNL     1      22.828   0.990  53.897  1.00  0.00     0.160 HD
BRANCH  26  28
HETATM   28  C7  UNL     1      24.422   0.607  52.766  1.00  0.00     0.058 A 
HETATM   29  C2  UNL     1      25.316  -0.362  53.443  1.00  0.00     0.096 A 
HETATM   30  C3  UNL     1      26.521  -0.211  52.916  1.00  0.00    -0.045 A 
HETATM   31  C4  UNL     1      27.765  -0.940  53.245  1.00  0.00     0.046 C 
HETATM   32  C5  UNL     1      26.532   0.841  51.875  1.00  0.00     0.066 A 
HETATM   33  C6  UNL     1      25.119   1.293  51.870  1.00  0.00     0.010 A 
BRANCH  29  34
HETATM   34  O1  UNL     1      24.654  -1.116  54.396  1.00  0.00    -0.353 OA
HETATM   35  C1  UNL     1      24.953  -1.007  55.771  1.00  0.00     0.210 C 
ENDBRANCH  29  34
ENDBRANCH  26  28
ENDBRANCH  25  26
ENDBRANCH   1  25
TORSDOF 7
ENDMDL
MODEL 7
REMARK VINA RESULT:      -8.4      1.714      2.452
REMARK  7 active torsions:
REMARK  status: ('A' for Active; 'I' for Inactive)
REMARK    1  A    between atoms: O1_2  and  C2_3 
REMARK    2  A    between atoms: C7_8  and  N1_9 
REMARK    3  A    between atoms: N1_9  and  C8_10 
REMARK    4  A    between atoms: C8_10  and  C9_11 
REMARK    5  A    between atoms: C12_17  and  C13_18 
REMARK       I    between atoms: C13_18  and  N4_20 
REMARK    6  A    between atoms: N4_20  and  C14_21 
REMARK    7  A    between atoms: C17_24  and  N5_25 
ROOT
HETATM    1  C9  UNL     1      24.021   2.791  51.943  1.00  0.00    -0.021 A 
HETATM    2  C10 UNL     1      22.893   3.295  52.415  1.00  0.00     0.146 A 
HETATM    3  N2  UNL     1      21.892   3.560  51.445  1.00  0.00    -0.159 NA
HETATM    4  N3  UNL     1      22.043   3.340  50.219  1.00  0.00    -0.111 NA
HETATM    5  C11 UNL     1      23.232   2.804  49.674  1.00  0.00     0.279 A 
HETATM    6  O2  UNL     1      23.249   2.634  48.444  1.00  0.00    -0.268 OA
HETATM    7  C12 UNL     1      24.397   2.461  50.523  1.00  0.00     0.206 A 
ENDROOT
BRANCH   7   8
HETATM    8  C13 UNL     1      25.535   3.363  50.141  1.00  0.00     0.239 C 
HETATM    9  O3  UNL     1      26.711   2.934  50.226  1.00  0.00    -0.272 OA
HETATM   10  N4  UNL     1      25.339   4.676  49.688  1.00  0.00    -0.326 N 
HETATM   11  H15 UNL     1      24.314   4.931  49.655  1.00  0.00     0.169 HD
BRANCH  10  12
HETATM   12  C14 UNL     1      26.277   5.661  49.290  1.00  0.00     0.034 A 
HETATM   13  C15 UNL     1      26.085   6.964  49.673  1.00  0.00     0.032 A 
HETATM   14  C16 UNL     1      26.953   7.976  49.328  1.00  0.00     0.031 A 
HETATM   15  C17 UNL     1      28.067   7.728  48.574  1.00  0.00     0.030 A 
HETATM   16  C23 UNL     1      28.294   6.430  48.170  1.00  0.00     0.031 A 
HETATM   17  C24 UNL     1      27.392   5.451  48.543  1.00  0.00     0.032 A 
BRANCH  15  18
HETATM   18  N5  UNL     1      28.913   8.828  48.262  1.00  0.00    -0.378 N 
HETATM   19  C18 UNL     1      28.346  10.054  47.803  1.00  0.00     0.153 C 
HETATM   20  C19 UNL     1      29.435  11.016  47.371  1.00  0.00     0.291 C 
HETATM   21  N6  UNL     1      30.401  10.417  46.487  1.00  0.00     0.087 N 
HETATM   22  C20 UNL     1      31.507  11.344  46.341  1.00  0.00     0.310 C 
HETATM   23  C21 UNL     1      30.891   9.153  46.954  1.00  0.00     0.291 C 
HETATM   24  C22 UNL     1      30.357   8.851  48.360  1.00  0.00     0.153 C 
ENDBRANCH  15  18
ENDBRANCH  10  12
ENDBRANCH   7   8
BRANCH   1  25
HETATM   25  C8  UNL     1      25.190   2.441  52.753  1.00  0.00     0.157 C 
BRANCH  25  26
HETATM   26  N1  UNL     1      24.987   1.279  53.599  1.00  0.00    -0.384 N 
HETATM   27  H10 UNL     1      24.361   0.853  54.294  1.00  0.00     0.160 HD
BRANCH  26  28
HETATM   28  C7  UNL     1      26.072   0.344  53.409  1.00  0.00     0.058 A 
HETATM   29  C2  UNL     1      27.519   0.379  53.728  1.00  0.00     0.096 A 
HETATM   30  C3  UNL     1      28.032  -0.773  53.325  1.00  0.00    -0.045 A 
HETATM   31  C4  UNL     1      29.434  -1.235  53.415  1.00  0.00     0.046 C 
HETATM   32  C5  UNL     1      27.002  -1.646  52.720  1.00  0.00     0.066 A 
HETATM   33  C6  UNL     1      25.779  -0.813  52.834  1.00  0.00     0.010 A 
BRANCH  29  34
HETATM   34  O1  UNL     1      27.900   1.564  54.333  1.00  0.00    -0.353 OA
HETATM   35  C1  UNL     1      28.750   2.489  53.690  1.00  0.00     0.210 C 
ENDBRANCH  29  34
ENDBRANCH  26  28
ENDBRANCH  25  26
ENDBRANCH   1  25
TORSDOF 7
ENDMDL
MODEL 8
REMARK VINA RESULT:      -8.1      2.283      3.309
REMARK  7 active torsions:
REMARK  status: ('A' for Active; 'I' for Inactive)
REMARK    1  A    between atoms: O1_2  and  C2_3 
REMARK    2  A    between atoms: C7_8  and  N1_9 
REMARK    3  A    between atoms: N1_9  and  C8_10 
REMARK    4  A    between atoms: C8_10  and  C9_11 
REMARK    5  A    between atoms: C12_17  and  C13_18 
REMARK       I    between atoms: C13_18  and  N4_20 
REMARK    6  A    between atoms: N4_20  and  C14_21 
REMARK    7  A    between atoms: C17_24  and  N5_25 
ROOT
HETATM    1  C9  UNL     1      22.898   4.066  51.543  1.00  0.00    -0.021 A 
HETATM    2  C10 UNL     1      21.789   4.470  52.137  1.00  0.00     0.146 A 
HETATM    3  N2  UNL     1      20.746   4.883  51.267  1.00  0.00    -0.159 NA
HETATM    4  N3  UNL     1      20.847   4.873  50.017  1.00  0.00    -0.111 NA
HETATM    5  C11 UNL     1      22.015   4.449  49.342  1.00  0.00     0.279 A 
HETATM    6  O2  UNL     1      21.981   4.488  48.101  1.00  0.00    -0.268 OA
HETATM    7  C12 UNL     1      23.216   3.982  50.073  1.00  0.00     0.206 A 
ENDROOT
BRANCH   7   8
HETATM    8  C13 UNL     1      24.333   4.948  49.802  1.00  0.00     0.239 C 
HETATM    9  O3  UNL     1      24.261   6.111  50.268  1.00  0.00    -0.272 OA
HETATM   10  N4  UNL     1      25.462   4.605  49.045  1.00  0.00    -0.326 N 
HETATM   11  H15 UNL     1      25.418   3.606  48.705  1.00  0.00     0.169 HD
BRANCH  10  12
HETATM   12  C14 UNL     1      26.598   5.373  48.688  1.00  0.00     0.034 A 
HETATM   13  C15 UNL     1      27.836   4.782  48.686  1.00  0.00     0.032 A 
HETATM   14  C16 UNL     1      28.984   5.462  48.348  1.00  0.00     0.031 A 
HETATM   15  C17 UNL     1      28.949   6.782  47.991  1.00  0.00     0.030 A 
HETATM   16  C23 UNL     1      27.722   7.411  47.980  1.00  0.00     0.031 A 
HETATM   17  C24 UNL     1      26.600   6.684  48.328  1.00  0.00     0.032 A 
BRANCH  15  18
HETATM   18  N5  UNL     1      30.178   7.411  47.654  1.00  0.00    -0.378 N 
HETATM   19  C18 UNL     1      30.295   8.138  46.432  1.00  0.00     0.153 C 
HETATM   20  C19 UNL     1      31.730   8.569  46.203  1.00  0.00     0.291 C 
HETATM   21  N6  UNL     1      32.676   7.498  46.372  1.00  0.00     0.087 N 
HETATM   22  C20 UNL     1      34.007   8.074  46.370  1.00  0.00     0.310 C 
HETATM   23  C21 UNL     1      32.478   6.750  47.579  1.00  0.00     0.291 C 
HETATM   24  C22 UNL     1      31.391   7.398  48.445  1.00  0.00     0.153 C 
ENDBRANCH  15  18
ENDBRANCH  10  12
ENDBRANCH   7   8
BRANCH   1  25
HETATM   25  C8  UNL     1      24.101   3.598  52.234  1.00  0.00     0.157 C 
BRANCH  25  26
HETATM   26  N1  UNL     1      23.887   2.410  53.040  1.00  0.00    -0.384 N 
HETATM   27  H10 UNL     1      23.285   1.987  53.758  1.00  0.00     0.160 HD
BRANCH  26  28
HETATM   28  C7  UNL     1      24.901   1.427  52.736  1.00  0.00     0.058 A 
HETATM   29  C2  UNL     1      25.080  -0.001  53.091  1.00  0.00     0.096 A 
HETATM   30  C3  UNL     1      26.207  -0.402  52.523  1.00  0.00    -0.045 A 
HETATM   31  C4  UNL     1      26.833  -1.742  52.571  1.00  0.00     0.046 C 
HETATM   32  C5  UNL     1      26.854   0.691  51.765  1.00  0.00     0.066 A 
HETATM   33  C6  UNL     1      25.915   1.820  51.978  1.00  0.00     0.010 A 
BRANCH  29  34
HETATM   34  O1  UNL     1      24.055  -0.482  53.886  1.00  0.00    -0.353 OA
HETATM   35  C1  UNL     1      22.848  -0.963  53.335  1.00  0.00     0.210 C 
ENDBRANCH  29  34
ENDBRANCH  26  28
ENDBRANCH  25  26
ENDBRANCH   1  25
TORSDOF 7
ENDMDL
MODEL 9
REMARK VINA RESULT:      -8.0      2.986      8.669
REMARK  7 active torsions:
REMARK  status: ('A' for Active; 'I' for Inactive)
REMARK    1  A    between atoms: O1_2  and  C2_3 
REMARK    2  A    between atoms: C7_8  and  N1_9 
REMARK    3  A    between atoms: N1_9  and  C8_10 
REMARK    4  A    between atoms: C8_10  and  C9_11 
REMARK    5  A    between atoms: C12_17  and  C13_18 
REMARK       I    between atoms: C13_18  and  N4_20 
REMARK    6  A    between atoms: N4_20  and  C14_21 
REMARK    7  A    between atoms: C17_24  and  N5_25 
ROOT
HETATM    1  C9  UNL     1      25.972   3.592  50.441  1.00  0.00    -0.021 A 
HETATM    2  C10 UNL     1      26.829   3.853  49.469  1.00  0.00     0.146 A 
HETATM    3  N2  UNL     1      26.650   5.101  48.817  1.00  0.00    -0.159 NA
HETATM    4  N3  UNL     1      25.748   5.917  49.125  1.00  0.00    -0.111 NA
HETATM    5  C11 UNL     1      24.812   5.676  50.157  1.00  0.00     0.279 A 
HETATM    6  O2  UNL     1      23.972   6.568  50.360  1.00  0.00    -0.268 OA
HETATM    7  C12 UNL     1      24.830   4.428  50.956  1.00  0.00     0.206 A 
ENDROOT
BRANCH   7   8
HETATM    8  C13 UNL     1      23.563   3.675  50.674  1.00  0.00     0.239 C 
HETATM    9  O3  UNL     1      23.220   3.479  49.483  1.00  0.00    -0.272 OA
HETATM   10  N4  UNL     1      22.738   3.175  51.692  1.00  0.00    -0.326 N 
HETATM   11  H15 UNL     1      23.121   3.397  52.652  1.00  0.00     0.169 HD
BRANCH  10  12
HETATM   12  C14 UNL     1      21.521   2.453  51.619  1.00  0.00     0.034 A 
HETATM   13  C15 UNL     1      21.551   1.112  51.337  1.00  0.00     0.032 A 
HETATM   14  C16 UNL     1      20.412   0.343  51.253  1.00  0.00     0.031 A 
HETATM   15  C17 UNL     1      19.173   0.888  51.449  1.00  0.00     0.030 A 
HETATM   16  C23 UNL     1      19.101   2.234  51.735  1.00  0.00     0.031 A 
HETATM   17  C24 UNL     1      20.275   2.961  51.809  1.00  0.00     0.032 A 
BRANCH  15  18
HETATM   18  N5  UNL     1      18.047   0.026  51.346  1.00  0.00    -0.378 N 
HETATM   19  C18 UNL     1      17.263   0.019  50.153  1.00  0.00     0.153 C 
HETATM   20  C19 UNL     1      16.027  -0.839  50.333  1.00  0.00     0.291 C 
HETATM   21  N6  UNL     1      15.303  -0.542  51.542  1.00  0.00     0.087 N 
HETATM   22  C20 UNL     1      14.298  -1.572  51.725  1.00  0.00     0.310 C 
HETATM   23  C21 UNL     1      16.141  -0.475  52.704  1.00  0.00     0.291 C 
HETATM   24  C22 UNL     1      17.576  -0.893  52.361  1.00  0.00     0.153 C 
ENDBRANCH  15  18
ENDBRANCH  10  12
ENDBRANCH   7   8
BRANCH   1  25
HETATM   25  C8  UNL     1      25.963   2.372  51.250  1.00  0.00     0.157 C 
BRANCH  25  26
HETATM   26  N1  UNL     1      26.272   2.596  52.650  1.00  0.00    -0.384 N 
HETATM   27  H10 UNL     1      26.008   3.133  53.487  1.00  0.00     0.160 HD
BRANCH  26  28
HETATM   28  C7  UNL     1      27.373   1.750  53.047  1.00  0.00     0.058 A 
HETATM   29  C2  UNL     1      27.610   0.287  52.993  1.00  0.00     0.096 A 
HETATM   30  C3  UNL     1      28.815   0.072  53.500  1.00  0.00    -0.045 A 
HETATM   31  C4  UNL     1      29.522  -1.216  53.671  1.00  0.00     0.046 C 
HETATM   32  C5  UNL     1      29.461   1.334  53.922  1.00  0.00     0.066 A 
HETATM   33  C6  UNL     1      28.432   2.346  53.577  1.00  0.00     0.010 A 
BRANCH  29  34
HETATM   34  O1  UNL     1      26.542  -0.403  52.449  1.00  0.00    -0.353 OA
HETATM   35  C1  UNL     1      25.419  -0.767  53.222  1.00  0.00     0.210 C 
ENDBRANCH  29  34
ENDBRANCH  26  28
ENDBRANCH  25  26
ENDBRANCH   1  25
TORSDOF 7
ENDMDL
