MODEL 1
REMARK VINA RESULT:      -8.4      0.000      0.000
REMARK  3 active torsions:
REMARK  status: ('A' for Active; 'I' for Inactive)
REMARK    1  A    between atoms: N2_6  and  C5_7 
REMARK    2  A    between atoms: C5_7  and  O1_8 
REMARK    3  A    between atoms: O1_8  and  C6_9 
ROOT
HETATM    1  C6  UNL     1      27.663   1.262  52.509  1.00  0.00     0.169 C 
HETATM    2  C7  UNL     1      28.246   1.139  53.854  1.00  0.00     0.009 C 
HETATM    3  C8  UNL     1      28.421   0.460  55.049  1.00  0.00     0.031 C 
HETATM    4  C9  UNL     1      27.540  -0.454  54.371  1.00  0.00     0.185 A 
HETATM    5  N3  UNL     1      28.296  -1.326  53.593  1.00  0.00    -0.264 NA
HETATM    6  C10 UNL     1      27.514  -1.994  52.686  1.00  0.00     0.112 A 
HETATM    7  C11 UNL     1      26.522  -1.204  53.330  1.00  0.00     0.107 A 
HETATM    8  C12 UNL     1      25.342  -0.596  53.730  1.00  0.00     0.066 A 
HETATM    9  C13 UNL     1      23.928  -0.550  53.549  1.00  0.00     0.007 A 
HETATM   10  C14 UNL     1      23.385  -0.835  54.822  1.00  0.00     0.016 A 
HETATM   11  C15 UNL     1      22.017  -0.853  55.060  1.00  0.00     0.020 A 
HETATM   12  C16 UNL     1      21.210  -0.570  53.957  1.00  0.00     0.116 A 
HETATM   13  N4  UNL     1      21.732  -0.305  52.771  1.00  0.00    -0.272 NA
HETATM   14  C17 UNL     1      23.022  -0.290  52.559  1.00  0.00     0.129 A 
HETATM   15  N5  UNL     1      26.229  -0.023  54.557  1.00  0.00    -0.252 NA
HETATM   16  C18 UNL     1      26.059  -0.971  51.958  1.00  0.00    -0.002 C 
HETATM   17  C19 UNL     1      26.788   0.215  51.975  1.00  0.00     0.006 C 
ENDROOT
BRANCH   1  18
HETATM   18  O1  UNL     1      26.962   2.500  52.514  1.00  0.00    -0.359 OA
BRANCH  18  19
HETATM   19  C5  UNL     1      26.286   2.563  51.294  1.00  0.00     0.300 C 
BRANCH  19  20
HETATM   20  N2  UNL     1      25.070   3.381  51.447  1.00  0.00    -0.322 N 
HETATM   21  C2  UNL     1      24.797   4.356  50.560  1.00  0.00     0.103 A 
HETATM   22  C1  UNL     1      25.531   4.816  49.340  1.00  0.00     0.091 C 
HETATM   23  N1  UNL     1      23.658   4.938  50.938  1.00  0.00    -0.246 NA
HETATM   24  C3  UNL     1      23.204   4.329  52.073  1.00  0.00     0.136 A 
HETATM   25  C4  UNL     1      24.113   3.338  52.388  1.00  0.00     0.114 A 
ENDBRANCH  19  20
ENDBRANCH  18  19
ENDBRANCH   1  18
TORSDOF 3
ENDMDL
MODEL 2
REMARK VINA RESULT:      -8.4      2.097      7.074
REMARK  3 active torsions:
REMARK  status: ('A' for Active; 'I' for Inactive)
REMARK    1  A    between atoms: N2_6  and  C5_7 
REMARK    2  A    between atoms: C5_7  and  O1_8 
REMARK    3  A    between atoms: O1_8  and  C6_9 
ROOT
HETATM    1  C6  UNL     1      24.434   2.609  52.218  1.00  0.00     0.169 C 
HETATM    2  C7  UNL     1      23.541   3.666  52.719  1.00  0.00     0.009 C 
HETATM    3  C8  UNL     1      22.746   4.783  52.523  1.00  0.00     0.031 C 
HETATM    4  C9  UNL     1      23.191   4.556  51.174  1.00  0.00     0.185 A 
HETATM    5  N3  UNL     1      22.331   3.652  50.555  1.00  0.00    -0.264 NA
HETATM    6  C10 UNL     1      22.878   3.152  49.401  1.00  0.00     0.112 A 
HETATM    7  C11 UNL     1      23.925   4.024  49.810  1.00  0.00     0.107 A 
HETATM    8  C12 UNL     1      25.100   4.752  49.917  1.00  0.00     0.066 A 
HETATM    9  C13 UNL     1      26.337   5.079  49.287  1.00  0.00     0.007 A 
HETATM   10  C14 UNL     1      26.311   6.483  49.134  1.00  0.00     0.016 A 
HETATM   11  C15 UNL     1      27.369   7.191  48.578  1.00  0.00     0.020 A 
HETATM   12  C16 UNL     1      28.463   6.422  48.180  1.00  0.00     0.116 A 
HETATM   13  N4  UNL     1      28.474   5.108  48.329  1.00  0.00    -0.272 NA
HETATM   14  C17 UNL     1      27.472   4.453  48.855  1.00  0.00     0.129 A 
HETATM   15  N5  UNL     1      24.440   5.150  51.016  1.00  0.00    -0.252 NA
HETATM   16  C18 UNL     1      24.781   2.888  49.450  1.00  0.00    -0.002 C 
HETATM   17  C19 UNL     1      24.770   2.527  50.794  1.00  0.00     0.006 C 
ENDROOT
BRANCH   1  18
HETATM   18  O1  UNL     1      25.632   2.738  52.975  1.00  0.00    -0.359 OA
BRANCH  18  19
HETATM   19  C5  UNL     1      26.619   2.069  52.248  1.00  0.00     0.300 C 
BRANCH  19  20
HETATM   20  N2  UNL     1      27.418   1.231  53.159  1.00  0.00    -0.322 N 
HETATM   21  C2  UNL     1      27.001  -0.009  53.476  1.00  0.00     0.103 A 
HETATM   22  C1  UNL     1      25.793  -0.783  53.051  1.00  0.00     0.091 C 
HETATM   23  N1  UNL     1      27.895  -0.534  54.315  1.00  0.00    -0.246 NA
HETATM   24  C3  UNL     1      28.888   0.379  54.533  1.00  0.00     0.136 A 
HETATM   25  C4  UNL     1      28.572   1.501  53.791  1.00  0.00     0.114 A 
ENDBRANCH  19  20
ENDBRANCH  18  19
ENDBRANCH   1  18
TORSDOF 3
ENDMDL
MODEL 3
REMARK VINA RESULT:      -8.2      1.367      5.160
REMARK  3 active torsions:
REMARK  status: ('A' for Active; 'I' for Inactive)
REMARK    1  A    between atoms: N2_6  and  C5_7 
REMARK    2  A    between atoms: C5_7  and  O1_8 
REMARK    3  A    between atoms: O1_8  and  C6_9 
ROOT
HETATM    1  C6  UNL     1      26.142   2.775  51.358  1.00  0.00     0.169 C 
HETATM    2  C7  UNL     1      25.460   2.988  50.071  1.00  0.00     0.009 C 
HETATM    3  C8  UNL     1      24.319   3.224  49.321  1.00  0.00     0.031 C 
HETATM    4  C9  UNL     1      23.747   3.197  50.641  1.00  0.00     0.185 A 
HETATM    5  N3  UNL     1      23.822   4.470  51.199  1.00  0.00    -0.264 NA
HETATM    6  C10 UNL     1      23.599   4.438  52.552  1.00  0.00     0.112 A 
HETATM    7  C11 UNL     1      23.460   3.055  52.248  1.00  0.00     0.107 A 
HETATM    8  C12 UNL     1      23.268   1.684  52.297  1.00  0.00     0.066 A 
HETATM    9  C13 UNL     1      22.925   0.578  53.130  1.00  0.00     0.007 A 
HETATM   10  C14 UNL     1      21.782   0.005  52.529  1.00  0.00     0.016 A 
HETATM   11  C15 UNL     1      21.161  -1.128  53.040  1.00  0.00     0.020 A 
HETATM   12  C16 UNL     1      21.742  -1.665  54.189  1.00  0.00     0.116 A 
HETATM   13  N4  UNL     1      22.812  -1.119  54.742  1.00  0.00    -0.272 NA
HETATM   14  C17 UNL     1      23.388  -0.052  54.251  1.00  0.00     0.129 A 
HETATM   15  N5  UNL     1      23.505   1.871  50.990  1.00  0.00    -0.252 NA
HETATM   16  C18 UNL     1      24.280   2.882  53.452  1.00  0.00    -0.002 C 
HETATM   17  C19 UNL     1      25.388   2.793  52.615  1.00  0.00     0.006 C 
ENDROOT
BRANCH   1  18
HETATM   18  O1  UNL     1      26.807   1.523  51.228  1.00  0.00    -0.359 OA
BRANCH  18  19
HETATM   19  C5  UNL     1      27.329   1.235  52.491  1.00  0.00     0.300 C 
BRANCH  19  20
HETATM   20  N2  UNL     1      27.421  -0.225  52.663  1.00  0.00    -0.322 N 
HETATM   21  C2  UNL     1      28.535  -0.775  53.182  1.00  0.00     0.103 A 
HETATM   22  C1  UNL     1      29.806  -0.155  53.671  1.00  0.00     0.091 C 
HETATM   23  N1  UNL     1      28.356  -2.096  53.215  1.00  0.00    -0.246 NA
HETATM   24  C3  UNL     1      27.120  -2.389  52.713  1.00  0.00     0.136 A 
HETATM   25  C4  UNL     1      26.533  -1.188  52.364  1.00  0.00     0.114 A 
ENDBRANCH  19  20
ENDBRANCH  18  19
ENDBRANCH   1  18
TORSDOF 3
ENDMDL
MODEL 4
REMARK VINA RESULT:      -8.0      1.481      5.382
REMARK  3 active torsions:
REMARK  status: ('A' for Active; 'I' for Inactive)
REMARK    1  A    between atoms: N2_6  and  C5_7 
REMARK    2  A    between atoms: C5_7  and  O1_8 
REMARK    3  A    between atoms: O1_8  and  C6_9 
ROOT
HETATM    1  C6  UNL     1      25.910   2.441  51.653  1.00  0.00     0.169 C 
HETATM    2  C7  UNL     1      25.644   2.821  50.256  1.00  0.00     0.009 C 
HETATM    3  C8  UNL     1      24.830   3.363  49.275  1.00  0.00     0.031 C 
HETATM    4  C9  UNL     1      23.975   3.522  50.422  1.00  0.00     0.185 A 
HETATM    5  N3  UNL     1      24.271   4.728  51.050  1.00  0.00    -0.264 NA
HETATM    6  C10 UNL     1      23.731   4.782  52.310  1.00  0.00     0.112 A 
HETATM    7  C11 UNL     1      23.285   3.492  51.907  1.00  0.00     0.107 A 
HETATM    8  C12 UNL     1      22.707   2.235  51.835  1.00  0.00     0.066 A 
HETATM    9  C13 UNL     1      21.878   1.287  52.504  1.00  0.00     0.007 A 
HETATM   10  C14 UNL     1      20.798   1.056  51.623  1.00  0.00     0.016 A 
HETATM   11  C15 UNL     1      19.780   0.157  51.912  1.00  0.00     0.020 A 
HETATM   12  C16 UNL     1      19.892  -0.507  53.134  1.00  0.00     0.116 A 
HETATM   13  N4  UNL     1      20.909  -0.282  53.950  1.00  0.00    -0.272 NA
HETATM   14  C17 UNL     1      21.862   0.567  53.666  1.00  0.00     0.129 A 
HETATM   15  N5  UNL     1      23.293   2.326  50.632  1.00  0.00    -0.252 NA
HETATM   16  C18 UNL     1      23.710   3.110  53.258  1.00  0.00    -0.002 C 
HETATM   17  C19 UNL     1      24.915   2.694  52.699  1.00  0.00     0.006 C 
ENDROOT
BRANCH   1  18
HETATM   18  O1  UNL     1      26.206   1.049  51.614  1.00  0.00    -0.359 OA
BRANCH  18  19
HETATM   19  C5  UNL     1      26.118   0.602  52.934  1.00  0.00     0.300 C 
BRANCH  19  20
HETATM   20  N2  UNL     1      27.411   0.029  53.345  1.00  0.00    -0.322 N 
HETATM   21  C2  UNL     1      27.695  -1.259  53.073  1.00  0.00     0.103 A 
HETATM   22  C1  UNL     1      26.905  -2.317  52.370  1.00  0.00     0.091 C 
HETATM   23  N1  UNL     1      28.910  -1.516  53.560  1.00  0.00    -0.246 NA
HETATM   24  C3  UNL     1      29.401  -0.385  54.147  1.00  0.00     0.136 A 
HETATM   25  C4  UNL     1      28.436   0.594  54.004  1.00  0.00     0.114 A 
ENDBRANCH  19  20
ENDBRANCH  18  19
ENDBRANCH   1  18
TORSDOF 3
ENDMDL
MODEL 5
REMARK VINA RESULT:      -7.9      2.555      5.426
REMARK  3 active torsions:
REMARK  status: ('A' for Active; 'I' for Inactive)
REMARK    1  A    between atoms: N2_6  and  C5_7 
REMARK    2  A    between atoms: C5_7  and  O1_8 
REMARK    3  A    between atoms: O1_8  and  C6_9 
ROOT
HETATM    1  C6  UNL     1      23.604   4.008  49.724  1.00  0.00     0.169 C 
HETATM    2  C7  UNL     1      22.873   2.927  49.043  1.00  0.00     0.009 C 
HETATM    3  C8  UNL     1      22.073   1.796  49.063  1.00  0.00     0.031 C 
HETATM    4  C9  UNL     1      22.180   2.049  50.475  1.00  0.00     0.185 A 
HETATM    5  N3  UNL     1      21.183   2.943  50.857  1.00  0.00    -0.264 NA
HETATM    6  C10 UNL     1      21.431   3.468  52.100  1.00  0.00     0.112 A 
HETATM    7  C11 UNL     1      22.560   2.613  51.966  1.00  0.00     0.107 A 
HETATM    8  C12 UNL     1      23.738   1.907  52.153  1.00  0.00     0.066 A 
HETATM    9  C13 UNL     1      24.795   1.612  53.064  1.00  0.00     0.007 A 
HETATM   10  C14 UNL     1      24.757   0.210  53.230  1.00  0.00     0.016 A 
HETATM   11  C15 UNL     1      25.664  -0.469  54.033  1.00  0.00     0.020 A 
HETATM   12  C16 UNL     1      26.619   0.326  54.668  1.00  0.00     0.116 A 
HETATM   13  N4  UNL     1      26.643   1.638  54.503  1.00  0.00    -0.272 NA
HETATM   14  C17 UNL     1      25.784   2.266  53.744  1.00  0.00     0.129 A 
HETATM   15  N5  UNL     1      23.366   1.483  50.936  1.00  0.00    -0.252 NA
HETATM   16  C18 UNL     1      23.287   3.770  52.500  1.00  0.00    -0.002 C 
HETATM   17  C19 UNL     1      23.589   4.114  51.185  1.00  0.00     0.006 C 
ENDROOT
BRANCH   1  18
HETATM   18  O1  UNL     1      24.950   3.893  49.276  1.00  0.00    -0.359 OA
BRANCH  18  19
HETATM   19  C5  UNL     1      25.672   4.857  49.982  1.00  0.00     0.300 C 
BRANCH  19  20
HETATM   20  N2  UNL     1      25.961   6.000  49.099  1.00  0.00    -0.322 N 
HETATM   21  C2  UNL     1      27.144   6.077  48.460  1.00  0.00     0.103 A 
HETATM   22  C1  UNL     1      28.324   5.158  48.453  1.00  0.00     0.091 C 
HETATM   23  N1  UNL     1      27.144   7.203  47.745  1.00  0.00    -0.246 NA
HETATM   24  C3  UNL     1      25.954   7.847  47.931  1.00  0.00     0.136 A 
HETATM   25  C4  UNL     1      25.208   7.071  48.797  1.00  0.00     0.114 A 
ENDBRANCH  19  20
ENDBRANCH  18  19
ENDBRANCH   1  18
TORSDOF 3
ENDMDL
MODEL 6
REMARK VINA RESULT:      -7.8      1.983      7.258
REMARK  3 active torsions:
REMARK  status: ('A' for Active; 'I' for Inactive)
REMARK    1  A    between atoms: N2_6  and  C5_7 
REMARK    2  A    between atoms: C5_7  and  O1_8 
REMARK    3  A    between atoms: O1_8  and  C6_9 
ROOT
HETATM    1  C6  UNL     1      23.599   2.926  51.743  1.00  0.00     0.169 C 
HETATM    2  C7  UNL     1      22.782   4.082  52.147  1.00  0.00     0.009 C 
HETATM    3  C8  UNL     1      22.160   5.289  51.873  1.00  0.00     0.031 C 
HETATM    4  C9  UNL     1      22.748   5.017  50.589  1.00  0.00     0.185 A 
HETATM    5  N3  UNL     1      21.876   4.229  49.843  1.00  0.00    -0.264 NA
HETATM    6  C10 UNL     1      22.506   3.673  48.759  1.00  0.00     0.112 A 
HETATM    7  C11 UNL     1      23.588   4.407  49.321  1.00  0.00     0.107 A 
HETATM    8  C12 UNL     1      24.817   4.985  49.596  1.00  0.00     0.066 A 
HETATM    9  C13 UNL     1      26.156   5.163  49.141  1.00  0.00     0.007 A 
HETATM   10  C14 UNL     1      26.321   6.560  49.017  1.00  0.00     0.016 A 
HETATM   11  C15 UNL     1      27.521   7.136  48.619  1.00  0.00     0.020 A 
HETATM   12  C16 UNL     1      28.557   6.242  48.350  1.00  0.00     0.116 A 
HETATM   13  N4  UNL     1      28.390   4.936  48.471  1.00  0.00    -0.272 NA
HETATM   14  C17 UNL     1      27.255   4.405  48.846  1.00  0.00     0.129 A 
HETATM   15  N5  UNL     1      24.071   5.454  50.608  1.00  0.00    -0.252 NA
HETATM   16  C18 UNL     1      24.340   3.177  49.051  1.00  0.00    -0.002 C 
HETATM   17  C19 UNL     1      24.108   2.812  50.374  1.00  0.00     0.006 C 
ENDROOT
BRANCH   1  18
HETATM   18  O1  UNL     1      24.694   2.904  52.653  1.00  0.00    -0.359 OA
BRANCH  18  19
HETATM   19  C5  UNL     1      25.464   1.794  52.298  1.00  0.00     0.300 C 
BRANCH  19  20
HETATM   20  N2  UNL     1      25.308   0.742  53.317  1.00  0.00    -0.322 N 
HETATM   21  C2  UNL     1      26.346   0.407  54.106  1.00  0.00     0.103 A 
HETATM   22  C1  UNL     1      27.744   0.935  54.174  1.00  0.00     0.091 C 
HETATM   23  N1  UNL     1      25.938  -0.567  54.920  1.00  0.00    -0.246 NA
HETATM   24  C3  UNL     1      24.631  -0.855  54.646  1.00  0.00     0.136 A 
HETATM   25  C4  UNL     1      24.240  -0.014  53.622  1.00  0.00     0.114 A 
ENDBRANCH  19  20
ENDBRANCH  18  19
ENDBRANCH   1  18
TORSDOF 3
ENDMDL
MODEL 7
REMARK VINA RESULT:      -7.4      1.651      5.427
REMARK  3 active torsions:
REMARK  status: ('A' for Active; 'I' for Inactive)
REMARK    1  A    between atoms: N2_6  and  C5_7 
REMARK    2  A    between atoms: C5_7  and  O1_8 
REMARK    3  A    between atoms: O1_8  and  C6_9 
ROOT
HETATM    1  C6  UNL     1      25.224   3.092  51.139  1.00  0.00     0.169 C 
HETATM    2  C7  UNL     1      24.801   3.250  49.738  1.00  0.00     0.009 C 
HETATM    3  C8  UNL     1      23.841   3.533  48.780  1.00  0.00     0.031 C 
HETATM    4  C9  UNL     1      23.055   3.696  49.974  1.00  0.00     0.185 A 
HETATM    5  N3  UNL     1      23.190   5.002  50.436  1.00  0.00    -0.264 NA
HETATM    6  C10 UNL     1      22.738   5.126  51.725  1.00  0.00     0.112 A 
HETATM    7  C11 UNL     1      22.485   3.743  51.509  1.00  0.00     0.107 A 
HETATM    8  C12 UNL     1      22.120   2.411  51.629  1.00  0.00     0.066 A 
HETATM    9  C13 UNL     1      21.509   1.435  52.470  1.00  0.00     0.007 A 
HETATM   10  C14 UNL     1      20.423   0.931  51.719  1.00  0.00     0.016 A 
HETATM   11  C15 UNL     1      19.591  -0.073  52.196  1.00  0.00     0.020 A 
HETATM   12  C16 UNL     1      19.897  -0.555  53.468  1.00  0.00     0.116 A 
HETATM   13  N4  UNL     1      20.917  -0.075  54.160  1.00  0.00    -0.272 NA
HETATM   14  C17 UNL     1      21.694   0.871  53.700  1.00  0.00     0.129 A 
HETATM   15  N5  UNL     1      22.597   2.443  50.375  1.00  0.00    -0.252 NA
HETATM   16  C18 UNL     1      23.061   3.601  52.850  1.00  0.00    -0.002 C 
HETATM   17  C19 UNL     1      24.276   3.313  52.235  1.00  0.00     0.006 C 
ENDROOT
BRANCH   1  18
HETATM   18  O1  UNL     1      25.743   1.770  51.228  1.00  0.00    -0.359 OA
BRANCH  18  19
HETATM   19  C5  UNL     1      26.758   1.821  52.185  1.00  0.00     0.300 C 
BRANCH  19  20
HETATM   20  N2  UNL     1      26.480   0.841  53.249  1.00  0.00    -0.322 N 
HETATM   21  C2  UNL     1      27.465   0.451  54.081  1.00  0.00     0.103 A 
HETATM   22  C1  UNL     1      28.905   0.847  54.161  1.00  0.00     0.091 C 
HETATM   23  N1  UNL     1      26.947  -0.438  54.930  1.00  0.00    -0.246 NA
HETATM   24  C3  UNL     1      25.625  -0.615  54.636  1.00  0.00     0.136 A 
HETATM   25  C4  UNL     1      25.339   0.206  53.562  1.00  0.00     0.114 A 
ENDBRANCH  19  20
ENDBRANCH  18  19
ENDBRANCH   1  18
TORSDOF 3
ENDMDL
MODEL 8
REMARK VINA RESULT:      -7.1      2.508      6.158
REMARK  3 active torsions:
REMARK  status: ('A' for Active; 'I' for Inactive)
REMARK    1  A    between atoms: N2_6  and  C5_7 
REMARK    2  A    between atoms: C5_7  and  O1_8 
REMARK    3  A    between atoms: O1_8  and  C6_9 
ROOT
HETATM    1  C6  UNL     1      24.731   3.084  51.904  1.00  0.00     0.169 C 
HETATM    2  C7  UNL     1      25.219   3.180  50.519  1.00  0.00     0.009 C 
HETATM    3  C8  UNL     1      25.189   3.741  49.253  1.00  0.00     0.031 C 
HETATM    4  C9  UNL     1      24.149   4.505  49.888  1.00  0.00     0.185 A 
HETATM    5  N3  UNL     1      24.714   5.607  50.523  1.00  0.00    -0.264 NA
HETATM    6  C10 UNL     1      23.834   6.182  51.405  1.00  0.00     0.112 A 
HETATM    7  C11 UNL     1      23.025   5.123  50.907  1.00  0.00     0.107 A 
HETATM    8  C12 UNL     1      22.002   4.225  50.646  1.00  0.00     0.066 A 
HETATM    9  C13 UNL     1      20.644   3.885  50.919  1.00  0.00     0.007 A 
HETATM   10  C14 UNL     1      20.003   3.895  49.660  1.00  0.00     0.016 A 
HETATM   11  C15 UNL     1      18.659   3.579  49.507  1.00  0.00     0.020 A 
HETATM   12  C16 UNL     1      17.980   3.251  50.680  1.00  0.00     0.116 A 
HETATM   13  N4  UNL     1      18.593   3.245  51.853  1.00  0.00    -0.272 NA
HETATM   14  C17 UNL     1      19.859   3.543  51.984  1.00  0.00     0.129 A 
HETATM   15  N5  UNL     1      22.965   3.774  49.828  1.00  0.00    -0.252 NA
HETATM   16  C18 UNL     1      22.680   4.949  52.323  1.00  0.00    -0.002 C 
HETATM   17  C19 UNL     1      23.660   3.963  52.381  1.00  0.00     0.006 C 
ENDROOT
BRANCH   1  18
HETATM   18  O1  UNL     1      24.332   1.727  52.069  1.00  0.00    -0.359 OA
BRANCH  18  19
HETATM   19  C5  UNL     1      25.500   0.969  51.965  1.00  0.00     0.300 C 
BRANCH  19  20
HETATM   20  N2  UNL     1      25.978   0.617  53.313  1.00  0.00    -0.322 N 
HETATM   21  C2  UNL     1      27.101   1.181  53.800  1.00  0.00     0.103 A 
HETATM   22  C1  UNL     1      28.039   2.183  53.206  1.00  0.00     0.091 C 
HETATM   23  N1  UNL     1      27.306   0.683  55.020  1.00  0.00    -0.246 NA
HETATM   24  C3  UNL     1      26.309  -0.204  55.311  1.00  0.00     0.136 A 
HETATM   25  C4  UNL     1      25.468  -0.237  54.215  1.00  0.00     0.114 A 
ENDBRANCH  19  20
ENDBRANCH  18  19
ENDBRANCH   1  18
TORSDOF 3
ENDMDL
MODEL 9
REMARK VINA RESULT:      -6.9      2.403      7.357
REMARK  3 active torsions:
REMARK  status: ('A' for Active; 'I' for Inactive)
REMARK    1  A    between atoms: N2_6  and  C5_7 
REMARK    2  A    between atoms: C5_7  and  O1_8 
REMARK    3  A    between atoms: O1_8  and  C6_9 
ROOT
HETATM    1  C6  UNL     1      22.575   1.708  50.853  1.00  0.00     0.169 C 
HETATM    2  C7  UNL     1      21.639   2.294  51.825  1.00  0.00     0.009 C 
HETATM    3  C8  UNL     1      20.796   3.310  52.244  1.00  0.00     0.031 C 
HETATM    4  C9  UNL     1      21.248   3.863  50.995  1.00  0.00     0.185 A 
HETATM    5  N3  UNL     1      20.428   3.405  49.968  1.00  0.00    -0.264 NA
HETATM    6  C10 UNL     1      20.994   3.627  48.738  1.00  0.00     0.112 A 
HETATM    7  C11 UNL     1      22.003   4.178  49.576  1.00  0.00     0.107 A 
HETATM    8  C12 UNL     1      23.145   4.776  50.084  1.00  0.00     0.066 A 
HETATM    9  C13 UNL     1      24.366   5.437  49.758  1.00  0.00     0.007 A 
HETATM   10  C14 UNL     1      24.280   6.700  50.385  1.00  0.00     0.016 A 
HETATM   11  C15 UNL     1      25.306   7.635  50.322  1.00  0.00     0.020 A 
HETATM   12  C16 UNL     1      26.431   7.244  49.596  1.00  0.00     0.116 A 
HETATM   13  N4  UNL     1      26.499   6.058  49.014  1.00  0.00    -0.272 NA
HETATM   14  C17 UNL     1      25.527   5.186  49.082  1.00  0.00     0.129 A 
HETATM   15  N5  UNL     1      22.471   4.494  51.209  1.00  0.00    -0.252 NA
HETATM   16  C18 UNL     1      22.907   3.448  48.680  1.00  0.00    -0.002 C 
HETATM   17  C19 UNL     1      22.912   2.419  49.617  1.00  0.00     0.006 C 
ENDROOT
BRANCH   1  18
HETATM   18  O1  UNL     1      23.768   1.453  51.587  1.00  0.00    -0.359 OA
BRANCH  18  19
HETATM   19  C5  UNL     1      23.370   0.774  52.740  1.00  0.00     0.300 C 
BRANCH  19  20
HETATM   20  N2  UNL     1      24.559   0.262  53.444  1.00  0.00    -0.322 N 
HETATM   21  C2  UNL     1      24.419  -0.620  54.452  1.00  0.00     0.103 A 
HETATM   22  C1  UNL     1      23.201  -1.248  55.052  1.00  0.00     0.091 C 
HETATM   23  N1  UNL     1      25.638  -0.904  54.911  1.00  0.00    -0.246 NA
HETATM   24  C3  UNL     1      26.560  -0.199  54.191  1.00  0.00     0.136 A 
HETATM   25  C4  UNL     1      25.860   0.541  53.258  1.00  0.00     0.114 A 
ENDBRANCH  19  20
ENDBRANCH  18  19
ENDBRANCH   1  18
TORSDOF 3
ENDMDL
