MODEL 1
REMARK VINA RESULT:      -7.6      0.000      0.000
REMARK  6 active torsions:
REMARK  status: ('A' for Active; 'I' for Inactive)
REMARK    1  A    between atoms: C2_2  and  N1_3 
REMARK    2  A    between atoms: C2_2  and  C15_20 
REMARK    3  A    between atoms: N1_3  and  C3_4 
REMARK    4  A    between atoms: C5_8  and  C6_9 
REMARK    5  A    between atoms: C7_10  and  N4_11 
REMARK    6  A    between atoms: C7_10  and  C8_12 
ROOT
HETATM    1  C8  UNL     1      24.700   2.831  51.471  1.00  0.00    -0.010 A 
HETATM    2  C9  UNL     1      24.027   3.231  52.607  1.00  0.00     0.015 A 
HETATM    3  C10 UNL     1      22.689   3.514  52.674  1.00  0.00     0.023 A 
HETATM    4  C11 UNL     1      21.911   3.409  51.555  1.00  0.00     0.044 A 
HETATM    5  C12 UNL     1      20.533   3.710  51.664  1.00  0.00     0.099 C 
HETATM    6  N5  UNL     1      19.402   3.948  51.760  1.00  0.00    -0.191 NA
HETATM    7  C13 UNL     1      22.507   3.015  50.377  1.00  0.00     0.023 A 
HETATM    8  C14 UNL     1      23.845   2.747  50.378  1.00  0.00     0.015 A 
ENDROOT
BRANCH   1   9
HETATM    9  C7  UNL     1      26.129   2.529  51.431  1.00  0.00     0.034 C 
HETATM   10  C6  UNL     1      26.911   2.024  52.366  1.00  0.00     0.038 C 
BRANCH  10  11
HETATM   11  C5  UNL     1      26.891   1.522  53.763  1.00  0.00     0.203 A 
HETATM   12  C3  UNL     1      26.323   0.184  53.916  1.00  0.00     0.130 A 
HETATM   13  N2  UNL     1      27.204  -0.595  54.493  1.00  0.00    -0.227 NA
HETATM   14  C4  UNL     1      28.358   0.204  54.729  1.00  0.00     0.230 A 
HETATM   15  N3  UNL     1      28.209   1.410  54.326  1.00  0.00    -0.266 NA
BRANCH  12  16
HETATM   16  N1  UNL     1      25.033  -0.297  53.535  1.00  0.00    -0.368 N 
HETATM   17  H5  UNL     1      24.957  -0.762  52.580  1.00  0.00     0.161 HD
BRANCH  16  18
HETATM   18  C2  UNL     1      23.875  -0.161  54.408  1.00  0.00     0.112 C 
HETATM   19  C1  UNL     1      23.784  -1.364  55.352  1.00  0.00     0.037 C 
BRANCH  18  20
HETATM   20  C15 UNL     1      22.606  -0.074  53.644  1.00  0.00    -0.036 A 
HETATM   21  C16 UNL     1      21.409   0.152  54.294  1.00  0.00     0.009 A 
HETATM   22  C17 UNL     1      20.186   0.246  53.643  1.00  0.00     0.001 A 
HETATM   23  C18 UNL     1      20.163   0.103  52.267  1.00  0.00     0.000 A 
HETATM   24  C19 UNL     1      21.358  -0.126  51.580  1.00  0.00     0.001 A 
HETATM   25  C20 UNL     1      22.567  -0.214  52.272  1.00  0.00     0.009 A 
ENDBRANCH  18  20
ENDBRANCH  16  18
ENDBRANCH  12  16
ENDBRANCH  10  11
BRANCH   9  26
HETATM   26  N4  UNL     1      26.721   2.865  50.151  1.00  0.00    -0.399 N 
HETATM   27  H9  UNL     1      27.543   3.510  50.197  1.00  0.00     0.156 HD
HETATM   28  H10 UNL     1      26.421   2.538  49.185  1.00  0.00     0.156 HD
ENDBRANCH   9  26
ENDBRANCH   1   9
TORSDOF 6
ENDMDL
MODEL 2
REMARK VINA RESULT:      -7.5      1.860      5.751
REMARK  6 active torsions:
REMARK  status: ('A' for Active; 'I' for Inactive)
REMARK    1  A    between atoms: C2_2  and  N1_3 
REMARK    2  A    between atoms: C2_2  and  C15_20 
REMARK    3  A    between atoms: N1_3  and  C3_4 
REMARK    4  A    between atoms: C5_8  and  C6_9 
REMARK    5  A    between atoms: C7_10  and  N4_11 
REMARK    6  A    between atoms: C7_10  and  C8_12 
ROOT
HETATM    1  C8  UNL     1      25.412   1.777  52.733  1.00  0.00    -0.010 A 
HETATM    2  C9  UNL     1      25.857   0.933  51.736  1.00  0.00     0.015 A 
HETATM    3  C10 UNL     1      26.756  -0.085  51.908  1.00  0.00     0.023 A 
HETATM    4  C11 UNL     1      27.287  -0.328  53.143  1.00  0.00     0.044 A 
HETATM    5  C12 UNL     1      28.213  -1.389  53.280  1.00  0.00     0.099 C 
HETATM    6  N5  UNL     1      28.965  -2.266  53.390  1.00  0.00    -0.191 NA
HETATM    7  C13 UNL     1      26.894   0.471  54.195  1.00  0.00     0.023 A 
HETATM    8  C14 UNL     1      25.994   1.469  53.957  1.00  0.00     0.015 A 
ENDROOT
BRANCH   1   9
HETATM    9  C7  UNL     1      24.445   2.853  52.522  1.00  0.00     0.034 C 
HETATM   10  C6  UNL     1      23.585   3.032  51.538  1.00  0.00     0.038 C 
BRANCH  10  11
HETATM   11  C5  UNL     1      23.105   2.416  50.275  1.00  0.00     0.203 A 
HETATM   12  C3  UNL     1      21.657   2.471  50.088  1.00  0.00     0.130 A 
HETATM   13  N2  UNL     1      21.390   3.079  48.959  1.00  0.00    -0.227 NA
HETATM   14  C4  UNL     1      22.644   3.434  48.385  1.00  0.00     0.230 A 
HETATM   15  N3  UNL     1      23.634   3.069  49.109  1.00  0.00    -0.266 NA
BRANCH  12  16
HETATM   16  N1  UNL     1      20.619   1.975  50.935  1.00  0.00    -0.368 N 
HETATM   17  H5  UNL     1      19.969   2.697  51.372  1.00  0.00     0.161 HD
BRANCH  16  18
HETATM   18  C2  UNL     1      20.453   0.551  51.190  1.00  0.00     0.112 C 
HETATM   19  C1  UNL     1      18.965   0.207  51.307  1.00  0.00     0.037 C 
BRANCH  18  20
HETATM   20  C15 UNL     1      21.127   0.125  52.441  1.00  0.00    -0.036 A 
HETATM   21  C16 UNL     1      22.375  -0.464  52.401  1.00  0.00     0.009 A 
HETATM   22  C17 UNL     1      23.064  -0.885  53.531  1.00  0.00     0.001 A 
HETATM   23  C18 UNL     1      22.468  -0.708  54.767  1.00  0.00     0.000 A 
HETATM   24  C19 UNL     1      21.205  -0.115  54.841  1.00  0.00     0.001 A 
HETATM   25  C20 UNL     1      20.545   0.295  53.681  1.00  0.00     0.009 A 
ENDBRANCH  18  20
ENDBRANCH  16  18
ENDBRANCH  12  16
ENDBRANCH  10  11
BRANCH   9  26
HETATM   26  N4  UNL     1      24.494   3.844  53.579  1.00  0.00    -0.399 N 
HETATM   27  H9  UNL     1      25.158   4.635  53.416  1.00  0.00     0.156 HD
HETATM   28  H10 UNL     1      23.942   3.860  54.487  1.00  0.00     0.156 HD
ENDBRANCH   9  26
ENDBRANCH   1   9
TORSDOF 6
ENDMDL
MODEL 3
REMARK VINA RESULT:      -7.5      2.521      6.561
REMARK  6 active torsions:
REMARK  status: ('A' for Active; 'I' for Inactive)
REMARK    1  A    between atoms: C2_2  and  N1_3 
REMARK    2  A    between atoms: C2_2  and  C15_20 
REMARK    3  A    between atoms: N1_3  and  C3_4 
REMARK    4  A    between atoms: C5_8  and  C6_9 
REMARK    5  A    between atoms: C7_10  and  N4_11 
REMARK    6  A    between atoms: C7_10  and  C8_12 
ROOT
HETATM    1  C8  UNL     1      24.590   1.658  52.761  1.00  0.00    -0.010 A 
HETATM    2  C9  UNL     1      25.837   1.568  52.177  1.00  0.00     0.015 A 
HETATM    3  C10 UNL     1      26.618   0.444  52.151  1.00  0.00     0.023 A 
HETATM    4  C11 UNL     1      26.177  -0.709  52.737  1.00  0.00     0.044 A 
HETATM    5  C12 UNL     1      27.013  -1.849  52.690  1.00  0.00     0.099 C 
HETATM    6  N5  UNL     1      27.697  -2.785  52.641  1.00  0.00    -0.191 NA
HETATM    7  C13 UNL     1      24.940  -0.704  53.344  1.00  0.00     0.023 A 
HETATM    8  C14 UNL     1      24.211   0.449  53.333  1.00  0.00     0.015 A 
ENDROOT
BRANCH   1   9
HETATM    9  C7  UNL     1      23.775   2.871  52.767  1.00  0.00     0.034 C 
HETATM   10  C6  UNL     1      22.549   3.065  52.320  1.00  0.00     0.038 C 
BRANCH  10  11
HETATM   11  C5  UNL     1      21.415   2.361  51.669  1.00  0.00     0.203 A 
HETATM   12  C3  UNL     1      21.802   1.488  50.563  1.00  0.00     0.130 A 
HETATM   13  N2  UNL     1      21.378   0.272  50.804  1.00  0.00    -0.227 NA
HETATM   14  C4  UNL     1      20.711   0.318  52.060  1.00  0.00     0.230 A 
HETATM   15  N3  UNL     1      20.716   1.491  52.574  1.00  0.00    -0.266 NA
BRANCH  12  16
HETATM   16  N1  UNL     1      22.523   1.807  49.372  1.00  0.00    -0.368 N 
HETATM   17  H5  UNL     1      23.173   1.057  48.988  1.00  0.00     0.161 HD
BRANCH  16  18
HETATM   18  C2  UNL     1      22.377   3.097  48.709  1.00  0.00     0.112 C 
HETATM   19  C1  UNL     1      22.106   2.894  47.216  1.00  0.00     0.037 C 
BRANCH  18  20
HETATM   20  C15 UNL     1      23.591   3.938  48.851  1.00  0.00    -0.036 A 
HETATM   21  C16 UNL     1      24.774   3.393  49.308  1.00  0.00     0.009 A 
HETATM   22  C17 UNL     1      25.946   4.120  49.464  1.00  0.00     0.001 A 
HETATM   23  C18 UNL     1      25.931   5.466  49.145  1.00  0.00     0.000 A 
HETATM   24  C19 UNL     1      24.749   6.048  48.679  1.00  0.00     0.001 A 
HETATM   25  C20 UNL     1      23.591   5.282  48.537  1.00  0.00     0.009 A 
ENDBRANCH  18  20
ENDBRANCH  16  18
ENDBRANCH  12  16
ENDBRANCH  10  11
BRANCH   9  26
HETATM   26  N4  UNL     1      24.476   3.994  53.356  1.00  0.00    -0.399 N 
HETATM   27  H9  UNL     1      23.966   4.482  54.127  1.00  0.00     0.156 HD
HETATM   28  H10 UNL     1      25.435   4.376  53.098  1.00  0.00     0.156 HD
ENDBRANCH   9  26
ENDBRANCH   1   9
TORSDOF 6
ENDMDL
MODEL 4
REMARK VINA RESULT:      -7.4      2.083      5.437
REMARK  6 active torsions:
REMARK  status: ('A' for Active; 'I' for Inactive)
REMARK    1  A    between atoms: C2_2  and  N1_3 
REMARK    2  A    between atoms: C2_2  and  C15_20 
REMARK    3  A    between atoms: N1_3  and  C3_4 
REMARK    4  A    between atoms: C5_8  and  C6_9 
REMARK    5  A    between atoms: C7_10  and  N4_11 
REMARK    6  A    between atoms: C7_10  and  C8_12 
ROOT
HETATM    1  C8  UNL     1      24.930   3.198  51.515  1.00  0.00    -0.010 A 
HETATM    2  C9  UNL     1      24.678   3.054  52.864  1.00  0.00     0.015 A 
HETATM    3  C10 UNL     1      25.285   2.145  53.688  1.00  0.00     0.023 A 
HETATM    4  C11 UNL     1      26.222   1.287  53.187  1.00  0.00     0.044 A 
HETATM    5  C12 UNL     1      26.827   0.362  54.070  1.00  0.00     0.099 C 
HETATM    6  N5  UNL     1      27.328  -0.388  54.800  1.00  0.00    -0.191 NA
HETATM    7  C13 UNL     1      26.533   1.365  51.847  1.00  0.00     0.023 A 
HETATM    8  C14 UNL     1      25.892   2.294  51.080  1.00  0.00     0.015 A 
ENDROOT
BRANCH   1   9
HETATM    9  C7  UNL     1      24.271   4.182  50.660  1.00  0.00     0.034 C 
HETATM   10  C6  UNL     1      23.559   4.004  49.563  1.00  0.00     0.038 C 
BRANCH  10  11
HETATM   11  C5  UNL     1      23.047   2.944  48.659  1.00  0.00     0.203 A 
HETATM   12  C3  UNL     1      22.056   2.058  49.268  1.00  0.00     0.130 A 
HETATM   13  N2  UNL     1      20.958   2.085  48.555  1.00  0.00    -0.227 NA
HETATM   14  C4  UNL     1      21.198   2.979  47.474  1.00  0.00     0.230 A 
HETATM   15  N3  UNL     1      22.375   3.481  47.506  1.00  0.00    -0.266 NA
BRANCH  12  16
HETATM   16  N1  UNL     1      22.168   1.254  50.443  1.00  0.00    -0.368 N 
HETATM   17  H5  UNL     1      22.991   0.580  50.488  1.00  0.00     0.161 HD
BRANCH  16  18
HETATM   18  C2  UNL     1      21.203   1.349  51.531  1.00  0.00     0.112 C 
HETATM   19  C1  UNL     1      21.052   2.807  51.974  1.00  0.00     0.037 C 
BRANCH  18  20
HETATM   20  C15 UNL     1      21.610   0.545  52.710  1.00  0.00    -0.036 A 
HETATM   21  C16 UNL     1      22.791  -0.170  52.698  1.00  0.00     0.009 A 
HETATM   22  C17 UNL     1      23.233  -0.942  53.764  1.00  0.00     0.001 A 
HETATM   23  C18 UNL     1      22.449  -0.999  54.903  1.00  0.00     0.000 A 
HETATM   24  C19 UNL     1      21.248  -0.286  54.946  1.00  0.00     0.001 A 
HETATM   25  C20 UNL     1      20.838   0.478  53.852  1.00  0.00     0.009 A 
ENDBRANCH  18  20
ENDBRANCH  16  18
ENDBRANCH  12  16
ENDBRANCH  10  11
BRANCH   9  26
HETATM   26  N4  UNL     1      24.472   5.537  51.133  1.00  0.00    -0.399 N 
HETATM   27  H9  UNL     1      24.404   5.660  52.170  1.00  0.00     0.156 HD
HETATM   28  H10 UNL     1      24.678   6.408  50.559  1.00  0.00     0.156 HD
ENDBRANCH   9  26
ENDBRANCH   1   9
TORSDOF 6
ENDMDL
MODEL 5
REMARK VINA RESULT:      -7.1      1.900      5.743
REMARK  6 active torsions:
REMARK  status: ('A' for Active; 'I' for Inactive)
REMARK    1  A    between atoms: C2_2  and  N1_3 
REMARK    2  A    between atoms: C2_2  and  C15_20 
REMARK    3  A    between atoms: N1_3  and  C3_4 
REMARK    4  A    between atoms: C5_8  and  C6_9 
REMARK    5  A    between atoms: C7_10  and  N4_11 
REMARK    6  A    between atoms: C7_10  and  C8_12 
ROOT
HETATM    1  C8  UNL     1      24.158   3.889  51.930  1.00  0.00    -0.010 A 
HETATM    2  C9  UNL     1      24.758   3.169  50.917  1.00  0.00     0.015 A 
HETATM    3  C10 UNL     1      25.382   1.960  51.071  1.00  0.00     0.023 A 
HETATM    4  C11 UNL     1      25.444   1.374  52.304  1.00  0.00     0.044 A 
HETATM    5  C12 UNL     1      26.097   0.124  52.423  1.00  0.00     0.099 C 
HETATM    6  N5  UNL     1      26.624  -0.905  52.514  1.00  0.00    -0.191 NA
HETATM    7  C13 UNL     1      24.868   2.029  53.371  1.00  0.00     0.023 A 
HETATM    8  C14 UNL     1      24.261   3.231  53.150  1.00  0.00     0.015 A 
ENDROOT
BRANCH   1   9
HETATM    9  C7  UNL     1      23.493   5.176  51.735  1.00  0.00     0.034 C 
HETATM   10  C6  UNL     1      22.424   5.473  51.021  1.00  0.00     0.038 C 
BRANCH  10  11
HETATM   11  C5  UNL     1      21.396   4.861  50.143  1.00  0.00     0.203 A 
HETATM   12  C3  UNL     1      20.388   4.073  50.851  1.00  0.00     0.130 A 
HETATM   13  N2  UNL     1      19.198   4.545  50.573  1.00  0.00    -0.227 NA
HETATM   14  C4  UNL     1      19.394   5.642  49.686  1.00  0.00     0.230 A 
HETATM   15  N3  UNL     1      20.631   5.843  49.424  1.00  0.00    -0.266 NA
BRANCH  12  16
HETATM   16  N1  UNL     1      20.566   2.957  51.724  1.00  0.00    -0.368 N 
HETATM   17  H5  UNL     1      20.131   3.031  52.693  1.00  0.00     0.161 HD
BRANCH  16  18
HETATM   18  C2  UNL     1      21.305   1.771  51.311  1.00  0.00     0.112 C 
HETATM   19  C1  UNL     1      20.569   1.063  50.169  1.00  0.00     0.037 C 
BRANCH  18  20
HETATM   20  C15 UNL     1      21.475   0.804  52.423  1.00  0.00    -0.036 A 
HETATM   21  C16 UNL     1      20.862   1.019  53.641  1.00  0.00     0.009 A 
HETATM   22  C17 UNL     1      20.977   0.157  54.723  1.00  0.00     0.001 A 
HETATM   23  C18 UNL     1      21.749  -0.982  54.576  1.00  0.00     0.000 A 
HETATM   24  C19 UNL     1      22.382  -1.228  53.355  1.00  0.00     0.001 A 
HETATM   25  C20 UNL     1      22.242  -0.336  52.291  1.00  0.00     0.009 A 
ENDBRANCH  18  20
ENDBRANCH  16  18
ENDBRANCH  12  16
ENDBRANCH  10  11
BRANCH   9  26
HETATM   26  N4  UNL     1      24.160   6.246  52.450  1.00  0.00    -0.399 N 
HETATM   27  H9  UNL     1      23.825   6.403  53.428  1.00  0.00     0.156 HD
HETATM   28  H10 UNL     1      24.937   6.882  52.100  1.00  0.00     0.156 HD
ENDBRANCH   9  26
ENDBRANCH   1   9
TORSDOF 6
ENDMDL
MODEL 6
REMARK VINA RESULT:      -7.0      2.317      6.569
REMARK  6 active torsions:
REMARK  status: ('A' for Active; 'I' for Inactive)
REMARK    1  A    between atoms: C2_2  and  N1_3 
REMARK    2  A    between atoms: C2_2  and  C15_20 
REMARK    3  A    between atoms: N1_3  and  C3_4 
REMARK    4  A    between atoms: C5_8  and  C6_9 
REMARK    5  A    between atoms: C7_10  and  N4_11 
REMARK    6  A    between atoms: C7_10  and  C8_12 
ROOT
HETATM    1  C8  UNL     1      24.071   2.794  52.859  1.00  0.00    -0.010 A 
HETATM    2  C9  UNL     1      23.517   1.547  53.064  1.00  0.00     0.015 A 
HETATM    3  C10 UNL     1      24.219   0.373  53.124  1.00  0.00     0.023 A 
HETATM    4  C11 UNL     1      25.577   0.379  52.976  1.00  0.00     0.044 A 
HETATM    5  C12 UNL     1      26.267  -0.855  53.044  1.00  0.00     0.099 C 
HETATM    6  N5  UNL     1      26.829  -1.867  53.111  1.00  0.00    -0.191 NA
HETATM    7  C13 UNL     1      26.209   1.586  52.767  1.00  0.00     0.023 A 
HETATM    8  C14 UNL     1      25.451   2.720  52.718  1.00  0.00     0.015 A 
ENDROOT
BRANCH   1   9
HETATM    9  C7  UNL     1      23.297   4.033  52.805  1.00  0.00     0.034 C 
HETATM   10  C6  UNL     1      22.092   4.253  52.315  1.00  0.00     0.038 C 
BRANCH  10  11
HETATM   11  C5  UNL     1      20.955   3.569  51.650  1.00  0.00     0.203 A 
HETATM   12  C3  UNL     1      21.344   2.458  50.782  1.00  0.00     0.130 A 
HETATM   13  N2  UNL     1      20.733   1.369  51.176  1.00  0.00    -0.227 NA
HETATM   14  C4  UNL     1      19.938   1.734  52.299  1.00  0.00     0.230 A 
HETATM   15  N3  UNL     1      20.044   2.976  52.590  1.00  0.00    -0.266 NA
BRANCH  12  16
HETATM   16  N1  UNL     1      22.234   2.456  49.665  1.00  0.00    -0.368 N 
HETATM   17  H5  UNL     1      22.746   1.545  49.461  1.00  0.00     0.161 HD
BRANCH  16  18
HETATM   18  C2  UNL     1      22.433   3.640  48.841  1.00  0.00     0.112 C 
HETATM   19  C1  UNL     1      22.161   3.309  47.370  1.00  0.00     0.037 C 
BRANCH  18  20
HETATM   20  C15 UNL     1      23.814   4.171  48.950  1.00  0.00    -0.036 A 
HETATM   21  C16 UNL     1      24.078   5.500  48.683  1.00  0.00     0.009 A 
HETATM   22  C17 UNL     1      25.344   6.064  48.766  1.00  0.00     0.001 A 
HETATM   23  C18 UNL     1      26.402   5.251  49.134  1.00  0.00     0.000 A 
HETATM   24  C19 UNL     1      26.167   3.902  49.411  1.00  0.00     0.001 A 
HETATM   25  C20 UNL     1      24.878   3.373  49.316  1.00  0.00     0.009 A 
ENDBRANCH  18  20
ENDBRANCH  16  18
ENDBRANCH  12  16
ENDBRANCH  10  11
BRANCH   9  26
HETATM   26  N4  UNL     1      24.017   5.150  53.383  1.00  0.00    -0.399 N 
HETATM   27  H9  UNL     1      23.751   6.090  53.011  1.00  0.00     0.156 HD
HETATM   28  H10 UNL     1      24.774   5.126  54.130  1.00  0.00     0.156 HD
ENDBRANCH   9  26
ENDBRANCH   1   9
TORSDOF 6
ENDMDL
MODEL 7
REMARK VINA RESULT:      -6.8      2.415      5.208
REMARK  6 active torsions:
REMARK  status: ('A' for Active; 'I' for Inactive)
REMARK    1  A    between atoms: C2_2  and  N1_3 
REMARK    2  A    between atoms: C2_2  and  C15_20 
REMARK    3  A    between atoms: N1_3  and  C3_4 
REMARK    4  A    between atoms: C5_8  and  C6_9 
REMARK    5  A    between atoms: C7_10  and  N4_11 
REMARK    6  A    between atoms: C7_10  and  C8_12 
ROOT
HETATM    1  C8  UNL     1      21.073   2.429  50.383  1.00  0.00    -0.010 A 
HETATM    2  C9  UNL     1      20.809   3.637  49.770  1.00  0.00     0.015 A 
HETATM    3  C10 UNL     1      21.076   3.932  48.460  1.00  0.00     0.023 A 
HETATM    4  C11 UNL     1      21.647   2.993  47.650  1.00  0.00     0.044 A 
HETATM    5  C12 UNL     1      21.907   3.335  46.302  1.00  0.00     0.099 C 
HETATM    6  N5  UNL     1      22.109   3.617  45.195  1.00  0.00    -0.191 NA
HETATM    7  C13 UNL     1      21.943   1.757  48.185  1.00  0.00     0.023 A 
HETATM    8  C14 UNL     1      21.652   1.527  49.498  1.00  0.00     0.015 A 
ENDROOT
BRANCH   1   9
HETATM    9  C7  UNL     1      20.772   2.140  51.783  1.00  0.00     0.034 C 
HETATM   10  C6  UNL     1      21.255   1.199  52.572  1.00  0.00     0.038 C 
BRANCH  10  11
HETATM   11  C5  UNL     1      22.211   0.064  52.591  1.00  0.00     0.203 A 
HETATM   12  C3  UNL     1      23.478   0.353  53.261  1.00  0.00     0.130 A 
HETATM   13  N2  UNL     1      23.663  -0.513  54.226  1.00  0.00    -0.227 NA
HETATM   14  C4  UNL     1      22.535  -1.381  54.213  1.00  0.00     0.230 A 
HETATM   15  N3  UNL     1      21.695  -1.079  53.295  1.00  0.00    -0.266 NA
BRANCH  12  16
HETATM   16  N1  UNL     1      24.428   1.383  52.987  1.00  0.00    -0.368 N 
HETATM   17  H5  UNL     1      24.720   1.998  53.806  1.00  0.00     0.161 HD
BRANCH  16  18
HETATM   18  C2  UNL     1      24.975   1.586  51.652  1.00  0.00     0.112 C 
HETATM   19  C1  UNL     1      26.498   1.424  51.677  1.00  0.00     0.037 C 
BRANCH  18  20
HETATM   20  C15 UNL     1      24.662   2.935  51.118  1.00  0.00    -0.036 A 
HETATM   21  C16 UNL     1      24.969   3.263  49.813  1.00  0.00     0.009 A 
HETATM   22  C17 UNL     1      24.703   4.503  49.249  1.00  0.00     0.001 A 
HETATM   23  C18 UNL     1      24.099   5.467  50.036  1.00  0.00     0.000 A 
HETATM   24  C19 UNL     1      23.775   5.166  51.362  1.00  0.00     0.001 A 
HETATM   25  C20 UNL     1      24.059   3.906  51.892  1.00  0.00     0.009 A 
ENDBRANCH  18  20
ENDBRANCH  16  18
ENDBRANCH  12  16
ENDBRANCH  10  11
BRANCH   9  26
HETATM   26  N4  UNL     1      19.783   3.049  52.327  1.00  0.00    -0.399 N 
HETATM   27  H9  UNL     1      20.088   4.047  52.398  1.00  0.00     0.156 HD
HETATM   28  H10 UNL     1      18.798   2.824  52.657  1.00  0.00     0.156 HD
ENDBRANCH   9  26
ENDBRANCH   1   9
TORSDOF 6
ENDMDL
MODEL 8
REMARK VINA RESULT:      -6.7      1.856      5.492
REMARK  6 active torsions:
REMARK  status: ('A' for Active; 'I' for Inactive)
REMARK    1  A    between atoms: C2_2  and  N1_3 
REMARK    2  A    between atoms: C2_2  and  C15_20 
REMARK    3  A    between atoms: N1_3  and  C3_4 
REMARK    4  A    between atoms: C5_8  and  C6_9 
REMARK    5  A    between atoms: C7_10  and  N4_11 
REMARK    6  A    between atoms: C7_10  and  C8_12 
ROOT
HETATM    1  C8  UNL     1      23.336   3.333  51.260  1.00  0.00    -0.010 A 
HETATM    2  C9  UNL     1      24.028   2.503  50.402  1.00  0.00     0.015 A 
HETATM    3  C10 UNL     1      25.172   2.840  49.729  1.00  0.00     0.023 A 
HETATM    4  C11 UNL     1      25.715   4.084  49.883  1.00  0.00     0.044 A 
HETATM    5  C12 UNL     1      26.898   4.394  49.171  1.00  0.00     0.099 C 
HETATM    6  N5  UNL     1      27.873   4.641  48.593  1.00  0.00    -0.191 NA
HETATM    7  C13 UNL     1      25.085   4.976  50.724  1.00  0.00     0.023 A 
HETATM    8  C14 UNL     1      23.948   4.577  51.365  1.00  0.00     0.015 A 
ENDROOT
BRANCH   1   9
HETATM    9  C7  UNL     1      22.120   2.945  51.970  1.00  0.00     0.034 C 
HETATM   10  C6  UNL     1      21.709   1.749  52.347  1.00  0.00     0.038 C 
BRANCH  10  11
HETATM   11  C5  UNL     1      22.102   0.317  52.329  1.00  0.00     0.203 A 
HETATM   12  C3  UNL     1      23.376   0.032  52.987  1.00  0.00     0.130 A 
HETATM   13  N2  UNL     1      23.185  -0.855  53.932  1.00  0.00    -0.227 NA
HETATM   14  C4  UNL     1      21.797  -1.170  53.917  1.00  0.00     0.230 A 
HETATM   15  N3  UNL     1      21.157  -0.520  53.018  1.00  0.00    -0.266 NA
BRANCH  12  16
HETATM   16  N1  UNL     1      24.669   0.576  52.721  1.00  0.00    -0.368 N 
HETATM   17  H5  UNL     1      24.923   0.734  51.699  1.00  0.00     0.161 HD
BRANCH  16  18
HETATM   18  C2  UNL     1      25.599   0.902  53.794  1.00  0.00     0.112 C 
HETATM   19  C1  UNL     1      25.851   2.413  53.831  1.00  0.00     0.037 C 
BRANCH  18  20
HETATM   20  C15 UNL     1      26.906   0.219  53.627  1.00  0.00    -0.036 A 
HETATM   21  C16 UNL     1      26.966  -1.076  53.153  1.00  0.00     0.009 A 
HETATM   22  C17 UNL     1      28.151  -1.775  52.972  1.00  0.00     0.001 A 
HETATM   23  C18 UNL     1      29.341  -1.142  53.285  1.00  0.00     0.000 A 
HETATM   24  C19 UNL     1      29.314   0.169  53.768  1.00  0.00     0.001 A 
HETATM   25  C20 UNL     1      28.100   0.838  53.936  1.00  0.00     0.009 A 
ENDBRANCH  18  20
ENDBRANCH  16  18
ENDBRANCH  12  16
ENDBRANCH  10  11
BRANCH   9  26
HETATM   26  N4  UNL     1      21.275   4.084  52.267  1.00  0.00    -0.399 N 
HETATM   27  H9  UNL     1      20.519   4.272  51.569  1.00  0.00     0.156 HD
HETATM   28  H10 UNL     1      21.334   4.743  53.100  1.00  0.00     0.156 HD
ENDBRANCH   9  26
ENDBRANCH   1   9
TORSDOF 6
ENDMDL
MODEL 9
REMARK VINA RESULT:      -6.6      2.188      5.729
REMARK  6 active torsions:
REMARK  status: ('A' for Active; 'I' for Inactive)
REMARK    1  A    between atoms: C2_2  and  N1_3 
REMARK    2  A    between atoms: C2_2  and  C15_20 
REMARK    3  A    between atoms: N1_3  and  C3_4 
REMARK    4  A    between atoms: C5_8  and  C6_9 
REMARK    5  A    between atoms: C7_10  and  N4_11 
REMARK    6  A    between atoms: C7_10  and  C8_12 
ROOT
HETATM    1  C8  UNL     1      24.470   2.827  52.294  1.00  0.00    -0.010 A 
HETATM    2  C9  UNL     1      23.979   1.763  53.022  1.00  0.00     0.015 A 
HETATM    3  C10 UNL     1      24.596   0.548  53.158  1.00  0.00     0.023 A 
HETATM    4  C11 UNL     1      25.795   0.317  52.546  1.00  0.00     0.044 A 
HETATM    5  C12 UNL     1      26.402  -0.950  52.711  1.00  0.00     0.099 C 
HETATM    6  N5  UNL     1      26.900  -1.988  52.856  1.00  0.00    -0.191 NA
HETATM    7  C13 UNL     1      26.355   1.330  51.798  1.00  0.00     0.023 A 
HETATM    8  C14 UNL     1      25.689   2.517  51.702  1.00  0.00     0.015 A 
ENDROOT
BRANCH   1   9
HETATM    9  C7  UNL     1      23.792   4.115  52.170  1.00  0.00     0.034 C 
HETATM   10  C6  UNL     1      23.099   4.610  51.162  1.00  0.00     0.038 C 
BRANCH  10  11
HETATM   11  C5  UNL     1      22.630   4.284  49.792  1.00  0.00     0.203 A 
HETATM   12  C3  UNL     1      21.215   3.931  49.706  1.00  0.00     0.130 A 
HETATM   13  N2  UNL     1      20.620   4.733  48.858  1.00  0.00    -0.227 NA
HETATM   14  C4  UNL     1      21.620   5.622  48.373  1.00  0.00     0.230 A 
HETATM   15  N3  UNL     1      22.771   5.391  48.885  1.00  0.00    -0.266 NA
BRANCH  12  16
HETATM   16  N1  UNL     1      20.500   2.901  50.390  1.00  0.00    -0.368 N 
HETATM   17  H5  UNL     1      19.512   3.134  50.712  1.00  0.00     0.161 HD
BRANCH  16  18
HETATM   18  C2  UNL     1      21.090   1.592  50.636  1.00  0.00     0.112 C 
HETATM   19  C1  UNL     1      21.358   0.877  49.308  1.00  0.00     0.037 C 
BRANCH  18  20
HETATM   20  C15 UNL     1      20.207   0.727  51.459  1.00  0.00    -0.036 A 
HETATM   21  C16 UNL     1      20.625   0.270  52.692  1.00  0.00     0.009 A 
HETATM   22  C17 UNL     1      19.852  -0.540  53.514  1.00  0.00     0.001 A 
HETATM   23  C18 UNL     1      18.595  -0.912  53.074  1.00  0.00     0.000 A 
HETATM   24  C19 UNL     1      18.143  -0.465  51.829  1.00  0.00     0.001 A 
HETATM   25  C20 UNL     1      18.951   0.349  51.033  1.00  0.00     0.009 A 
ENDBRANCH  18  20
ENDBRANCH  16  18
ENDBRANCH  12  16
ENDBRANCH  10  11
BRANCH   9  26
HETATM   26  N4  UNL     1      23.947   4.928  53.360  1.00  0.00    -0.399 N 
HETATM   27  H9  UNL     1      23.503   4.541  54.224  1.00  0.00     0.156 HD
HETATM   28  H10 UNL     1      24.450   5.860  53.455  1.00  0.00     0.156 HD
ENDBRANCH   9  26
ENDBRANCH   1   9
TORSDOF 6
ENDMDL
