MODEL 1
REMARK VINA RESULT:      -6.7      0.000      0.000
REMARK  7 active torsions:
REMARK  status: ('A' for Active; 'I' for Inactive)
REMARK    1  A    between atoms: N1_2  and  C2_3 
REMARK    2  A    between atoms: C2_3  and  C3_4 
REMARK    3  A    between atoms: C4_5  and  C5_6 
REMARK       I    between atoms: C5_6  and  N2_8 
REMARK    4  A    between atoms: N2_8  and  C6_9 
REMARK    5  A    between atoms: C13_17  and  O2_18 
REMARK    6  A    between atoms: O2_18  and  C14_19 
REMARK    7  A    between atoms: C14_19  and  C15_20 
ROOT
HETATM    1  C6  UNL     1      25.195   0.812  52.201  1.00  0.00     0.066 C 
HETATM    2  C7  UNL     1      26.484   0.975  52.064  1.00  0.00     0.020 C 
HETATM    3  C8  UNL     1      27.167  -0.008  52.882  1.00  0.00     0.086 A 
HETATM    4  C9  UNL     1      28.571   0.234  53.251  1.00  0.00     0.007 A 
HETATM    5  C10 UNL     1      28.636   0.079  54.585  1.00  0.00     0.114 A 
HETATM    6  N3  UNL     1      27.359  -0.241  55.113  1.00  0.00    -0.265 NA
HETATM    7  C11 UNL     1      26.498  -0.288  54.146  1.00  0.00     0.048 A 
HETATM    8  C12 UNL     1      25.068  -0.477  54.194  1.00  0.00     0.067 C 
HETATM    9  C13 UNL     1      24.403   0.111  53.188  1.00  0.00     0.097 C 
ENDROOT
BRANCH   1  10
HETATM   10  N2  UNL     1      24.319   1.677  51.442  1.00  0.00    -0.321 N 
HETATM   11  C5  UNL     1      23.827   2.960  51.766  1.00  0.00     0.245 C 
HETATM   12  O1  UNL     1      24.102   3.557  52.832  1.00  0.00    -0.268 OA
HETATM   13  H9  UNL     1      23.896   1.494  50.502  1.00  0.00     0.169 HD
BRANCH  11  14
HETATM   14  C4  UNL     1      22.967   3.856  51.055  1.00  0.00     0.072 C 
HETATM   15  C3  UNL     1      22.718   4.967  51.706  1.00  0.00    -0.002 C 
BRANCH  15  16
HETATM   16  C2  UNL     1      21.867   6.056  51.204  1.00  0.00     0.141 C 
BRANCH  16  17
HETATM   17  N1  UNL     1      22.473   7.350  51.186  1.00  0.00    -0.422 N 
HETATM   18  C1  UNL     1      23.891   7.366  50.983  1.00  0.00     0.140 C 
HETATM   19  H4  UNL     1      21.952   8.064  50.652  1.00  0.00     0.153 HD
ENDBRANCH  16  17
ENDBRANCH  15  16
ENDBRANCH  11  14
ENDBRANCH   1  10
BRANCH   9  20
HETATM   20  O2  UNL     1      23.026   0.007  53.166  1.00  0.00    -0.346 OA
BRANCH  20  21
HETATM   21  C14 UNL     1      22.416  -1.254  53.341  1.00  0.00     0.207 C 
BRANCH  21  22
HETATM   22  C15 UNL     1      21.273  -1.195  54.328  1.00  0.00     0.248 C 
HETATM   23  F1  UNL     1      21.512  -0.233  55.273  1.00  0.00    -0.253 F 
ENDBRANCH  21  22
ENDBRANCH  20  21
ENDBRANCH   9  20
TORSDOF 7
ENDMDL
MODEL 2
REMARK VINA RESULT:      -6.5      2.091      2.341
REMARK  7 active torsions:
REMARK  status: ('A' for Active; 'I' for Inactive)
REMARK    1  A    between atoms: N1_2  and  C2_3 
REMARK    2  A    between atoms: C2_3  and  C3_4 
REMARK    3  A    between atoms: C4_5  and  C5_6 
REMARK       I    between atoms: C5_6  and  N2_8 
REMARK    4  A    between atoms: N2_8  and  C6_9 
REMARK    5  A    between atoms: C13_17  and  O2_18 
REMARK    6  A    between atoms: O2_18  and  C14_19 
REMARK    7  A    between atoms: C14_19  and  C15_20 
ROOT
HETATM    1  C6  UNL     1      26.234   2.089  52.063  1.00  0.00     0.066 C 
HETATM    2  C7  UNL     1      27.476   2.116  52.466  1.00  0.00     0.020 C 
HETATM    3  C8  UNL     1      27.825   0.807  52.985  1.00  0.00     0.086 A 
HETATM    4  C9  UNL     1      28.983   0.692  53.886  1.00  0.00     0.007 A 
HETATM    5  C10 UNL     1      28.547   0.019  54.965  1.00  0.00     0.114 A 
HETATM    6  N3  UNL     1      27.173  -0.305  54.830  1.00  0.00    -0.265 NA
HETATM    7  C11 UNL     1      26.738   0.149  53.697  1.00  0.00     0.048 A 
HETATM    8  C12 UNL     1      25.398   0.153  53.160  1.00  0.00     0.067 C 
HETATM    9  C13 UNL     1      25.146   1.173  52.325  1.00  0.00     0.097 C 
ENDROOT
BRANCH   1  10
HETATM   10  N2  UNL     1      25.688   3.293  51.478  1.00  0.00    -0.321 N 
HETATM   11  C5  UNL     1      25.873   3.823  50.181  1.00  0.00     0.245 C 
HETATM   12  O1  UNL     1      26.589   3.281  49.309  1.00  0.00    -0.268 OA
HETATM   13  H9  UNL     1      25.045   3.988  51.926  1.00  0.00     0.169 HD
BRANCH  11  14
HETATM   14  C4  UNL     1      25.356   5.000  49.553  1.00  0.00     0.072 C 
HETATM   15  C3  UNL     1      25.105   5.974  50.395  1.00  0.00    -0.002 C 
BRANCH  15  16
HETATM   16  C2  UNL     1      24.569   7.289  50.014  1.00  0.00     0.141 C 
BRANCH  16  17
HETATM   17  N1  UNL     1      25.320   8.414  50.475  1.00  0.00    -0.422 N 
HETATM   18  C1  UNL     1      26.681   8.472  50.034  1.00  0.00     0.140 C 
HETATM   19  H4  UNL     1      24.815   9.314  50.441  1.00  0.00     0.153 HD
ENDBRANCH  16  17
ENDBRANCH  15  16
ENDBRANCH  11  14
ENDBRANCH   1  10
BRANCH   9  20
HETATM   20  O2  UNL     1      23.880   1.274  51.782  1.00  0.00    -0.346 OA
BRANCH  20  21
HETATM   21  C14 UNL     1      22.748   1.137  52.613  1.00  0.00     0.207 C 
BRANCH  21  22
HETATM   22  C15 UNL     1      21.836   0.027  52.144  1.00  0.00     0.248 C 
HETATM   23  F1  UNL     1      22.211  -1.164  52.705  1.00  0.00    -0.253 F 
ENDBRANCH  21  22
ENDBRANCH  20  21
ENDBRANCH   9  20
TORSDOF 7
ENDMDL
MODEL 3
REMARK VINA RESULT:      -6.3      3.348      4.859
REMARK  7 active torsions:
REMARK  status: ('A' for Active; 'I' for Inactive)
REMARK    1  A    between atoms: N1_2  and  C2_3 
REMARK    2  A    between atoms: C2_3  and  C3_4 
REMARK    3  A    between atoms: C4_5  and  C5_6 
REMARK       I    between atoms: C5_6  and  N2_8 
REMARK    4  A    between atoms: N2_8  and  C6_9 
REMARK    5  A    between atoms: C13_17  and  O2_18 
REMARK    6  A    between atoms: O2_18  and  C14_19 
REMARK    7  A    between atoms: C14_19  and  C15_20 
ROOT
HETATM    1  C6  UNL     1      25.195   2.011  52.223  1.00  0.00     0.066 C 
HETATM    2  C7  UNL     1      23.932   2.343  52.262  1.00  0.00     0.020 C 
HETATM    3  C8  UNL     1      23.236   1.421  53.140  1.00  0.00     0.086 A 
HETATM    4  C9  UNL     1      21.775   1.296  53.015  1.00  0.00     0.007 A 
HETATM    5  C10 UNL     1      21.524  -0.020  52.904  1.00  0.00     0.114 A 
HETATM    6  N3  UNL     1      22.731  -0.763  52.939  1.00  0.00    -0.265 NA
HETATM    7  C11 UNL     1      23.729   0.054  53.068  1.00  0.00     0.048 A 
HETATM    8  C12 UNL     1      25.148  -0.216  53.053  1.00  0.00     0.067 C 
HETATM    9  C13 UNL     1      25.895   0.802  52.599  1.00  0.00     0.097 C 
ENDROOT
BRANCH   1  10
HETATM   10  N2  UNL     1      26.082   2.824  51.423  1.00  0.00    -0.321 N 
HETATM   11  C5  UNL     1      25.927   3.279  50.094  1.00  0.00     0.245 C 
HETATM   12  O1  UNL     1      24.929   3.015  49.386  1.00  0.00    -0.268 OA
HETATM   13  H9  UNL     1      27.010   3.223  51.700  1.00  0.00     0.169 HD
BRANCH  11  14
HETATM   14  C4  UNL     1      26.766   4.084  49.261  1.00  0.00     0.072 C 
HETATM   15  C3  UNL     1      26.478   5.362  49.310  1.00  0.00    -0.002 C 
BRANCH  15  16
HETATM   16  C2  UNL     1      27.185   6.407  48.552  1.00  0.00     0.141 C 
BRANCH  16  17
HETATM   17  N1  UNL     1      27.443   7.615  49.269  1.00  0.00    -0.422 N 
HETATM   18  C1  UNL     1      26.392   8.057  50.136  1.00  0.00     0.140 C 
HETATM   19  H4  UNL     1      28.392   7.686  49.670  1.00  0.00     0.153 HD
ENDBRANCH  16  17
ENDBRANCH  15  16
ENDBRANCH  11  14
ENDBRANCH   1  10
BRANCH   9  20
HETATM   20  O2  UNL     1      27.262   0.626  52.524  1.00  0.00    -0.346 OA
BRANCH  20  21
HETATM   21  C14 UNL     1      28.026   0.553  53.708  1.00  0.00     0.207 C 
BRANCH  21  22
HETATM   22  C15 UNL     1      28.998  -0.603  53.682  1.00  0.00     0.248 C 
HETATM   23  F1  UNL     1      30.240  -0.169  53.302  1.00  0.00    -0.253 F 
ENDBRANCH  21  22
ENDBRANCH  20  21
ENDBRANCH   9  20
TORSDOF 7
ENDMDL
MODEL 4
REMARK VINA RESULT:      -6.2      2.383      6.079
REMARK  7 active torsions:
REMARK  status: ('A' for Active; 'I' for Inactive)
REMARK    1  A    between atoms: N1_2  and  C2_3 
REMARK    2  A    between atoms: C2_3  and  C3_4 
REMARK    3  A    between atoms: C4_5  and  C5_6 
REMARK       I    between atoms: C5_6  and  N2_8 
REMARK    4  A    between atoms: N2_8  and  C6_9 
REMARK    5  A    between atoms: C13_17  and  O2_18 
REMARK    6  A    between atoms: O2_18  and  C14_19 
REMARK    7  A    between atoms: C14_19  and  C15_20 
ROOT
HETATM    1  C6  UNL     1      23.519   2.458  51.649  1.00  0.00     0.066 C 
HETATM    2  C7  UNL     1      23.637   3.106  50.520  1.00  0.00     0.020 C 
HETATM    3  C8  UNL     1      22.452   2.865  49.720  1.00  0.00     0.086 A 
HETATM    4  C9  UNL     1      22.521   3.102  48.269  1.00  0.00     0.007 A 
HETATM    5  C10 UNL     1      22.053   1.984  47.688  1.00  0.00     0.114 A 
HETATM    6  N3  UNL     1      21.691   1.026  48.668  1.00  0.00    -0.265 NA
HETATM    7  C11 UNL     1      21.921   1.515  49.846  1.00  0.00     0.048 A 
HETATM    8  C12 UNL     1      21.807   0.888  51.142  1.00  0.00     0.067 C 
HETATM    9  C13 UNL     1      22.652   1.377  52.063  1.00  0.00     0.097 C 
ENDROOT
BRANCH   1  10
HETATM   10  N2  UNL     1      24.586   2.585  52.616  1.00  0.00    -0.321 N 
HETATM   11  C5  UNL     1      25.897   2.058  52.579  1.00  0.00     0.245 C 
HETATM   12  O1  UNL     1      26.334   1.360  51.636  1.00  0.00    -0.268 OA
HETATM   13  H9  UNL     1      24.567   3.103  53.525  1.00  0.00     0.169 HD
BRANCH  11  14
HETATM   14  C4  UNL     1      26.987   2.156  53.500  1.00  0.00     0.072 C 
HETATM   15  C3  UNL     1      27.937   1.280  53.278  1.00  0.00    -0.002 C 
BRANCH  15  16
HETATM   16  C2  UNL     1      29.168   1.164  54.076  1.00  0.00     0.141 C 
BRANCH  16  17
HETATM   17  N1  UNL     1      30.174   0.310  53.529  1.00  0.00    -0.422 N 
HETATM   18  C1  UNL     1      29.934  -1.096  53.662  1.00  0.00     0.140 C 
HETATM   19  H4  UNL     1      30.533   0.602  52.605  1.00  0.00     0.153 HD
ENDBRANCH  16  17
ENDBRANCH  15  16
ENDBRANCH  11  14
ENDBRANCH   1  10
BRANCH   9  20
HETATM   20  O2  UNL     1      22.633   0.820  53.326  1.00  0.00    -0.346 OA
BRANCH  20  21
HETATM   21  C14 UNL     1      22.427  -0.568  53.478  1.00  0.00     0.207 C 
BRANCH  21  22
HETATM   22  C15 UNL     1      21.686  -0.892  54.754  1.00  0.00     0.248 C 
HETATM   23  F1  UNL     1      21.064   0.227  55.238  1.00  0.00    -0.253 F 
ENDBRANCH  21  22
ENDBRANCH  20  21
ENDBRANCH   9  20
TORSDOF 7
ENDMDL
MODEL 5
REMARK VINA RESULT:      -6.1      2.847      5.543
REMARK  7 active torsions:
REMARK  status: ('A' for Active; 'I' for Inactive)
REMARK    1  A    between atoms: N1_2  and  C2_3 
REMARK    2  A    between atoms: C2_3  and  C3_4 
REMARK    3  A    between atoms: C4_5  and  C5_6 
REMARK       I    between atoms: C5_6  and  N2_8 
REMARK    4  A    between atoms: N2_8  and  C6_9 
REMARK    5  A    between atoms: C13_17  and  O2_18 
REMARK    6  A    between atoms: O2_18  and  C14_19 
REMARK    7  A    between atoms: C14_19  and  C15_20 
ROOT
HETATM    1  C6  UNL     1      24.108   0.461  53.515  1.00  0.00     0.066 C 
HETATM    2  C7  UNL     1      25.078  -0.331  53.889  1.00  0.00     0.020 C 
HETATM    3  C8  UNL     1      26.274   0.463  54.093  1.00  0.00     0.086 A 
HETATM    4  C9  UNL     1      27.581  -0.214  54.081  1.00  0.00     0.007 A 
HETATM    5  C10 UNL     1      28.348   0.475  53.218  1.00  0.00     0.114 A 
HETATM    6  N3  UNL     1      27.621   1.556  52.658  1.00  0.00    -0.265 NA
HETATM    7  C11 UNL     1      26.421   1.560  53.146  1.00  0.00     0.048 A 
HETATM    8  C12 UNL     1      25.293   2.398  52.812  1.00  0.00     0.067 C 
HETATM    9  C13 UNL     1      24.101   1.811  52.994  1.00  0.00     0.097 C 
ENDROOT
BRANCH   1  10
HETATM   10  N2  UNL     1      22.807  -0.126  53.284  1.00  0.00    -0.321 N 
HETATM   11  C5  UNL     1      21.983  -0.854  54.171  1.00  0.00     0.245 C 
HETATM   12  O1  UNL     1      22.297  -1.107  55.356  1.00  0.00    -0.268 OA
HETATM   13  H9  UNL     1      22.243  -0.106  52.402  1.00  0.00     0.169 HD
BRANCH  11  14
HETATM   14  C4  UNL     1      20.694  -1.450  53.997  1.00  0.00     0.072 C 
HETATM   15  C3  UNL     1      19.812  -0.639  53.463  1.00  0.00    -0.002 C 
BRANCH  15  16
HETATM   16  C2  UNL     1      18.414  -0.997  53.176  1.00  0.00     0.141 C 
BRANCH  16  17
HETATM   17  N1  UNL     1      17.834  -1.956  54.062  1.00  0.00    -0.422 N 
HETATM   18  C1  UNL     1      17.434  -3.192  53.460  1.00  0.00     0.140 C 
HETATM   19  H4  UNL     1      18.316  -2.053  54.971  1.00  0.00     0.153 HD
ENDBRANCH  16  17
ENDBRANCH  15  16
ENDBRANCH  11  14
ENDBRANCH   1  10
BRANCH   9  20
HETATM   20  O2  UNL     1      22.965   2.527  52.675  1.00  0.00    -0.346 OA
BRANCH  20  21
HETATM   21  C14 UNL     1      23.081   3.845  52.185  1.00  0.00     0.207 C 
BRANCH  21  22
HETATM   22  C15 UNL     1      22.445   4.000  50.823  1.00  0.00     0.248 C 
HETATM   23  F1  UNL     1      21.082   3.924  50.926  1.00  0.00    -0.253 F 
ENDBRANCH  21  22
ENDBRANCH  20  21
ENDBRANCH   9  20
TORSDOF 7
ENDMDL
MODEL 6
REMARK VINA RESULT:      -6.1      2.175      6.353
REMARK  7 active torsions:
REMARK  status: ('A' for Active; 'I' for Inactive)
REMARK    1  A    between atoms: N1_2  and  C2_3 
REMARK    2  A    between atoms: C2_3  and  C3_4 
REMARK    3  A    between atoms: C4_5  and  C5_6 
REMARK       I    between atoms: C5_6  and  N2_8 
REMARK    4  A    between atoms: N2_8  and  C6_9 
REMARK    5  A    between atoms: C13_17  and  O2_18 
REMARK    6  A    between atoms: O2_18  and  C14_19 
REMARK    7  A    between atoms: C14_19  and  C15_20 
ROOT
HETATM    1  C6  UNL     1      22.673   1.997  52.103  1.00  0.00     0.066 C 
HETATM    2  C7  UNL     1      22.418   3.041  51.360  1.00  0.00     0.020 C 
HETATM    3  C8  UNL     1      21.219   3.686  51.860  1.00  0.00     0.086 A 
HETATM    4  C9  UNL     1      20.481   4.593  50.966  1.00  0.00     0.007 A 
HETATM    5  C10 UNL     1      19.201   4.185  50.999  1.00  0.00     0.114 A 
HETATM    6  N3  UNL     1      19.057   3.062  51.853  1.00  0.00    -0.265 NA
HETATM    7  C11 UNL     1      20.213   2.756  52.352  1.00  0.00     0.048 A 
HETATM    8  C12 UNL     1      20.588   1.641  53.189  1.00  0.00     0.067 C 
HETATM    9  C13 UNL     1      21.862   1.249  53.039  1.00  0.00     0.097 C 
ENDROOT
BRANCH   1  10
HETATM   10  N2  UNL     1      23.852   1.219  51.795  1.00  0.00    -0.321 N 
HETATM   11  C5  UNL     1      25.167   1.350  52.293  1.00  0.00     0.245 C 
HETATM   12  O1  UNL     1      25.507   2.221  53.125  1.00  0.00    -0.268 OA
HETATM   13  H9  UNL     1      23.929   0.408  51.137  1.00  0.00     0.169 HD
BRANCH  11  14
HETATM   14  C4  UNL     1      26.362   0.610  52.027  1.00  0.00     0.072 C 
HETATM   15  C3  UNL     1      26.644  -0.276  52.952  1.00  0.00    -0.002 C 
BRANCH  15  16
HETATM   16  C2  UNL     1      27.814  -1.168  52.925  1.00  0.00     0.141 C 
BRANCH  16  17
HETATM   17  N1  UNL     1      28.809  -0.904  53.915  1.00  0.00    -0.422 N 
HETATM   18  C1  UNL     1      28.473   0.101  54.879  1.00  0.00     0.140 C 
HETATM   19  H4  UNL     1      29.262  -1.745  54.307  1.00  0.00     0.153 HD
ENDBRANCH  16  17
ENDBRANCH  15  16
ENDBRANCH  11  14
ENDBRANCH   1  10
BRANCH   9  20
HETATM   20  O2  UNL     1      22.305   0.171  53.780  1.00  0.00    -0.346 OA
BRANCH  20  21
HETATM   21  C14 UNL     1      21.456  -0.412  54.745  1.00  0.00     0.207 C 
BRANCH  21  22
HETATM   22  C15 UNL     1      21.115  -1.844  54.404  1.00  0.00     0.248 C 
HETATM   23  F1  UNL     1      19.821  -1.931  53.965  1.00  0.00    -0.253 F 
ENDBRANCH  21  22
ENDBRANCH  20  21
ENDBRANCH   9  20
TORSDOF 7
ENDMDL
MODEL 7
REMARK VINA RESULT:      -6.1      2.769      6.637
REMARK  7 active torsions:
REMARK  status: ('A' for Active; 'I' for Inactive)
REMARK    1  A    between atoms: N1_2  and  C2_3 
REMARK    2  A    between atoms: C2_3  and  C3_4 
REMARK    3  A    between atoms: C4_5  and  C5_6 
REMARK       I    between atoms: C5_6  and  N2_8 
REMARK    4  A    between atoms: N2_8  and  C6_9 
REMARK    5  A    between atoms: C13_17  and  O2_18 
REMARK    6  A    between atoms: O2_18  and  C14_19 
REMARK    7  A    between atoms: C14_19  and  C15_20 
ROOT
HETATM    1  C6  UNL     1      23.117   0.342  53.103  1.00  0.00     0.066 C 
HETATM    2  C7  UNL     1      22.318  -0.389  53.833  1.00  0.00     0.020 C 
HETATM    3  C8  UNL     1      21.182  -0.786  53.023  1.00  0.00     0.086 A 
HETATM    4  C9  UNL     1      19.950  -1.222  53.700  1.00  0.00     0.007 A 
HETATM    5  C10 UNL     1      18.953  -0.504  53.156  1.00  0.00     0.114 A 
HETATM    6  N3  UNL     1      19.457   0.383  52.171  1.00  0.00    -0.265 NA
HETATM    7  C11 UNL     1      20.742   0.239  52.086  1.00  0.00     0.048 A 
HETATM    8  C12 UNL     1      21.702   0.981  51.304  1.00  0.00     0.067 C 
HETATM    9  C13 UNL     1      22.926   1.039  51.850  1.00  0.00     0.097 C 
ENDROOT
BRANCH   1  10
HETATM   10  N2  UNL     1      24.338   0.822  53.712  1.00  0.00    -0.321 N 
HETATM   11  C5  UNL     1      25.570   0.156  53.897  1.00  0.00     0.245 C 
HETATM   12  O1  UNL     1      25.778  -1.024  53.533  1.00  0.00    -0.268 OA
HETATM   13  H9  UNL     1      24.518   1.767  54.126  1.00  0.00     0.169 HD
BRANCH  11  14
HETATM   14  C4  UNL     1      26.802   0.582  54.485  1.00  0.00     0.072 C 
HETATM   15  C3  UNL     1      27.776   0.715  53.617  1.00  0.00    -0.002 C 
BRANCH  15  16
HETATM   16  C2  UNL     1      29.143   1.140  53.956  1.00  0.00     0.141 C 
BRANCH  16  17
HETATM   17  N1  UNL     1      30.186   0.295  53.467  1.00  0.00    -0.422 N 
HETATM   18  C1  UNL     1      29.989  -1.110  53.665  1.00  0.00     0.140 C 
HETATM   19  H4  UNL     1      30.552   0.553  52.536  1.00  0.00     0.153 HD
ENDBRANCH  16  17
ENDBRANCH  15  16
ENDBRANCH  11  14
ENDBRANCH   1  10
BRANCH   9  20
HETATM   20  O2  UNL     1      23.905   1.751  51.186  1.00  0.00    -0.346 OA
BRANCH  20  21
HETATM   21  C14 UNL     1      23.694   3.112  50.878  1.00  0.00     0.207 C 
BRANCH  21  22
HETATM   22  C15 UNL     1      23.814   3.993  52.100  1.00  0.00     0.248 C 
HETATM   23  F1  UNL     1      22.644   4.672  52.311  1.00  0.00    -0.253 F 
ENDBRANCH  21  22
ENDBRANCH  20  21
ENDBRANCH   9  20
TORSDOF 7
ENDMDL
MODEL 8
REMARK VINA RESULT:      -5.9      3.627      5.709
REMARK  7 active torsions:
REMARK  status: ('A' for Active; 'I' for Inactive)
REMARK    1  A    between atoms: N1_2  and  C2_3 
REMARK    2  A    between atoms: C2_3  and  C3_4 
REMARK    3  A    between atoms: C4_5  and  C5_6 
REMARK       I    between atoms: C5_6  and  N2_8 
REMARK    4  A    between atoms: N2_8  and  C6_9 
REMARK    5  A    between atoms: C13_17  and  O2_18 
REMARK    6  A    between atoms: O2_18  and  C14_19 
REMARK    7  A    between atoms: C14_19  and  C15_20 
ROOT
HETATM    1  C6  UNL     1      23.743   3.736  51.843  1.00  0.00     0.066 C 
HETATM    2  C7  UNL     1      22.624   4.275  51.436  1.00  0.00     0.020 C 
HETATM    3  C8  UNL     1      21.529   3.702  52.195  1.00  0.00     0.086 A 
HETATM    4  C9  UNL     1      20.166   3.798  51.648  1.00  0.00     0.007 A 
HETATM    5  C10 UNL     1      19.665   2.552  51.680  1.00  0.00     0.114 A 
HETATM    6  N3  UNL     1      20.618   1.643  52.205  1.00  0.00    -0.265 NA
HETATM    7  C11 UNL     1      21.703   2.289  52.501  1.00  0.00     0.048 A 
HETATM    8  C12 UNL     1      22.974   1.788  52.967  1.00  0.00     0.067 C 
HETATM    9  C13 UNL     1      24.025   2.540  52.607  1.00  0.00     0.097 C 
ENDROOT
BRANCH   1  10
HETATM   10  N2  UNL     1      24.972   4.191  51.234  1.00  0.00    -0.321 N 
HETATM   11  C5  UNL     1      25.498   3.905  49.954  1.00  0.00     0.245 C 
HETATM   12  O1  UNL     1      24.926   3.164  49.122  1.00  0.00    -0.268 OA
HETATM   13  H9  UNL     1      25.695   4.826  51.648  1.00  0.00     0.169 HD
BRANCH  11  14
HETATM   14  C4  UNL     1      26.700   4.329  49.303  1.00  0.00     0.072 C 
HETATM   15  C3  UNL     1      26.676   5.586  48.931  1.00  0.00    -0.002 C 
BRANCH  15  16
HETATM   16  C2  UNL     1      27.779   6.274  48.243  1.00  0.00     0.141 C 
BRANCH  16  17
HETATM   17  N1  UNL     1      29.061   6.143  48.859  1.00  0.00    -0.422 N 
HETATM   18  C1  UNL     1      30.104   5.637  48.018  1.00  0.00     0.140 C 
HETATM   19  H4  UNL     1      29.336   6.938  49.459  1.00  0.00     0.153 HD
ENDBRANCH  16  17
ENDBRANCH  15  16
ENDBRANCH  11  14
ENDBRANCH   1  10
BRANCH   9  20
HETATM   20  O2  UNL     1      25.286   2.125  52.986  1.00  0.00    -0.346 OA
BRANCH  20  21
HETATM   21  C14 UNL     1      25.593   0.748  53.008  1.00  0.00     0.207 C 
BRANCH  21  22
HETATM   22  C15 UNL     1      26.618   0.382  51.960  1.00  0.00     0.248 C 
HETATM   23  F1  UNL     1      26.657  -0.976  51.789  1.00  0.00    -0.253 F 
ENDBRANCH  21  22
ENDBRANCH  20  21
ENDBRANCH   9  20
TORSDOF 7
ENDMDL
MODEL 9
REMARK VINA RESULT:      -5.9      2.808      3.458
REMARK  7 active torsions:
REMARK  status: ('A' for Active; 'I' for Inactive)
REMARK    1  A    between atoms: N1_2  and  C2_3 
REMARK    2  A    between atoms: C2_3  and  C3_4 
REMARK    3  A    between atoms: C4_5  and  C5_6 
REMARK       I    between atoms: C5_6  and  N2_8 
REMARK    4  A    between atoms: N2_8  and  C6_9 
REMARK    5  A    between atoms: C13_17  and  O2_18 
REMARK    6  A    between atoms: O2_18  and  C14_19 
REMARK    7  A    between atoms: C14_19  and  C15_20 
ROOT
HETATM    1  C6  UNL     1      25.468   2.150  51.871  1.00  0.00     0.066 C 
HETATM    2  C7  UNL     1      26.542   1.419  51.735  1.00  0.00     0.020 C 
HETATM    3  C8  UNL     1      26.223   0.053  52.103  1.00  0.00     0.086 A 
HETATM    4  C9  UNL     1      27.325  -0.856  52.460  1.00  0.00     0.007 A 
HETATM    5  C10 UNL     1      26.986  -1.403  53.640  1.00  0.00     0.114 A 
HETATM    6  N3  UNL     1      25.735  -0.901  54.082  1.00  0.00    -0.265 NA
HETATM    7  C11 UNL     1      25.284  -0.055  53.210  1.00  0.00     0.048 A 
HETATM    8  C12 UNL     1      24.109   0.783  53.262  1.00  0.00     0.067 C 
HETATM    9  C13 UNL     1      24.223   1.930  52.575  1.00  0.00     0.097 C 
ENDROOT
BRANCH   1  10
HETATM   10  N2  UNL     1      25.556   3.551  51.526  1.00  0.00    -0.321 N 
HETATM   11  C5  UNL     1      25.455   4.171  50.261  1.00  0.00     0.245 C 
HETATM   12  O1  UNL     1      25.265   3.541  49.196  1.00  0.00    -0.268 OA
HETATM   13  H9  UNL     1      25.710   4.361  52.172  1.00  0.00     0.169 HD
BRANCH  11  14
HETATM   14  C4  UNL     1      25.530   5.544  49.866  1.00  0.00     0.072 C 
HETATM   15  C3  UNL     1      26.596   5.825  49.154  1.00  0.00    -0.002 C 
BRANCH  15  16
HETATM   16  C2  UNL     1      26.916   7.158  48.622  1.00  0.00     0.141 C 
BRANCH  16  17
HETATM   17  N1  UNL     1      27.788   7.948  49.432  1.00  0.00    -0.422 N 
HETATM   18  C1  UNL     1      27.180   9.067  50.087  1.00  0.00     0.140 C 
HETATM   19  H4  UNL     1      28.442   7.405  50.019  1.00  0.00     0.153 HD
ENDBRANCH  16  17
ENDBRANCH  15  16
ENDBRANCH  11  14
ENDBRANCH   1  10
BRANCH   9  20
HETATM   20  O2  UNL     1      23.158   2.807  52.589  1.00  0.00    -0.346 OA
BRANCH  20  21
HETATM   21  C14 UNL     1      22.335   2.929  51.450  1.00  0.00     0.207 C 
BRANCH  21  22
HETATM   22  C15 UNL     1      22.005   1.584  50.845  1.00  0.00     0.248 C 
HETATM   23  F1  UNL     1      22.583   1.465  49.610  1.00  0.00    -0.253 F 
ENDBRANCH  21  22
ENDBRANCH  20  21
ENDBRANCH   9  20
TORSDOF 7
ENDMDL
