MODEL 1
REMARK VINA RESULT:      -8.7      0.000      0.000
REMARK  2 active torsions:
REMARK  status: ('A' for Active; 'I' for Inactive)
REMARK    1  A    between atoms: C5_6  and  C6_7 
REMARK    2  A    between atoms: C17_22  and  S1_23 
ROOT
HETATM    1  C1  UNL     1      29.764  -0.738  53.422  1.00  0.00     0.050 C 
HETATM    2  C2  UNL     1      28.361  -0.327  53.389  1.00  0.00    -0.040 C 
HETATM    3  C3  UNL     1      27.613  -0.883  54.390  1.00  0.00     0.148 C 
HETATM    4  O1  UNL     1      26.300  -0.533  54.895  1.00  0.00    -0.326 OA
HETATM    5  C4  UNL     1      25.477   0.505  54.371  1.00  0.00     0.063 C 
HETATM    6  C5  UNL     1      24.249   0.163  54.033  1.00  0.00     0.019 C 
HETATM    7  C7  UNL     1      23.657   0.867  52.873  1.00  0.00     0.023 A 
HETATM    8  C8  UNL     1      24.419   1.816  52.225  1.00  0.00     0.073 A 
HETATM    9  O3  UNL     1      23.589   2.228  51.297  1.00  0.00    -0.312 OA
HETATM   10  C9  UNL     1      22.433   1.628  51.329  1.00  0.00     0.118 A 
HETATM   11  C10 UNL     1      22.403   0.703  52.359  1.00  0.00     0.062 A 
HETATM   12  C11 UNL     1      21.150  -0.012  52.491  1.00  0.00     0.196 A 
HETATM   13  O4  UNL     1      20.793  -0.897  53.296  1.00  0.00    -0.287 OA
HETATM   14  C12 UNL     1      20.343   0.558  51.415  1.00  0.00     0.044 A 
HETATM   15  C13 UNL     1      19.089   0.233  51.141  1.00  0.00     0.015 C 
HETATM   16  C14 UNL     1      18.210   0.757  50.083  1.00  0.00    -0.001 C 
HETATM   17  C15 UNL     1      18.468   1.940  49.495  1.00  0.00    -0.001 C 
HETATM   18  C16 UNL     1      19.530   2.952  49.668  1.00  0.00     0.198 C 
HETATM   19  O5  UNL     1      20.386   2.740  50.717  1.00  0.00    -0.355 OA
HETATM   20  C17 UNL     1      21.123   1.590  50.638  1.00  0.00     0.188 A 
HETATM   21  C18 UNL     1      25.832   2.134  52.649  1.00  0.00     0.072 C 
HETATM   22  C19 UNL     1      26.853   1.353  51.963  1.00  0.00    -0.014 C 
HETATM   23  C20 UNL     1      27.916   0.603  52.320  1.00  0.00     0.005 C 
HETATM   24  C21 UNL     1      25.854   1.959  54.154  1.00  0.00     0.081 C 
ENDROOT
BRANCH   6  25
HETATM   25  C6  UNL     1      23.738  -0.898  54.863  1.00  0.00     0.433 C 
HETATM   26  O2  UNL     1      22.991  -1.497  55.661  1.00  0.00    -0.426 OA
ENDBRANCH   6  25
BRANCH  20  27
HETATM   27  S1  UNL     1      21.409   1.036  48.944  1.00  0.00    -0.132 SA
HETATM   28  H11 UNL     1      22.371   1.891  48.375  1.00  0.00     0.105 HD
ENDBRANCH  20  27
TORSDOF 2
ENDMDL
MODEL 2
REMARK VINA RESULT:      -8.5      1.910      7.476
REMARK  2 active torsions:
REMARK  status: ('A' for Active; 'I' for Inactive)
REMARK    1  A    between atoms: C5_6  and  C6_7 
REMARK    2  A    between atoms: C17_22  and  S1_23 
ROOT
HETATM    1  C1  UNL     1      17.455   0.361  49.745  1.00  0.00     0.050 C 
HETATM    2  C2  UNL     1      18.694   0.772  50.403  1.00  0.00    -0.040 C 
HETATM    3  C3  UNL     1      19.163   1.980  49.965  1.00  0.00     0.148 C 
HETATM    4  O1  UNL     1      20.154   2.871  50.531  1.00  0.00    -0.326 OA
HETATM    5  C4  UNL     1      20.902   2.609  51.715  1.00  0.00     0.063 C 
HETATM    6  C5  UNL     1      22.214   2.700  51.609  1.00  0.00     0.019 C 
HETATM    7  C7  UNL     1      23.015   1.772  52.440  1.00  0.00     0.023 A 
HETATM    8  C8  UNL     1      22.349   0.880  53.252  1.00  0.00     0.073 A 
HETATM    9  O3  UNL     1      23.348   0.258  53.833  1.00  0.00    -0.312 OA
HETATM   10  C9  UNL     1      24.517   0.685  53.450  1.00  0.00     0.118 A 
HETATM   11  C10 UNL     1      24.376   1.700  52.519  1.00  0.00     0.062 A 
HETATM   12  C11 UNL     1      25.625   2.255  52.038  1.00  0.00     0.196 A 
HETATM   13  O4  UNL     1      25.853   3.162  51.210  1.00  0.00    -0.287 OA
HETATM   14  C12 UNL     1      26.621   1.482  52.773  1.00  0.00     0.044 A 
HETATM   15  C13 UNL     1      27.934   1.641  52.687  1.00  0.00     0.015 C 
HETATM   16  C14 UNL     1      29.000   0.909  53.389  1.00  0.00    -0.001 C 
HETATM   17  C15 UNL     1      28.740   0.229  54.522  1.00  0.00    -0.001 C 
HETATM   18  C16 UNL     1      27.516   0.014  55.321  1.00  0.00     0.198 C 
HETATM   19  O5  UNL     1      26.418   0.734  54.929  1.00  0.00    -0.355 OA
HETATM   20  C17 UNL     1      25.966   0.459  53.668  1.00  0.00     0.188 A 
HETATM   21  C18 UNL     1      20.841   0.811  53.299  1.00  0.00     0.072 C 
HETATM   22  C19 UNL     1      20.257  -0.142  52.365  1.00  0.00    -0.014 C 
HETATM   23  C20 UNL     1      19.289  -0.125  51.426  1.00  0.00     0.005 C 
HETATM   24  C21 UNL     1      20.363   2.232  53.083  1.00  0.00     0.081 C 
ENDROOT
BRANCH   6  25
HETATM   25  C6  UNL     1      22.608   3.687  50.635  1.00  0.00     0.433 C 
HETATM   26  O2  UNL     1      23.155   4.700  50.159  1.00  0.00    -0.426 OA
ENDBRANCH   6  25
BRANCH  20  27
HETATM   27  S1  UNL     1      26.352  -1.217  53.117  1.00  0.00    -0.132 SA
HETATM   28  H11 UNL     1      25.965  -2.099  54.143  1.00  0.00     0.105 HD
ENDBRANCH  20  27
TORSDOF 2
ENDMDL
MODEL 3
REMARK VINA RESULT:      -8.2      1.921      7.082
REMARK  2 active torsions:
REMARK  status: ('A' for Active; 'I' for Inactive)
REMARK    1  A    between atoms: C5_6  and  C6_7 
REMARK    2  A    between atoms: C17_22  and  S1_23 
ROOT
HETATM    1  C1  UNL     1      16.636   4.239  50.718  1.00  0.00     0.050 C 
HETATM    2  C2  UNL     1      17.785   3.364  50.941  1.00  0.00    -0.040 C 
HETATM    3  C3  UNL     1      17.458   2.193  51.567  1.00  0.00     0.148 C 
HETATM    4  O1  UNL     1      18.201   0.958  51.711  1.00  0.00    -0.326 OA
HETATM    5  C4  UNL     1      19.523   0.742  51.223  1.00  0.00     0.063 C 
HETATM    6  C5  UNL     1      20.406   0.305  52.100  1.00  0.00     0.019 C 
HETATM    7  C7  UNL     1      21.801   0.772  51.929  1.00  0.00     0.023 A 
HETATM    8  C8  UNL     1      22.082   1.625  50.884  1.00  0.00     0.073 A 
HETATM    9  O3  UNL     1      23.373   1.801  51.030  1.00  0.00    -0.312 OA
HETATM   10  C9  UNL     1      23.875   1.149  52.040  1.00  0.00     0.118 A 
HETATM   11  C10 UNL     1      22.883   0.435  52.690  1.00  0.00     0.062 A 
HETATM   12  C11 UNL     1      23.342  -0.339  53.825  1.00  0.00     0.196 A 
HETATM   13  O4  UNL     1      22.721  -1.078  54.617  1.00  0.00    -0.287 OA
HETATM   14  C12 UNL     1      24.773  -0.053  53.848  1.00  0.00     0.044 A 
HETATM   15  C13 UNL     1      25.644  -0.558  54.709  1.00  0.00     0.015 C 
HETATM   16  C14 UNL     1      27.094  -0.324  54.800  1.00  0.00    -0.001 C 
HETATM   17  C15 UNL     1      27.784   0.149  53.745  1.00  0.00    -0.001 C 
HETATM   18  C16 UNL     1      27.404   0.531  52.369  1.00  0.00     0.198 C 
HETATM   19  O5  UNL     1      26.110   0.252  52.012  1.00  0.00    -0.355 OA
HETATM   20  C17 UNL     1      25.156   0.903  52.745  1.00  0.00     0.188 A 
HETATM   21  C18 UNL     1      21.012   2.109  49.935  1.00  0.00     0.072 C 
HETATM   22  C19 UNL     1      20.384   3.363  50.330  1.00  0.00    -0.014 C 
HETATM   23  C20 UNL     1      19.125   3.820  50.492  1.00  0.00     0.005 C 
HETATM   24  C21 UNL     1      20.031   0.962  49.809  1.00  0.00     0.081 C 
ENDROOT
BRANCH   6  25
HETATM   25  C6  UNL     1      19.797  -0.526  53.108  1.00  0.00     0.433 C 
HETATM   26  O2  UNL     1      19.555  -1.538  53.793  1.00  0.00    -0.426 OA
ENDBRANCH   6  25
BRANCH  20  27
HETATM   27  S1  UNL     1      25.722   2.476  53.426  1.00  0.00    -0.132 SA
HETATM   28  H11 UNL     1      26.923   2.230  54.118  1.00  0.00     0.105 HD
ENDBRANCH  20  27
TORSDOF 2
ENDMDL
MODEL 4
REMARK VINA RESULT:      -8.1      1.497      1.992
REMARK  2 active torsions:
REMARK  status: ('A' for Active; 'I' for Inactive)
REMARK    1  A    between atoms: C5_6  and  C6_7 
REMARK    2  A    between atoms: C17_22  and  S1_23 
ROOT
HETATM    1  C1  UNL     1      28.639  -1.227  53.229  1.00  0.00     0.050 C 
HETATM    2  C2  UNL     1      27.383  -0.526  52.974  1.00  0.00    -0.040 C 
HETATM    3  C3  UNL     1      26.331  -1.024  53.694  1.00  0.00     0.148 C 
HETATM    4  O1  UNL     1      25.023  -0.465  53.966  1.00  0.00    -0.326 OA
HETATM    5  C4  UNL     1      24.548   0.780  53.460  1.00  0.00     0.063 C 
HETATM    6  C5  UNL     1      23.393   0.749  52.824  1.00  0.00     0.019 C 
HETATM    7  C7  UNL     1      23.228   1.696  51.697  1.00  0.00     0.023 A 
HETATM    8  C8  UNL     1      24.280   2.530  51.385  1.00  0.00     0.073 A 
HETATM    9  O3  UNL     1      23.780   3.216  50.384  1.00  0.00    -0.312 OA
HETATM   10  C9  UNL     1      22.561   2.877  50.079  1.00  0.00     0.118 A 
HETATM   11  C10 UNL     1      22.122   1.865  50.916  1.00  0.00     0.062 A 
HETATM   12  C11 UNL     1      20.765   1.422  50.667  1.00  0.00     0.196 A 
HETATM   13  O4  UNL     1      20.074   0.544  51.225  1.00  0.00    -0.287 OA
HETATM   14  C12 UNL     1      20.351   2.274  49.556  1.00  0.00     0.044 A 
HETATM   15  C13 UNL     1      19.159   2.258  48.979  1.00  0.00     0.015 C 
HETATM   16  C14 UNL     1      18.663   3.079  47.862  1.00  0.00    -0.001 C 
HETATM   17  C15 UNL     1      19.262   4.241  47.540  1.00  0.00    -0.001 C 
HETATM   18  C16 UNL     1      20.419   4.976  48.092  1.00  0.00     0.198 C 
HETATM   19  O5  UNL     1      20.952   4.463  49.247  1.00  0.00    -0.355 OA
HETATM   20  C17 UNL     1      21.465   3.201  49.135  1.00  0.00     0.188 A 
HETATM   21  C18 UNL     1      25.588   2.487  52.138  1.00  0.00     0.072 C 
HETATM   22  C19 UNL     1      26.582   1.593  51.560  1.00  0.00    -0.014 C 
HETATM   23  C20 UNL     1      27.377   0.597  52.002  1.00  0.00     0.005 C 
HETATM   24  C21 UNL     1      25.223   2.135  53.566  1.00  0.00     0.081 C 
ENDROOT
BRANCH   6  25
HETATM   25  C6  UNL     1      22.517  -0.269  53.347  1.00  0.00     0.433 C 
HETATM   26  O2  UNL     1      21.938  -1.368  53.448  1.00  0.00    -0.426 OA
ENDBRANCH   6  25
BRANCH  20  27
HETATM   27  S1  UNL     1      22.036   2.802  47.469  1.00  0.00    -0.132 SA
HETATM   28  H11 UNL     1      21.017   2.065  46.837  1.00  0.00     0.105 HD
ENDBRANCH  20  27
TORSDOF 2
ENDMDL
MODEL 5
REMARK VINA RESULT:      -7.9      2.501      3.806
REMARK  2 active torsions:
REMARK  status: ('A' for Active; 'I' for Inactive)
REMARK    1  A    between atoms: C5_6  and  C6_7 
REMARK    2  A    between atoms: C17_22  and  S1_23 
ROOT
HETATM    1  C1  UNL     1      27.182   4.360  48.964  1.00  0.00     0.050 C 
HETATM    2  C2  UNL     1      25.996   3.947  49.711  1.00  0.00    -0.040 C 
HETATM    3  C3  UNL     1      26.281   3.118  50.761  1.00  0.00     0.148 C 
HETATM    4  O1  UNL     1      25.477   2.724  51.900  1.00  0.00    -0.326 OA
HETATM    5  C4  UNL     1      24.129   3.131  52.124  1.00  0.00     0.063 C 
HETATM    6  C5  UNL     1      23.255   2.165  52.334  1.00  0.00     0.019 C 
HETATM    7  C7  UNL     1      21.883   2.388  51.826  1.00  0.00     0.023 A 
HETATM    8  C8  UNL     1      21.611   3.569  51.169  1.00  0.00     0.073 A 
HETATM    9  O3  UNL     1      20.337   3.427  50.892  1.00  0.00    -0.312 OA
HETATM   10  C9  UNL     1      19.837   2.300  51.311  1.00  0.00     0.118 A 
HETATM   11  C10 UNL     1      20.811   1.551  51.948  1.00  0.00     0.062 A 
HETATM   12  C11 UNL     1      20.351   0.278  52.465  1.00  0.00     0.196 A 
HETATM   13  O4  UNL     1      20.958  -0.624  53.078  1.00  0.00    -0.287 OA
HETATM   14  C12 UNL     1      18.939   0.276  52.095  1.00  0.00     0.044 A 
HETATM   15  C13 UNL     1      18.073  -0.687  52.376  1.00  0.00     0.015 C 
HETATM   16  C14 UNL     1      16.641  -0.766  52.042  1.00  0.00    -0.001 C 
HETATM   17  C15 UNL     1      15.941   0.342  51.736  1.00  0.00    -0.001 C 
HETATM   18  C16 UNL     1      16.294   1.774  51.643  1.00  0.00     0.198 C 
HETATM   19  O5  UNL     1      17.557   2.103  52.061  1.00  0.00    -0.355 OA
HETATM   20  C17 UNL     1      18.570   1.531  51.343  1.00  0.00     0.188 A 
HETATM   21  C18 UNL     1      22.672   4.618  50.937  1.00  0.00     0.072 C 
HETATM   22  C19 UNL     1      23.381   4.483  49.671  1.00  0.00    -0.014 C 
HETATM   23  C20 UNL     1      24.667   4.442  49.269  1.00  0.00     0.005 C 
HETATM   24  C21 UNL     1      23.584   4.547  52.145  1.00  0.00     0.081 C 
ENDROOT
BRANCH   6  25
HETATM   25  C6  UNL     1      23.853   1.032  52.996  1.00  0.00     0.433 C 
HETATM   26  O2  UNL     1      24.213  -0.144  53.195  1.00  0.00    -0.426 OA
ENDBRANCH   6  25
BRANCH  20  27
HETATM   27  S1  UNL     1      18.114   1.147  49.639  1.00  0.00    -0.132 SA
HETATM   28  H11 UNL     1      16.877   1.767  49.381  1.00  0.00     0.105 HD
ENDBRANCH  20  27
TORSDOF 2
ENDMDL
MODEL 6
REMARK VINA RESULT:      -7.9      6.360      8.404
REMARK  2 active torsions:
REMARK  status: ('A' for Active; 'I' for Inactive)
REMARK    1  A    between atoms: C5_6  and  C6_7 
REMARK    2  A    between atoms: C17_22  and  S1_23 
ROOT
HETATM    1  C1  UNL     1      27.483   9.421  43.489  1.00  0.00     0.050 C 
HETATM    2  C2  UNL     1      27.221   8.739  44.755  1.00  0.00    -0.040 C 
HETATM    3  C3  UNL     1      28.341   8.184  45.311  1.00  0.00     0.148 C 
HETATM    4  O1  UNL     1      28.588   7.694  46.651  1.00  0.00    -0.326 OA
HETATM    5  C4  UNL     1      27.621   7.664  47.697  1.00  0.00     0.063 C 
HETATM    6  C5  UNL     1      27.438   6.500  48.291  1.00  0.00     0.019 C 
HETATM    7  C7  UNL     1      26.066   6.199  48.760  1.00  0.00     0.023 A 
HETATM    8  C8  UNL     1      25.080   7.137  48.542  1.00  0.00     0.073 A 
HETATM    9  O3  UNL     1      24.041   6.556  49.091  1.00  0.00    -0.312 OA
HETATM   10  C9  UNL     1      24.308   5.388  49.602  1.00  0.00     0.118 A 
HETATM   11  C10 UNL     1      25.646   5.081  49.420  1.00  0.00     0.062 A 
HETATM   12  C11 UNL     1      26.051   3.802  49.967  1.00  0.00     0.196 A 
HETATM   13  O4  UNL     1      27.161   3.229  49.975  1.00  0.00    -0.287 OA
HETATM   14  C12 UNL     1      24.810   3.294  50.543  1.00  0.00     0.044 A 
HETATM   15  C13 UNL     1      24.675   2.145  51.188  1.00  0.00     0.015 C 
HETATM   16  C14 UNL     1      23.468   1.563  51.796  1.00  0.00    -0.001 C 
HETATM   17  C15 UNL     1      22.411   2.337  52.108  1.00  0.00    -0.001 C 
HETATM   18  C16 UNL     1      22.135   3.782  51.976  1.00  0.00     0.198 C 
HETATM   19  O5  UNL     1      23.190   4.553  51.565  1.00  0.00    -0.355 OA
HETATM   20  C17 UNL     1      23.670   4.258  50.319  1.00  0.00     0.188 A 
HETATM   21  C18 UNL     1      25.356   8.437  47.826  1.00  0.00     0.072 C 
HETATM   22  C19 UNL     1      25.137   8.386  46.386  1.00  0.00    -0.014 C 
HETATM   23  C20 UNL     1      25.831   8.716  45.278  1.00  0.00     0.005 C 
HETATM   24  C21 UNL     1      26.773   8.817  48.203  1.00  0.00     0.081 C 
ENDROOT
BRANCH   6  25
HETATM   25  C6  UNL     1      28.647   5.714  48.318  1.00  0.00     0.433 C 
HETATM   26  O2  UNL     1      29.734   5.262  48.726  1.00  0.00    -0.426 OA
ENDBRANCH   6  25
BRANCH  20  27
HETATM   27  S1  UNL     1      22.428   3.540  49.223  1.00  0.00    -0.132 SA
HETATM   28  H11 UNL     1      23.104   3.011  48.106  1.00  0.00     0.105 HD
ENDBRANCH  20  27
TORSDOF 2
ENDMDL
MODEL 7
REMARK VINA RESULT:      -7.8      9.534     11.573
REMARK  2 active torsions:
REMARK  status: ('A' for Active; 'I' for Inactive)
REMARK    1  A    between atoms: C5_6  and  C6_7 
REMARK    2  A    between atoms: C17_22  and  S1_23 
ROOT
HETATM    1  C1  UNL     1      34.799   3.607  45.860  1.00  0.00     0.050 C 
HETATM    2  C2  UNL     1      33.835   4.491  46.512  1.00  0.00    -0.040 C 
HETATM    3  C3  UNL     1      32.699   3.846  46.917  1.00  0.00     0.148 C 
HETATM    4  O1  UNL     1      31.653   4.256  47.832  1.00  0.00    -0.326 OA
HETATM    5  C4  UNL     1      31.600   5.517  48.494  1.00  0.00     0.063 C 
HETATM    6  C5  UNL     1      30.481   6.203  48.354  1.00  0.00     0.019 C 
HETATM    7  C7  UNL     1      30.606   7.678  48.312  1.00  0.00     0.023 A 
HETATM    8  C8  UNL     1      31.864   8.232  48.414  1.00  0.00     0.073 A 
HETATM    9  O3  UNL     1      31.590   9.513  48.362  1.00  0.00    -0.312 OA
HETATM   10  C9  UNL     1      30.318   9.768  48.242  1.00  0.00     0.118 A 
HETATM   11  C10 UNL     1      29.595   8.589  48.203  1.00  0.00     0.062 A 
HETATM   12  C11 UNL     1      28.162   8.764  48.084  1.00  0.00     0.196 A 
HETATM   13  O4  UNL     1      27.237   7.927  48.021  1.00  0.00    -0.287 OA
HETATM   14  C12 UNL     1      28.020  10.217  48.052  1.00  0.00     0.044 A 
HETATM   15  C13 UNL     1      26.873  10.875  47.972  1.00  0.00     0.015 C 
HETATM   16  C14 UNL     1      26.644  12.329  47.936  1.00  0.00    -0.001 C 
HETATM   17  C15 UNL     1      27.582  13.186  48.380  1.00  0.00    -0.001 C 
HETATM   18  C16 UNL     1      28.931  13.009  48.957  1.00  0.00     0.198 C 
HETATM   19  O5  UNL     1      29.297  11.716  49.224  1.00  0.00    -0.355 OA
HETATM   20  C17 UNL     1      29.365  10.897  48.130  1.00  0.00     0.188 A 
HETATM   21  C18 UNL     1      33.105   7.382  48.540  1.00  0.00     0.072 C 
HETATM   22  C19 UNL     1      33.736   7.050  47.269  1.00  0.00    -0.014 C 
HETATM   23  C20 UNL     1      34.172   5.931  46.656  1.00  0.00     0.005 C 
HETATM   24  C21 UNL     1      32.684   6.163  49.336  1.00  0.00     0.081 C 
ENDROOT
BRANCH   6  25
HETATM   25  C6  UNL     1      29.335   5.340  48.216  1.00  0.00     0.433 C 
HETATM   26  O2  UNL     1      28.291   4.732  48.522  1.00  0.00    -0.426 OA
ENDBRANCH   6  25
BRANCH  20  27
HETATM   27  S1  UNL     1      29.728  11.777  46.596  1.00  0.00    -0.132 SA
HETATM   28  H11 UNL     1      30.770  11.087  45.949  1.00  0.00     0.105 HD
ENDBRANCH  20  27
TORSDOF 2
ENDMDL
MODEL 8
REMARK VINA RESULT:      -7.8      3.469      6.197
REMARK  2 active torsions:
REMARK  status: ('A' for Active; 'I' for Inactive)
REMARK    1  A    between atoms: C5_6  and  C6_7 
REMARK    2  A    between atoms: C17_22  and  S1_23 
ROOT
HETATM    1  C1  UNL     1      23.657   7.763  46.620  1.00  0.00     0.050 C 
HETATM    2  C2  UNL     1      23.675   6.866  47.774  1.00  0.00    -0.040 C 
HETATM    3  C3  UNL     1      24.930   6.431  48.099  1.00  0.00     0.148 C 
HETATM    4  O1  UNL     1      25.428   5.794  49.301  1.00  0.00    -0.326 OA
HETATM    5  C4  UNL     1      24.629   5.445  50.428  1.00  0.00     0.063 C 
HETATM    6  C5  UNL     1      24.704   4.192  50.833  1.00  0.00     0.019 C 
HETATM    7  C7  UNL     1      23.469   3.598  51.393  1.00  0.00     0.023 A 
HETATM    8  C8  UNL     1      22.335   4.378  51.449  1.00  0.00     0.073 A 
HETATM    9  O3  UNL     1      21.478   3.554  52.003  1.00  0.00    -0.312 OA
HETATM   10  C9  UNL     1      21.983   2.385  52.276  1.00  0.00     0.118 A 
HETATM   11  C10 UNL     1      23.314   2.338  51.897  1.00  0.00     0.062 A 
HETATM   12  C11 UNL     1      23.975   1.079  52.170  1.00  0.00     0.196 A 
HETATM   13  O4  UNL     1      25.148   0.707  51.957  1.00  0.00    -0.287 OA
HETATM   14  C12 UNL     1      22.913   0.289  52.786  1.00  0.00     0.044 A 
HETATM   15  C13 UNL     1      23.041  -0.950  53.237  1.00  0.00     0.015 C 
HETATM   16  C14 UNL     1      22.027  -1.811  53.869  1.00  0.00    -0.001 C 
HETATM   17  C15 UNL     1      20.920  -1.282  54.423  1.00  0.00    -0.001 C 
HETATM   18  C16 UNL     1      20.417   0.099  54.570  1.00  0.00     0.198 C 
HETATM   19  O5  UNL     1      21.281   1.090  54.181  1.00  0.00    -0.355 OA
HETATM   20  C17 UNL     1      21.624   1.070  52.857  1.00  0.00     0.188 A 
HETATM   21  C18 UNL     1      22.313   5.798  50.937  1.00  0.00     0.072 C 
HETATM   22  C19 UNL     1      21.910   5.927  49.543  1.00  0.00    -0.014 C 
HETATM   23  C20 UNL     1      22.389   6.531  48.437  1.00  0.00     0.005 C 
HETATM   24  C21 UNL     1      23.697   6.350  51.213  1.00  0.00     0.081 C 
ENDROOT
BRANCH   6  25
HETATM   25  C6  UNL     1      26.008   3.626  50.591  1.00  0.00     0.433 C 
HETATM   26  O2  UNL     1      27.168   3.232  50.820  1.00  0.00    -0.426 OA
ENDBRANCH   6  25
BRANCH  20  27
HETATM   27  S1  UNL     1      20.364   0.324  51.800  1.00  0.00    -0.132 SA
HETATM   28  H11 UNL     1      20.971  -0.735  51.099  1.00  0.00     0.105 HD
ENDBRANCH  20  27
TORSDOF 2
ENDMDL
MODEL 9
REMARK VINA RESULT:      -7.8      2.599      7.893
REMARK  2 active torsions:
REMARK  status: ('A' for Active; 'I' for Inactive)
REMARK    1  A    between atoms: C5_6  and  C6_7 
REMARK    2  A    between atoms: C17_22  and  S1_23 
ROOT
HETATM    1  C1  UNL     1      12.995   1.713  52.448  1.00  0.00     0.050 C 
HETATM    2  C2  UNL     1      14.387   1.304  52.272  1.00  0.00    -0.040 C 
HETATM    3  C3  UNL     1      14.665   0.084  52.826  1.00  0.00     0.148 C 
HETATM    4  O1  UNL     1      15.793  -0.806  52.637  1.00  0.00    -0.326 OA
HETATM    5  C4  UNL     1      16.918  -0.528  51.807  1.00  0.00     0.063 C 
HETATM    6  C5  UNL     1      18.103  -0.632  52.377  1.00  0.00     0.019 C 
HETATM    7  C7  UNL     1      19.151   0.304  51.909  1.00  0.00     0.023 A 
HETATM    8  C8  UNL     1      18.823   1.215  50.928  1.00  0.00     0.073 A 
HETATM    9  O3  UNL     1      19.965   1.839  50.759  1.00  0.00    -0.312 OA
HETATM   10  C9  UNL     1      20.918   1.396  51.528  1.00  0.00     0.118 A 
HETATM   11  C10 UNL     1      20.449   0.366  52.326  1.00  0.00     0.062 A 
HETATM   12  C11 UNL     1      21.440  -0.208  53.214  1.00  0.00     0.196 A 
HETATM   13  O4  UNL     1      21.353  -1.131  54.050  1.00  0.00    -0.287 OA
HETATM   14  C12 UNL     1      22.635   0.570  52.902  1.00  0.00     0.044 A 
HETATM   15  C13 UNL     1      23.828   0.398  53.452  1.00  0.00     0.015 C 
HETATM   16  C14 UNL     1      25.077   1.134  53.195  1.00  0.00    -0.001 C 
HETATM   17  C15 UNL     1      25.243   1.836  52.058  1.00  0.00    -0.001 C 
HETATM   18  C16 UNL     1      24.389   2.076  50.877  1.00  0.00     0.198 C 
HETATM   19  O5  UNL     1      23.223   1.358  50.832  1.00  0.00    -0.355 OA
HETATM   20  C17 UNL     1      22.347   1.614  51.852  1.00  0.00     0.188 A 
HETATM   21  C18 UNL     1      17.434   1.298  50.343  1.00  0.00     0.072 C 
HETATM   22  C19 UNL     1      16.553   2.239  51.023  1.00  0.00    -0.014 C 
HETATM   23  C20 UNL     1      15.312   2.214  51.549  1.00  0.00     0.005 C 
HETATM   24  C21 UNL     1      16.907  -0.123  50.345  1.00  0.00     0.081 C 
ENDROOT
BRANCH   6  25
HETATM   25  C6  UNL     1      18.119  -1.639  53.408  1.00  0.00     0.433 C 
HETATM   26  O2  UNL     1      18.182  -2.767  53.934  1.00  0.00    -0.426 OA
ENDBRANCH   6  25
BRANCH  20  27
HETATM   27  S1  UNL     1      22.511   3.276  52.537  1.00  0.00    -0.132 SA
HETATM   28  H11 UNL     1      23.677   3.296  53.325  1.00  0.00     0.105 HD
ENDBRANCH  20  27
TORSDOF 2
ENDMDL
