MODEL 1
REMARK VINA RESULT:      -7.4      0.000      0.000
REMARK  6 active torsions:
REMARK  status: ('A' for Active; 'I' for Inactive)
REMARK    1  A    between atoms: O1_2  and  C2_3 
REMARK    2  A    between atoms: C5_6  and  C6_7 
REMARK    3  A    between atoms: C6_7  and  C7_8 
REMARK       I    between atoms: C7_8  and  N1_10 
REMARK    4  A    between atoms: N1_10  and  S1_11 
REMARK    5  A    between atoms: S1_11  and  C8_14 
REMARK    6  A    between atoms: C9_15  and  C10_16 
ROOT
HETATM    1  C7  UNL     1      25.573  -0.953  54.538  1.00  0.00     0.235 C 
HETATM    2  O2  UNL     1      26.064  -1.510  53.521  1.00  0.00    -0.272 OA
HETATM    3  N1  UNL     1      26.460   0.034  55.083  1.00  0.00    -0.251 N 
HETATM    4  H8  UNL     1      26.181   0.575  55.930  1.00  0.00     0.181 HD
ENDROOT
BRANCH   1   5
HETATM    5  C6  UNL     1      24.264  -1.134  55.259  1.00  0.00     0.142 C 
BRANCH   5   6
HETATM    6  C5  UNL     1      23.130  -0.766  54.382  1.00  0.00    -0.049 A 
HETATM    7  C4  UNL     1      23.273  -0.088  53.189  1.00  0.00     0.010 A 
HETATM    8  C3  UNL     1      22.180   0.230  52.409  1.00  0.00     0.037 A 
HETATM    9  C2  UNL     1      20.887  -0.127  52.808  1.00  0.00     0.068 A 
HETATM   10  C14 UNL     1      20.757  -0.805  54.002  1.00  0.00     0.037 A 
HETATM   11  C13 UNL     1      21.851  -1.139  54.810  1.00  0.00     0.010 A 
BRANCH   9  12
HETATM   12  O1  UNL     1      19.799   0.200  52.010  1.00  0.00    -0.356 OA
HETATM   13  C1  UNL     1      18.560  -0.430  52.288  1.00  0.00     0.210 C 
ENDBRANCH   9  12
ENDBRANCH   5   6
ENDBRANCH   1   5
BRANCH   3  14
HETATM   14  S1  UNL     1      27.988   0.340  54.357  1.00  0.00     0.255 S 
HETATM   15  O3  UNL     1      28.797   1.154  55.306  1.00  0.00    -0.201 OA
HETATM   16  O4  UNL     1      28.736  -0.934  54.087  1.00  0.00    -0.201 OA
BRANCH  14  17
HETATM   17  C8  UNL     1      27.738   1.252  52.912  1.00  0.00     0.131 C 
HETATM   18  C9  UNL     1      26.657   1.774  52.369  1.00  0.00     0.014 C 
BRANCH  18  19
HETATM   19  C10 UNL     1      26.403   2.544  51.160  1.00  0.00     0.015 C 
HETATM   20  C11 UNL     1      25.314   3.271  51.061  1.00  0.00    -0.015 C 
HETATM   21  C12 UNL     1      24.456   3.194  52.269  1.00  0.00     0.056 C 
HETATM   22 BR1  UNL     1      25.152   4.206  49.421  1.00  0.00    -0.056 Br
ENDBRANCH  18  19
ENDBRANCH  14  17
ENDBRANCH   3  14
TORSDOF 6
ENDMDL
MODEL 2
REMARK VINA RESULT:      -6.9      3.605      6.278
REMARK  6 active torsions:
REMARK  status: ('A' for Active; 'I' for Inactive)
REMARK    1  A    between atoms: O1_2  and  C2_3 
REMARK    2  A    between atoms: C5_6  and  C6_7 
REMARK    3  A    between atoms: C6_7  and  C7_8 
REMARK       I    between atoms: C7_8  and  N1_10 
REMARK    4  A    between atoms: N1_10  and  S1_11 
REMARK    5  A    between atoms: S1_11  and  C8_14 
REMARK    6  A    between atoms: C9_15  and  C10_16 
ROOT
HETATM    1  C7  UNL     1      23.276   2.556  51.942  1.00  0.00     0.235 C 
HETATM    2  O2  UNL     1      23.800   3.465  52.638  1.00  0.00    -0.272 OA
HETATM    3  N1  UNL     1      22.447   3.094  50.904  1.00  0.00    -0.251 N 
HETATM    4  H8  UNL     1      21.949   2.453  50.249  1.00  0.00     0.181 HD
ENDROOT
BRANCH   1   5
HETATM    5  C6  UNL     1      23.364   1.055  52.007  1.00  0.00     0.142 C 
BRANCH   5   6
HETATM    6  C5  UNL     1      24.606   0.633  52.690  1.00  0.00    -0.049 A 
HETATM    7  C4  UNL     1      24.638   0.111  53.967  1.00  0.00     0.010 A 
HETATM    8  C3  UNL     1      25.827  -0.268  54.559  1.00  0.00     0.037 A 
HETATM    9  C2  UNL     1      27.041  -0.133  53.875  1.00  0.00     0.068 A 
HETATM   10  C14 UNL     1      26.996   0.389  52.600  1.00  0.00     0.037 A 
HETATM   11  C13 UNL     1      25.803   0.780  51.980  1.00  0.00     0.010 A 
BRANCH   9  12
HETATM   12  O1  UNL     1      28.227  -0.520  54.485  1.00  0.00    -0.356 OA
HETATM   13  C1  UNL     1      29.444  -0.196  53.834  1.00  0.00     0.210 C 
ENDBRANCH   9  12
ENDBRANCH   5   6
ENDBRANCH   1   5
BRANCH   3  14
HETATM   14  S1  UNL     1      22.259   4.793  50.719  1.00  0.00     0.255 S 
HETATM   15  O3  UNL     1      21.227   5.034  49.673  1.00  0.00    -0.201 OA
HETATM   16  O4  UNL     1      21.787   5.437  51.991  1.00  0.00    -0.201 OA
BRANCH  14  17
HETATM   17  C8  UNL     1      23.760   5.458  50.186  1.00  0.00     0.131 C 
HETATM   18  C9  UNL     1      24.725   4.976  49.428  1.00  0.00     0.014 C 
BRANCH  18  19
HETATM   19  C10 UNL     1      25.999   5.499  48.957  1.00  0.00     0.015 C 
HETATM   20  C11 UNL     1      27.064   4.731  48.957  1.00  0.00    -0.015 C 
HETATM   21  C12 UNL     1      26.793   3.365  49.468  1.00  0.00     0.056 C 
HETATM   22 BR1  UNL     1      28.631   5.579  48.309  1.00  0.00    -0.056 Br
ENDBRANCH  18  19
ENDBRANCH  14  17
ENDBRANCH   3  14
TORSDOF 6
ENDMDL
MODEL 3
REMARK VINA RESULT:      -6.8      3.199      6.212
REMARK  6 active torsions:
REMARK  status: ('A' for Active; 'I' for Inactive)
REMARK    1  A    between atoms: O1_2  and  C2_3 
REMARK    2  A    between atoms: C5_6  and  C6_7 
REMARK    3  A    between atoms: C6_7  and  C7_8 
REMARK       I    between atoms: C7_8  and  N1_10 
REMARK    4  A    between atoms: N1_10  and  S1_11 
REMARK    5  A    between atoms: S1_11  and  C8_14 
REMARK    6  A    between atoms: C9_15  and  C10_16 
ROOT
HETATM    1  C7  UNL     1      22.709   1.547  52.207  1.00  0.00     0.235 C 
HETATM    2  O2  UNL     1      22.209   2.698  52.309  1.00  0.00    -0.272 OA
HETATM    3  N1  UNL     1      22.637   1.054  50.863  1.00  0.00    -0.251 N 
HETATM    4  H8  UNL     1      23.015   0.110  50.632  1.00  0.00     0.181 HD
ENDROOT
BRANCH   1   5
HETATM    5  C6  UNL     1      23.347   0.628  53.214  1.00  0.00     0.142 C 
BRANCH   5   6
HETATM    6  C5  UNL     1      24.820   0.755  53.178  1.00  0.00    -0.049 A 
HETATM    7  C4  UNL     1      25.669  -0.275  52.827  1.00  0.00     0.010 A 
HETATM    8  C3  UNL     1      27.039  -0.103  52.810  1.00  0.00     0.037 A 
HETATM    9  C2  UNL     1      27.609   1.129  53.150  1.00  0.00     0.068 A 
HETATM   10  C14 UNL     1      26.750   2.151  53.498  1.00  0.00     0.037 A 
HETATM   11  C13 UNL     1      25.359   2.000  53.523  1.00  0.00     0.010 A 
BRANCH   9  12
HETATM   12  O1  UNL     1      28.988   1.285  53.126  1.00  0.00    -0.356 OA
HETATM   13  C1  UNL     1      29.788   0.173  53.489  1.00  0.00     0.210 C 
ENDBRANCH   9  12
ENDBRANCH   5   6
ENDBRANCH   1   5
BRANCH   3  14
HETATM   14  S1  UNL     1      21.932   2.003  49.614  1.00  0.00     0.255 S 
HETATM   15  O3  UNL     1      21.504   1.087  48.521  1.00  0.00    -0.201 OA
HETATM   16  O4  UNL     1      20.717   2.740  50.101  1.00  0.00    -0.201 OA
BRANCH  14  17
HETATM   17  C8  UNL     1      23.130   3.084  49.000  1.00  0.00     0.131 C 
HETATM   18  C9  UNL     1      24.094   3.765  49.587  1.00  0.00     0.014 C 
BRANCH  18  19
HETATM   19  C10 UNL     1      25.119   4.682  49.110  1.00  0.00     0.015 C 
HETATM   20  C11 UNL     1      26.389   4.379  49.253  1.00  0.00    -0.015 C 
HETATM   21  C12 UNL     1      26.599   3.069  49.918  1.00  0.00     0.056 C 
HETATM   22 BR1  UNL     1      27.580   5.687  48.573  1.00  0.00    -0.056 Br
ENDBRANCH  18  19
ENDBRANCH  14  17
ENDBRANCH   3  14
TORSDOF 6
ENDMDL
MODEL 4
REMARK VINA RESULT:      -6.7      4.141      7.353
REMARK  6 active torsions:
REMARK  status: ('A' for Active; 'I' for Inactive)
REMARK    1  A    between atoms: O1_2  and  C2_3 
REMARK    2  A    between atoms: C5_6  and  C6_7 
REMARK    3  A    between atoms: C6_7  and  C7_8 
REMARK       I    between atoms: C7_8  and  N1_10 
REMARK    4  A    between atoms: N1_10  and  S1_11 
REMARK    5  A    between atoms: S1_11  and  C8_14 
REMARK    6  A    between atoms: C9_15  and  C10_16 
ROOT
HETATM    1  C7  UNL     1      25.575   2.871  51.252  1.00  0.00     0.235 C 
HETATM    2  O2  UNL     1      25.064   3.257  52.336  1.00  0.00    -0.272 OA
HETATM    3  N1  UNL     1      26.644   1.941  51.470  1.00  0.00    -0.251 N 
HETATM    4  H8  UNL     1      27.159   1.537  50.659  1.00  0.00     0.181 HD
ENDROOT
BRANCH   1   5
HETATM    5  C6  UNL     1      25.271   3.202  49.816  1.00  0.00     0.142 C 
BRANCH   5   6
HETATM    6  C5  UNL     1      26.063   4.369  49.370  1.00  0.00    -0.049 A 
HETATM    7  C4  UNL     1      27.355   4.281  48.893  1.00  0.00     0.010 A 
HETATM    8  C3  UNL     1      28.050   5.404  48.490  1.00  0.00     0.037 A 
HETATM    9  C2  UNL     1      27.460   6.671  48.553  1.00  0.00     0.068 A 
HETATM   10  C14 UNL     1      26.168   6.746  49.031  1.00  0.00     0.037 A 
HETATM   11  C13 UNL     1      25.445   5.623  49.446  1.00  0.00     0.010 A 
BRANCH   9  12
HETATM   12  O1  UNL     1      28.173   7.790  48.142  1.00  0.00    -0.356 OA
HETATM   13  C1  UNL     1      29.277   7.591  47.276  1.00  0.00     0.210 C 
ENDBRANCH   9  12
ENDBRANCH   5   6
ENDBRANCH   1   5
BRANCH   3  14
HETATM   14  S1  UNL     1      27.095   1.477  53.064  1.00  0.00     0.255 S 
HETATM   15  O3  UNL     1      28.252   0.544  52.965  1.00  0.00    -0.201 OA
HETATM   16  O4  UNL     1      27.524   2.660  53.882  1.00  0.00    -0.201 OA
BRANCH  14  17
HETATM   17  C8  UNL     1      25.768   0.645  53.792  1.00  0.00     0.131 C 
HETATM   18  C9  UNL     1      24.710   0.046  53.282  1.00  0.00     0.014 C 
BRANCH  18  19
HETATM   19  C10 UNL     1      23.575  -0.662  53.856  1.00  0.00     0.015 C 
HETATM   20  C11 UNL     1      22.372  -0.483  53.361  1.00  0.00    -0.015 C 
HETATM   21  C12 UNL     1      22.350   0.470  52.224  1.00  0.00     0.056 C 
HETATM   22 BR1  UNL     1      21.019  -1.487  54.230  1.00  0.00    -0.056 Br
ENDBRANCH  18  19
ENDBRANCH  14  17
ENDBRANCH   3  14
TORSDOF 6
ENDMDL
MODEL 5
REMARK VINA RESULT:      -6.6      4.422      6.418
REMARK  6 active torsions:
REMARK  status: ('A' for Active; 'I' for Inactive)
REMARK    1  A    between atoms: O1_2  and  C2_3 
REMARK    2  A    between atoms: C5_6  and  C6_7 
REMARK    3  A    between atoms: C6_7  and  C7_8 
REMARK       I    between atoms: C7_8  and  N1_10 
REMARK    4  A    between atoms: N1_10  and  S1_11 
REMARK    5  A    between atoms: S1_11  and  C8_14 
REMARK    6  A    between atoms: C9_15  and  C10_16 
ROOT
HETATM    1  C7  UNL     1      23.576   3.047  51.042  1.00  0.00     0.235 C 
HETATM    2  O2  UNL     1      24.021   2.503  49.997  1.00  0.00    -0.272 OA
HETATM    3  N1  UNL     1      23.575   4.477  50.937  1.00  0.00    -0.251 N 
HETATM    4  H8  UNL     1      23.231   5.058  51.731  1.00  0.00     0.181 HD
ENDROOT
BRANCH   1   5
HETATM    5  C6  UNL     1      23.064   2.480  52.338  1.00  0.00     0.142 C 
BRANCH   5   6
HETATM    6  C5  UNL     1      24.114   1.685  53.012  1.00  0.00    -0.049 A 
HETATM    7  C4  UNL     1      24.007   0.333  53.265  1.00  0.00     0.010 A 
HETATM    8  C3  UNL     1      25.018  -0.362  53.898  1.00  0.00     0.037 A 
HETATM    9  C2  UNL     1      26.188   0.289  54.304  1.00  0.00     0.068 A 
HETATM   10  C14 UNL     1      26.284   1.640  54.045  1.00  0.00     0.037 A 
HETATM   11  C13 UNL     1      25.272   2.366  53.405  1.00  0.00     0.010 A 
BRANCH   9  12
HETATM   12  O1  UNL     1      27.195  -0.426  54.938  1.00  0.00    -0.356 OA
HETATM   13  C1  UNL     1      28.524   0.054  54.820  1.00  0.00     0.210 C 
ENDBRANCH   9  12
ENDBRANCH   5   6
ENDBRANCH   1   5
BRANCH   3  14
HETATM   14  S1  UNL     1      24.135   5.255  49.509  1.00  0.00     0.255 S 
HETATM   15  O3  UNL     1      23.322   4.761  48.363  1.00  0.00    -0.201 OA
HETATM   16  O4  UNL     1      23.963   6.745  49.589  1.00  0.00    -0.201 OA
BRANCH  14  17
HETATM   17  C8  UNL     1      25.785   4.816  49.253  1.00  0.00     0.131 C 
HETATM   18  C9  UNL     1      26.802   5.464  48.722  1.00  0.00     0.014 C 
BRANCH  18  19
HETATM   19  C10 UNL     1      28.201   5.133  48.488  1.00  0.00     0.015 C 
HETATM   20  C11 UNL     1      29.023   6.048  48.029  1.00  0.00    -0.015 C 
HETATM   21  C12 UNL     1      28.364   7.359  47.806  1.00  0.00     0.056 C 
HETATM   22 BR1  UNL     1      30.802   5.441  47.788  1.00  0.00    -0.056 Br
ENDBRANCH  18  19
ENDBRANCH  14  17
ENDBRANCH   3  14
TORSDOF 6
ENDMDL
MODEL 6
REMARK VINA RESULT:      -6.5      3.754      6.996
REMARK  6 active torsions:
REMARK  status: ('A' for Active; 'I' for Inactive)
REMARK    1  A    between atoms: O1_2  and  C2_3 
REMARK    2  A    between atoms: C5_6  and  C6_7 
REMARK    3  A    between atoms: C6_7  and  C7_8 
REMARK       I    between atoms: C7_8  and  N1_10 
REMARK    4  A    between atoms: N1_10  and  S1_11 
REMARK    5  A    between atoms: S1_11  and  C8_14 
REMARK    6  A    between atoms: C9_15  and  C10_16 
ROOT
HETATM    1  C7  UNL     1      24.845   3.410  50.953  1.00  0.00     0.235 C 
HETATM    2  O2  UNL     1      24.147   3.725  51.952  1.00  0.00    -0.272 OA
HETATM    3  N1  UNL     1      24.039   3.206  49.785  1.00  0.00    -0.251 N 
HETATM    4  H8  UNL     1      24.487   2.940  48.881  1.00  0.00     0.181 HD
ENDROOT
BRANCH   1   5
HETATM    5  C6  UNL     1      26.327   3.217  50.774  1.00  0.00     0.142 C 
BRANCH   5   6
HETATM    6  C5  UNL     1      26.805   2.072  51.580  1.00  0.00    -0.049 A 
HETATM    7  C4  UNL     1      26.394   0.770  51.380  1.00  0.00     0.010 A 
HETATM    8  C3  UNL     1      26.872  -0.262  52.162  1.00  0.00     0.037 A 
HETATM    9  C2  UNL     1      27.794  -0.016  53.185  1.00  0.00     0.068 A 
HETATM   10  C14 UNL     1      28.198   1.289  53.375  1.00  0.00     0.037 A 
HETATM   11  C13 UNL     1      27.726   2.352  52.596  1.00  0.00     0.010 A 
BRANCH   9  12
HETATM   12  O1  UNL     1      28.266  -1.066  53.961  1.00  0.00    -0.356 OA
HETATM   13  C1  UNL     1      29.606  -1.487  53.765  1.00  0.00     0.210 C 
ENDBRANCH   9  12
ENDBRANCH   5   6
ENDBRANCH   1   5
BRANCH   3  14
HETATM   14  S1  UNL     1      22.331   3.394  49.851  1.00  0.00     0.255 S 
HETATM   15  O3  UNL     1      22.034   4.754  50.381  1.00  0.00    -0.201 OA
HETATM   16  O4  UNL     1      21.711   3.285  48.487  1.00  0.00    -0.201 OA
BRANCH  14  17
HETATM   17  C8  UNL     1      21.688   2.218  50.939  1.00  0.00     0.131 C 
HETATM   18  C9  UNL     1      22.088   1.008  51.274  1.00  0.00     0.014 C 
BRANCH  18  19
HETATM   19  C10 UNL     1      21.580  -0.011  52.180  1.00  0.00     0.015 C 
HETATM   20  C11 UNL     1      22.231  -0.289  53.287  1.00  0.00    -0.015 C 
HETATM   21  C12 UNL     1      23.459   0.525  53.455  1.00  0.00     0.056 C 
HETATM   22 BR1  UNL     1      21.421  -1.638  54.344  1.00  0.00    -0.056 Br
ENDBRANCH  18  19
ENDBRANCH  14  17
ENDBRANCH   3  14
TORSDOF 6
ENDMDL
MODEL 7
REMARK VINA RESULT:      -6.3      3.029      5.885
REMARK  6 active torsions:
REMARK  status: ('A' for Active; 'I' for Inactive)
REMARK    1  A    between atoms: O1_2  and  C2_3 
REMARK    2  A    between atoms: C5_6  and  C6_7 
REMARK    3  A    between atoms: C6_7  and  C7_8 
REMARK       I    between atoms: C7_8  and  N1_10 
REMARK    4  A    between atoms: N1_10  and  S1_11 
REMARK    5  A    between atoms: S1_11  and  C8_14 
REMARK    6  A    between atoms: C9_15  and  C10_16 
ROOT
HETATM    1  C7  UNL     1      20.475   0.163  52.492  1.00  0.00     0.235 C 
HETATM    2  O2  UNL     1      20.513  -0.067  51.256  1.00  0.00    -0.272 OA
HETATM    3  N1  UNL     1      20.041   1.501  52.771  1.00  0.00    -0.251 N 
HETATM    4  H8  UNL     1      19.962   1.830  53.757  1.00  0.00     0.181 HD
ENDROOT
BRANCH   1   5
HETATM    5  C6  UNL     1      20.795  -0.689  53.691  1.00  0.00     0.142 C 
BRANCH   5   6
HETATM    6  C5  UNL     1      22.248  -0.677  53.968  1.00  0.00    -0.049 A 
HETATM    7  C4  UNL     1      23.184  -0.118  53.122  1.00  0.00     0.010 A 
HETATM    8  C3  UNL     1      24.530  -0.134  53.429  1.00  0.00     0.037 A 
HETATM    9  C2  UNL     1      24.986  -0.721  54.614  1.00  0.00     0.068 A 
HETATM   10  C14 UNL     1      24.041  -1.276  55.452  1.00  0.00     0.037 A 
HETATM   11  C13 UNL     1      22.672  -1.272  55.162  1.00  0.00     0.010 A 
BRANCH   9  12
HETATM   12  O1  UNL     1      26.343  -0.728  54.908  1.00  0.00    -0.356 OA
HETATM   13  C1  UNL     1      27.099   0.426  54.577  1.00  0.00     0.210 C 
ENDBRANCH   9  12
ENDBRANCH   5   6
ENDBRANCH   1   5
BRANCH   3  14
HETATM   14  S1  UNL     1      19.644   2.581  51.492  1.00  0.00     0.255 S 
HETATM   15  O3  UNL     1      18.678   1.895  50.589  1.00  0.00    -0.201 OA
HETATM   16  O4  UNL     1      18.986   3.829  52.008  1.00  0.00    -0.201 OA
BRANCH  14  17
HETATM   17  C8  UNL     1      21.081   2.937  50.605  1.00  0.00     0.131 C 
HETATM   18  C9  UNL     1      22.351   2.982  50.955  1.00  0.00     0.014 C 
BRANCH  18  19
HETATM   19  C10 UNL     1      23.587   3.277  50.244  1.00  0.00     0.015 C 
HETATM   20  C11 UNL     1      24.305   4.323  50.582  1.00  0.00    -0.015 C 
HETATM   21  C12 UNL     1      23.714   5.092  51.705  1.00  0.00     0.056 C 
HETATM   22 BR1  UNL     1      25.879   4.548  49.551  1.00  0.00    -0.056 Br
ENDBRANCH  18  19
ENDBRANCH  14  17
ENDBRANCH   3  14
TORSDOF 6
ENDMDL
MODEL 8
REMARK VINA RESULT:      -6.1      4.594      8.176
REMARK  6 active torsions:
REMARK  status: ('A' for Active; 'I' for Inactive)
REMARK    1  A    between atoms: O1_2  and  C2_3 
REMARK    2  A    between atoms: C5_6  and  C6_7 
REMARK    3  A    between atoms: C6_7  and  C7_8 
REMARK       I    between atoms: C7_8  and  N1_10 
REMARK    4  A    between atoms: N1_10  and  S1_11 
REMARK    5  A    between atoms: S1_11  and  C8_14 
REMARK    6  A    between atoms: C9_15  and  C10_16 
ROOT
HETATM    1  C7  UNL     1      22.694   4.531  49.567  1.00  0.00     0.235 C 
HETATM    2  O2  UNL     1      22.513   3.462  48.927  1.00  0.00    -0.272 OA
HETATM    3  N1  UNL     1      22.057   4.496  50.851  1.00  0.00    -0.251 N 
HETATM    4  H8  UNL     1      22.124   5.317  51.490  1.00  0.00     0.181 HD
ENDROOT
BRANCH   1   5
HETATM    5  C6  UNL     1      23.435   5.798  49.232  1.00  0.00     0.142 C 
BRANCH   5   6
HETATM    6  C5  UNL     1      24.878   5.527  49.055  1.00  0.00    -0.049 A 
HETATM    7  C4  UNL     1      25.475   4.322  49.365  1.00  0.00     0.010 A 
HETATM    8  C3  UNL     1      26.828   4.122  49.179  1.00  0.00     0.037 A 
HETATM    9  C2  UNL     1      27.639   5.142  48.668  1.00  0.00     0.068 A 
HETATM   10  C14 UNL     1      27.031   6.341  48.361  1.00  0.00     0.037 A 
HETATM   11  C13 UNL     1      25.661   6.567  48.541  1.00  0.00     0.010 A 
BRANCH   9  12
HETATM   12  O1  UNL     1      28.998   4.923  48.487  1.00  0.00    -0.356 OA
HETATM   13  C1  UNL     1      29.788   6.005  48.021  1.00  0.00     0.210 C 
ENDBRANCH   9  12
ENDBRANCH   5   6
ENDBRANCH   1   5
BRANCH   3  14
HETATM   14  S1  UNL     1      21.176   3.109  51.358  1.00  0.00     0.255 S 
HETATM   15  O3  UNL     1      20.541   3.417  52.670  1.00  0.00    -0.201 OA
HETATM   16  O4  UNL     1      20.084   2.764  50.387  1.00  0.00    -0.201 OA
BRANCH  14  17
HETATM   17  C8  UNL     1      22.282   1.800  51.567  1.00  0.00     0.131 C 
HETATM   18  C9  UNL     1      23.219   1.565  52.464  1.00  0.00     0.014 C 
BRANCH  18  19
HETATM   19  C10 UNL     1      24.168   0.481  52.675  1.00  0.00     0.015 C 
HETATM   20  C11 UNL     1      25.458   0.714  52.593  1.00  0.00    -0.015 C 
HETATM   21  C12 UNL     1      25.772   2.129  52.280  1.00  0.00     0.056 C 
HETATM   22 BR1  UNL     1      26.541  -0.812  52.899  1.00  0.00    -0.056 Br
ENDBRANCH  18  19
ENDBRANCH  14  17
ENDBRANCH   3  14
TORSDOF 6
ENDMDL
MODEL 9
REMARK VINA RESULT:      -6.1      3.042      6.171
REMARK  6 active torsions:
REMARK  status: ('A' for Active; 'I' for Inactive)
REMARK    1  A    between atoms: O1_2  and  C2_3 
REMARK    2  A    between atoms: C5_6  and  C6_7 
REMARK    3  A    between atoms: C6_7  and  C7_8 
REMARK       I    between atoms: C7_8  and  N1_10 
REMARK    4  A    between atoms: N1_10  and  S1_11 
REMARK    5  A    between atoms: S1_11  and  C8_14 
REMARK    6  A    between atoms: C9_15  and  C10_16 
ROOT
HETATM    1  C7  UNL     1      21.896   0.321  52.824  1.00  0.00     0.235 C 
HETATM    2  O2  UNL     1      21.269   1.144  53.542  1.00  0.00    -0.272 OA
HETATM    3  N1  UNL     1      21.461   0.366  51.459  1.00  0.00    -0.251 N 
HETATM    4  H8  UNL     1      21.896  -0.264  50.751  1.00  0.00     0.181 HD
ENDROOT
BRANCH   1   5
HETATM    5  C6  UNL     1      22.984  -0.671  53.137  1.00  0.00     0.142 C 
BRANCH   5   6
HETATM    6  C5  UNL     1      24.264   0.024  53.401  1.00  0.00    -0.049 A 
HETATM    7  C4  UNL     1      24.670   1.159  52.731  1.00  0.00     0.010 A 
HETATM    8  C3  UNL     1      25.876   1.769  53.016  1.00  0.00     0.037 A 
HETATM    9  C2  UNL     1      26.725   1.249  53.999  1.00  0.00     0.068 A 
HETATM   10  C14 UNL     1      26.307   0.114  54.662  1.00  0.00     0.037 A 
HETATM   11  C13 UNL     1      25.090  -0.521  54.390  1.00  0.00     0.010 A 
BRANCH   9  12
HETATM   12  O1  UNL     1      27.933   1.875  54.274  1.00  0.00    -0.356 OA
HETATM   13  C1  UNL     1      29.101   1.072  54.322  1.00  0.00     0.210 C 
ENDBRANCH   9  12
ENDBRANCH   5   6
ENDBRANCH   1   5
BRANCH   3  14
HETATM   14  S1  UNL     1      20.224   1.454  50.966  1.00  0.00     0.255 S 
HETATM   15  O3  UNL     1      19.657   0.959  49.680  1.00  0.00    -0.201 OA
HETATM   16  O4  UNL     1      19.108   1.512  51.970  1.00  0.00    -0.201 OA
BRANCH  14  17
HETATM   17  C8  UNL     1      20.928   3.008  50.704  1.00  0.00     0.131 C 
HETATM   18  C9  UNL     1      22.179   3.423  50.684  1.00  0.00     0.014 C 
BRANCH  18  19
HETATM   19  C10 UNL     1      22.813   4.715  50.469  1.00  0.00     0.015 C 
HETATM   20  C11 UNL     1      23.415   5.325  51.464  1.00  0.00    -0.015 C 
HETATM   21  C12 UNL     1      23.354   4.559  52.734  1.00  0.00     0.056 C 
HETATM   22 BR1  UNL     1      24.184   6.994  51.000  1.00  0.00    -0.056 Br
ENDBRANCH  18  19
ENDBRANCH  14  17
ENDBRANCH   3  14
TORSDOF 6
ENDMDL
