MODEL 1
REMARK VINA RESULT:      -7.6      0.000      0.000
REMARK  6 active torsions:
REMARK  status: ('A' for Active; 'I' for Inactive)
REMARK    1  A    between atoms: C2_2  and  O1_3 
REMARK    2  A    between atoms: O1_3  and  C3_4 
REMARK    3  A    between atoms: C3_4  and  N1_5 
REMARK    4  A    between atoms: C3_4  and  C4_6 
REMARK    5  A    between atoms: C9_12  and  N3_13 
REMARK    6  A    between atoms: N3_13  and  C10_14 
ROOT
HETATM    1  C4  UNL     1      26.423  -0.070  52.354  1.00  0.00     0.044 C 
HETATM    2  C5  UNL     1      25.280   0.713  52.406  1.00  0.00    -0.014 A 
HETATM    3  C6  UNL     1      24.337   1.293  52.530  1.00  0.00     0.123 A 
HETATM    4  C7  UNL     1      23.282   0.865  52.287  1.00  0.00     0.140 A 
HETATM    5  C8  UNL     1      22.014   0.858  51.615  1.00  0.00     0.077 C 
HETATM    6  N2  UNL     1      20.962   0.848  51.076  1.00  0.00    -0.196 NA
HETATM    7  C9  UNL     1      24.364   1.860  52.024  1.00  0.00     0.108 A 
HETATM    8  C16 UNL     1      24.087   2.980  53.003  1.00  0.00     0.174 A 
HETATM    9  N4  UNL     1      25.151   2.499  52.978  1.00  0.00    -0.299 NA
ENDROOT
BRANCH   7  10
HETATM   10  N3  UNL     1      24.521   2.276  50.671  1.00  0.00    -0.373 N 
HETATM   11  H8  UNL     1      23.993   1.690  49.953  1.00  0.00     0.161 HD
BRANCH  10  12
HETATM   12  C10 UNL     1      25.236   3.318  50.025  1.00  0.00     0.030 A 
HETATM   13  C11 UNL     1      26.587   3.286  49.726  1.00  0.00     0.029 A 
HETATM   14  C12 UNL     1      27.143   4.372  49.091  1.00  0.00     0.004 A 
HETATM   15  C13 UNL     1      26.413   5.484  48.743  1.00  0.00     0.019 A 
HETATM   16  C14 UNL     1      25.043   5.548  49.031  1.00  0.00     0.013 A 
HETATM   17 BR1  UNL     1      24.087   7.115  48.522  1.00  0.00    -0.051 Br
HETATM   18  C15 UNL     1      24.501   4.433  49.676  1.00  0.00     0.048 A 
ENDBRANCH  10  12
ENDBRANCH   7  10
BRANCH   1  19
HETATM   19  C3  UNL     1      26.761  -1.132  53.366  1.00  0.00     0.382 C 
BRANCH  19  20
HETATM   20  O1  UNL     1      27.766  -0.702  54.240  1.00  0.00    -0.326 OA
BRANCH  20  21
HETATM   21  C2  UNL     1      28.819   0.103  53.824  1.00  0.00     0.127 C 
HETATM   22  C1  UNL     1      30.018  -0.457  53.583  1.00  0.00     0.037 C 
ENDBRANCH  20  21
ENDBRANCH  19  20
BRANCH  19  23
HETATM   23  N1  UNL     1      27.133  -2.352  52.661  1.00  0.00     0.111 N 
HETATM   24  H5  UNL     1      28.058  -2.186  52.196  1.00  0.00     0.316 HD
HETATM   25  H6  UNL     1      27.216  -3.163  53.310  1.00  0.00     0.316 HD
ENDBRANCH  19  23
ENDBRANCH   1  19
TORSDOF 6
ENDMDL
MODEL 2
REMARK VINA RESULT:      -7.3      1.382      2.026
REMARK  6 active torsions:
REMARK  status: ('A' for Active; 'I' for Inactive)
REMARK    1  A    between atoms: C2_2  and  O1_3 
REMARK    2  A    between atoms: O1_3  and  C3_4 
REMARK    3  A    between atoms: C3_4  and  N1_5 
REMARK    4  A    between atoms: C3_4  and  C4_6 
REMARK    5  A    between atoms: C9_12  and  N3_13 
REMARK    6  A    between atoms: N3_13  and  C10_14 
ROOT
HETATM    1  C4  UNL     1      26.286   0.753  52.671  1.00  0.00     0.044 C 
HETATM    2  C5  UNL     1      25.032   1.312  52.474  1.00  0.00    -0.014 A 
HETATM    3  C6  UNL     1      23.996   1.712  52.398  1.00  0.00     0.123 A 
HETATM    4  C7  UNL     1      23.087   1.080  52.038  1.00  0.00     0.140 A 
HETATM    5  C8  UNL     1      21.969   0.794  51.185  1.00  0.00     0.077 C 
HETATM    6  N2  UNL     1      21.040   0.553  50.495  1.00  0.00    -0.196 NA
HETATM    7  C9  UNL     1      24.009   2.240  51.851  1.00  0.00     0.108 A 
HETATM    8  C16 UNL     1      23.382   3.350  52.666  1.00  0.00     0.174 A 
HETATM    9  N4  UNL     1      24.502   3.076  52.849  1.00  0.00    -0.299 NA
ENDROOT
BRANCH   7  10
HETATM   10  N3  UNL     1      24.315   2.590  50.504  1.00  0.00    -0.373 N 
HETATM   11  H8  UNL     1      23.799   2.023  49.761  1.00  0.00     0.161 HD
BRANCH  10  12
HETATM   12  C10 UNL     1      25.170   3.541  49.891  1.00  0.00     0.030 A 
HETATM   13  C11 UNL     1      26.526   3.364  49.672  1.00  0.00     0.029 A 
HETATM   14  C12 UNL     1      27.228   4.376  49.060  1.00  0.00     0.004 A 
HETATM   15  C13 UNL     1      26.639   5.553  48.659  1.00  0.00     0.019 A 
HETATM   16  C14 UNL     1      25.269   5.763  48.866  1.00  0.00     0.013 A 
HETATM   17 BR1  UNL     1      24.514   7.413  48.287  1.00  0.00    -0.051 Br
HETATM   18  C15 UNL     1      24.578   4.721  49.489  1.00  0.00     0.048 A 
ENDBRANCH  10  12
ENDBRANCH   7  10
BRANCH   1  19
HETATM   19  C3  UNL     1      26.629  -0.160  53.819  1.00  0.00     0.382 C 
BRANCH  19  20
HETATM   20  O1  UNL     1      25.605  -1.084  54.057  1.00  0.00    -0.326 OA
BRANCH  20  21
HETATM   21  C2  UNL     1      24.802  -1.028  55.190  1.00  0.00     0.127 C 
HETATM   22  C1  UNL     1      23.466  -1.102  55.052  1.00  0.00     0.037 C 
ENDBRANCH  20  21
ENDBRANCH  19  20
BRANCH  19  23
HETATM   23  N1  UNL     1      26.921   0.651  54.993  1.00  0.00     0.111 N 
HETATM   24  H5  UNL     1      26.016   1.052  55.340  1.00  0.00     0.316 HD
HETATM   25  H6  UNL     1      27.360   0.088  55.752  1.00  0.00     0.316 HD
ENDBRANCH  19  23
ENDBRANCH   1  19
TORSDOF 6
ENDMDL
MODEL 3
REMARK VINA RESULT:      -6.9      2.567      3.333
REMARK  6 active torsions:
REMARK  status: ('A' for Active; 'I' for Inactive)
REMARK    1  A    between atoms: C2_2  and  O1_3 
REMARK    2  A    between atoms: O1_3  and  C3_4 
REMARK    3  A    between atoms: C3_4  and  N1_5 
REMARK    4  A    between atoms: C3_4  and  C4_6 
REMARK    5  A    between atoms: C9_12  and  N3_13 
REMARK    6  A    between atoms: N3_13  and  C10_14 
ROOT
HETATM    1  C4  UNL     1      26.852   1.511  52.109  1.00  0.00     0.044 C 
HETATM    2  C5  UNL     1      25.504   1.601  52.424  1.00  0.00    -0.014 A 
HETATM    3  C6  UNL     1      24.449   1.673  52.773  1.00  0.00     0.123 A 
HETATM    4  C7  UNL     1      23.856   0.776  53.218  1.00  0.00     0.140 A 
HETATM    5  C8  UNL     1      22.760  -0.149  53.271  1.00  0.00     0.077 C 
HETATM    6  N2  UNL     1      21.857  -0.909  53.331  1.00  0.00    -0.196 NA
HETATM    7  C9  UNL     1      24.027   1.813  52.157  1.00  0.00     0.108 A 
HETATM    8  C16 UNL     1      23.313   3.029  52.705  1.00  0.00     0.174 A 
HETATM    9  N4  UNL     1      24.419   3.135  52.346  1.00  0.00    -0.299 NA
ENDROOT
BRANCH   7  10
HETATM   10  N3  UNL     1      23.636   1.436  50.840  1.00  0.00    -0.373 N 
HETATM   11  H8  UNL     1      24.326   0.804  50.326  1.00  0.00     0.161 HD
BRANCH  10  12
HETATM   12  C10 UNL     1      22.513   1.708  50.017  1.00  0.00     0.030 A 
HETATM   13  C11 UNL     1      21.269   1.115  50.151  1.00  0.00     0.029 A 
HETATM   14  C12 UNL     1      20.271   1.484  49.279  1.00  0.00     0.004 A 
HETATM   15  C13 UNL     1      20.459   2.413  48.284  1.00  0.00     0.019 A 
HETATM   16  C14 UNL     1      21.706   3.032  48.121  1.00  0.00     0.013 A 
HETATM   17 BR1  UNL     1      21.901   4.312  46.724  1.00  0.00    -0.051 Br
HETATM   18  C15 UNL     1      22.703   2.641  49.018  1.00  0.00     0.048 A 
ENDBRANCH  10  12
ENDBRANCH   7  10
BRANCH   1  19
HETATM   19  C3  UNL     1      27.953   1.455  53.133  1.00  0.00     0.382 C 
BRANCH  19  20
HETATM   20  O1  UNL     1      27.884   0.280  53.891  1.00  0.00    -0.326 OA
BRANCH  20  21
HETATM   21  C2  UNL     1      28.682  -0.825  53.625  1.00  0.00     0.127 C 
HETATM   22  C1  UNL     1      30.014  -0.664  53.519  1.00  0.00     0.037 C 
ENDBRANCH  20  21
ENDBRANCH  19  20
BRANCH  19  23
HETATM   23  N1  UNL     1      27.883   2.649  53.965  1.00  0.00     0.111 N 
HETATM   24  H5  UNL     1      28.257   3.453  53.406  1.00  0.00     0.316 HD
HETATM   25  H6  UNL     1      26.905   2.860  54.256  1.00  0.00     0.316 HD
ENDBRANCH  19  23
ENDBRANCH   1  19
TORSDOF 6
ENDMDL
MODEL 4
REMARK VINA RESULT:      -6.9      3.604      6.568
REMARK  6 active torsions:
REMARK  status: ('A' for Active; 'I' for Inactive)
REMARK    1  A    between atoms: C2_2  and  O1_3 
REMARK    2  A    between atoms: O1_3  and  C3_4 
REMARK    3  A    between atoms: C3_4  and  N1_5 
REMARK    4  A    between atoms: C3_4  and  C4_6 
REMARK    5  A    between atoms: C9_12  and  N3_13 
REMARK    6  A    between atoms: N3_13  and  C10_14 
ROOT
HETATM    1  C4  UNL     1      22.665   1.924  49.532  1.00  0.00     0.044 C 
HETATM    2  C5  UNL     1      23.482   3.030  49.714  1.00  0.00    -0.014 A 
HETATM    3  C6  UNL     1      24.113   3.946  49.768  1.00  0.00     0.123 A 
HETATM    4  C7  UNL     1      25.138   4.053  49.229  1.00  0.00     0.140 A 
HETATM    5  C8  UNL     1      26.553   4.292  49.178  1.00  0.00     0.077 C 
HETATM    6  N2  UNL     1      27.715   4.498  49.123  1.00  0.00    -0.196 NA
HETATM    7  C9  UNL     1      24.341   4.008  50.491  1.00  0.00     0.108 A 
HETATM    8  C16 UNL     1      23.885   5.436  50.695  1.00  0.00     0.174 A 
HETATM    9  N4  UNL     1      23.090   4.582  50.700  1.00  0.00    -0.299 NA
ENDROOT
BRANCH   7  10
HETATM   10  N3  UNL     1      24.980   3.420  51.619  1.00  0.00    -0.373 N 
HETATM   11  H8  UNL     1      25.312   4.110  52.362  1.00  0.00     0.161 HD
BRANCH  10  12
HETATM   12  C10 UNL     1      25.295   2.092  52.007  1.00  0.00     0.030 A 
HETATM   13  C11 UNL     1      26.459   1.422  51.670  1.00  0.00     0.029 A 
HETATM   14  C12 UNL     1      26.628   0.135  52.124  1.00  0.00     0.004 A 
HETATM   15  C13 UNL     1      25.690  -0.512  52.894  1.00  0.00     0.019 A 
HETATM   16  C14 UNL     1      24.501   0.139  53.252  1.00  0.00     0.013 A 
HETATM   17 BR1  UNL     1      23.243  -0.811  54.321  1.00  0.00    -0.051 Br
HETATM   18  C15 UNL     1      24.353   1.445  52.780  1.00  0.00     0.048 A 
ENDBRANCH  10  12
ENDBRANCH   7  10
BRANCH   1  19
HETATM   19  C3  UNL     1      21.888   1.651  48.272  1.00  0.00     0.382 C 
BRANCH  19  20
HETATM   20  O1  UNL     1      22.368   2.415  47.202  1.00  0.00    -0.326 OA
BRANCH  20  21
HETATM   21  C2  UNL     1      21.627   3.441  46.630  1.00  0.00     0.127 C 
HETATM   22  C1  UNL     1      22.085   4.704  46.705  1.00  0.00     0.037 C 
ENDBRANCH  20  21
ENDBRANCH  19  20
BRANCH  19  23
HETATM   23  N1  UNL     1      20.474   1.895  48.529  1.00  0.00     0.111 N 
HETATM   24  H5  UNL     1      19.977   0.973  48.494  1.00  0.00     0.316 HD
HETATM   25  H6  UNL     1      20.322   2.332  49.463  1.00  0.00     0.316 HD
ENDBRANCH  19  23
ENDBRANCH   1  19
TORSDOF 6
ENDMDL
MODEL 5
REMARK VINA RESULT:      -6.9      2.189      2.821
REMARK  6 active torsions:
REMARK  status: ('A' for Active; 'I' for Inactive)
REMARK    1  A    between atoms: C2_2  and  O1_3 
REMARK    2  A    between atoms: O1_3  and  C3_4 
REMARK    3  A    between atoms: C3_4  and  N1_5 
REMARK    4  A    between atoms: C3_4  and  C4_6 
REMARK    5  A    between atoms: C9_12  and  N3_13 
REMARK    6  A    between atoms: N3_13  and  C10_14 
ROOT
HETATM    1  C4  UNL     1      26.526   1.968  51.831  1.00  0.00     0.044 C 
HETATM    2  C5  UNL     1      25.210   2.334  51.592  1.00  0.00    -0.014 A 
HETATM    3  C6  UNL     1      24.127   2.571  51.478  1.00  0.00     0.123 A 
HETATM    4  C7  UNL     1      23.351   1.828  51.031  1.00  0.00     0.140 A 
HETATM    5  C8  UNL     1      22.337   1.427  50.098  1.00  0.00     0.077 C 
HETATM    6  N2  UNL     1      21.493   1.089  49.342  1.00  0.00    -0.196 NA
HETATM    7  C9  UNL     1      24.082   3.129  50.965  1.00  0.00     0.108 A 
HETATM    8  C16 UNL     1      23.246   4.070  51.804  1.00  0.00     0.174 A 
HETATM    9  N4  UNL     1      24.385   3.964  52.037  1.00  0.00    -0.299 NA
ENDROOT
BRANCH   7  10
HETATM   10  N3  UNL     1      24.393   3.611  49.661  1.00  0.00    -0.373 N 
HETATM   11  H8  UNL     1      24.063   2.990  48.858  1.00  0.00     0.161 HD
BRANCH  10  12
HETATM   12  C10 UNL     1      25.060   4.756  49.154  1.00  0.00     0.030 A 
HETATM   13  C11 UNL     1      24.440   5.943  48.800  1.00  0.00     0.029 A 
HETATM   14  C12 UNL     1      25.220   6.973  48.327  1.00  0.00     0.004 A 
HETATM   15  C13 UNL     1      26.584   6.870  48.190  1.00  0.00     0.019 A 
HETATM   16  C14 UNL     1      27.242   5.682  48.540  1.00  0.00     0.013 A 
HETATM   17 BR1  UNL     1      29.133   5.605  48.329  1.00  0.00    -0.051 Br
HETATM   18  C15 UNL     1      26.429   4.652  49.018  1.00  0.00     0.048 A 
ENDBRANCH  10  12
ENDBRANCH   7  10
BRANCH   1  19
HETATM   19  C3  UNL     1      26.955   1.047  52.941  1.00  0.00     0.382 C 
BRANCH  19  20
HETATM   20  O1  UNL     1      26.164  -0.107  52.980  1.00  0.00    -0.326 OA
BRANCH  20  21
HETATM   21  C2  UNL     1      25.334  -0.404  54.054  1.00  0.00     0.127 C 
HETATM   22  C1  UNL     1      24.008  -0.499  53.853  1.00  0.00     0.037 C 
ENDBRANCH  20  21
ENDBRANCH  19  20
BRANCH  19  23
HETATM   23  N1  UNL     1      26.918   1.780  54.200  1.00  0.00     0.111 N 
HETATM   24  H5  UNL     1      25.975   2.230  54.283  1.00  0.00     0.316 HD
HETATM   25  H6  UNL     1      27.071   1.152  55.018  1.00  0.00     0.316 HD
ENDBRANCH  19  23
ENDBRANCH   1  19
TORSDOF 6
ENDMDL
MODEL 6
REMARK VINA RESULT:      -6.9      3.464      5.551
REMARK  6 active torsions:
REMARK  status: ('A' for Active; 'I' for Inactive)
REMARK    1  A    between atoms: C2_2  and  O1_3 
REMARK    2  A    between atoms: O1_3  and  C3_4 
REMARK    3  A    between atoms: C3_4  and  N1_5 
REMARK    4  A    between atoms: C3_4  and  C4_6 
REMARK    5  A    between atoms: C9_12  and  N3_13 
REMARK    6  A    between atoms: N3_13  and  C10_14 
ROOT
HETATM    1  C4  UNL     1      25.523   1.728  53.111  1.00  0.00     0.044 C 
HETATM    2  C5  UNL     1      24.509   2.212  52.298  1.00  0.00    -0.014 A 
HETATM    3  C6  UNL     1      23.766   2.645  51.591  1.00  0.00     0.123 A 
HETATM    4  C7  UNL     1      23.444   3.763  51.602  1.00  0.00     0.140 A 
HETATM    5  C8  UNL     1      22.490   4.832  51.692  1.00  0.00     0.077 C 
HETATM    6  N2  UNL     1      21.713   5.720  51.754  1.00  0.00    -0.196 NA
HETATM    7  C9  UNL     1      23.099   2.318  51.752  1.00  0.00     0.108 A 
HETATM    8  C16 UNL     1      22.783   1.862  50.345  1.00  0.00     0.174 A 
HETATM    9  N4  UNL     1      23.571   1.268  50.969  1.00  0.00    -0.299 NA
ENDROOT
BRANCH   7  10
HETATM   10  N3  UNL     1      22.099   2.007  52.718  1.00  0.00    -0.373 N 
HETATM   11  H8  UNL     1      21.620   2.850  53.162  1.00  0.00     0.161 HD
BRANCH  10  12
HETATM   12  C10 UNL     1      21.569   0.804  53.252  1.00  0.00     0.030 A 
HETATM   13  C11 UNL     1      22.253  -0.063  54.088  1.00  0.00     0.029 A 
HETATM   14  C12 UNL     1      21.605  -1.192  54.531  1.00  0.00     0.004 A 
HETATM   15  C13 UNL     1      20.310  -1.494  54.178  1.00  0.00     0.019 A 
HETATM   16  C14 UNL     1      19.591  -0.638  53.333  1.00  0.00     0.013 A 
HETATM   17 BR1  UNL     1      17.802  -1.112  52.883  1.00  0.00    -0.051 Br
HETATM   18  C15 UNL     1      20.270   0.502  52.897  1.00  0.00     0.048 A 
ENDBRANCH  10  12
ENDBRANCH   7  10
BRANCH   1  19
HETATM   19  C3  UNL     1      26.985   2.020  52.897  1.00  0.00     0.382 C 
BRANCH  19  20
HETATM   20  O1  UNL     1      27.687   0.864  52.535  1.00  0.00    -0.326 OA
BRANCH  20  21
HETATM   21  C2  UNL     1      27.795  -0.235  53.378  1.00  0.00     0.127 C 
HETATM   22  C1  UNL     1      28.974  -0.875  53.475  1.00  0.00     0.037 C 
ENDBRANCH  20  21
ENDBRANCH  19  20
BRANCH  19  23
HETATM   23  N1  UNL     1      27.523   2.633  54.104  1.00  0.00     0.111 N 
HETATM   24  H5  UNL     1      26.749   3.167  54.567  1.00  0.00     0.316 HD
HETATM   25  H6  UNL     1      27.893   1.920  54.768  1.00  0.00     0.316 HD
ENDBRANCH  19  23
ENDBRANCH   1  19
TORSDOF 6
ENDMDL
MODEL 7
REMARK VINA RESULT:      -6.8      3.045      6.268
REMARK  6 active torsions:
REMARK  status: ('A' for Active; 'I' for Inactive)
REMARK    1  A    between atoms: C2_2  and  O1_3 
REMARK    2  A    between atoms: O1_3  and  C3_4 
REMARK    3  A    between atoms: C3_4  and  N1_5 
REMARK    4  A    between atoms: C3_4  and  C4_6 
REMARK    5  A    between atoms: C9_12  and  N3_13 
REMARK    6  A    between atoms: N3_13  and  C10_14 
ROOT
HETATM    1  C4  UNL     1      23.990   2.851  50.003  1.00  0.00     0.044 C 
HETATM    2  C5  UNL     1      24.643   2.478  51.169  1.00  0.00    -0.014 A 
HETATM    3  C6  UNL     1      25.235   2.252  52.085  1.00  0.00     0.123 A 
HETATM    4  C7  UNL     1      26.252   1.687  52.070  1.00  0.00     0.140 A 
HETATM    5  C8  UNL     1      27.148   0.629  52.440  1.00  0.00     0.077 C 
HETATM    6  N2  UNL     1      27.898  -0.232  52.746  1.00  0.00    -0.196 NA
HETATM    7  C9  UNL     1      24.821   1.760  52.491  1.00  0.00     0.108 A 
HETATM    8  C16 UNL     1      24.854   2.537  53.789  1.00  0.00     0.174 A 
HETATM    9  N4  UNL     1      24.145   2.894  52.933  1.00  0.00    -0.299 NA
ENDROOT
BRANCH   7  10
HETATM   10  N3  UNL     1      24.120   0.522  52.555  1.00  0.00    -0.373 N 
HETATM   11  H8  UNL     1      24.648  -0.318  52.162  1.00  0.00     0.161 HD
BRANCH  10  12
HETATM   12  C10 UNL     1      22.845   0.121  53.032  1.00  0.00     0.030 A 
HETATM   13  C11 UNL     1      22.608  -0.472  54.260  1.00  0.00     0.029 A 
HETATM   14  C12 UNL     1      21.314  -0.802  54.589  1.00  0.00     0.004 A 
HETATM   15  C13 UNL     1      20.251  -0.568  53.748  1.00  0.00     0.019 A 
HETATM   16  C14 UNL     1      20.457   0.031  52.498  1.00  0.00     0.013 A 
HETATM   17 BR1  UNL     1      18.943   0.330  51.382  1.00  0.00    -0.051 Br
HETATM   18  C15 UNL     1      21.780   0.358  52.188  1.00  0.00     0.048 A 
ENDBRANCH  10  12
ENDBRANCH   7  10
BRANCH   1  19
HETATM   19  C3  UNL     1      24.449   3.964  49.100  1.00  0.00     0.382 C 
BRANCH  19  20
HETATM   20  O1  UNL     1      25.281   4.861  49.780  1.00  0.00    -0.326 OA
BRANCH  20  21
HETATM   21  C2  UNL     1      26.408   5.422  49.191  1.00  0.00     0.127 C 
HETATM   22  C1  UNL     1      27.407   4.619  48.785  1.00  0.00     0.037 C 
ENDBRANCH  20  21
ENDBRANCH  19  20
BRANCH  19  23
HETATM   23  N1  UNL     1      23.279   4.623  48.533  1.00  0.00     0.111 N 
HETATM   24  H5  UNL     1      23.065   5.461  49.124  1.00  0.00     0.316 HD
HETATM   25  H6  UNL     1      23.446   4.929  47.551  1.00  0.00     0.316 HD
ENDBRANCH  19  23
ENDBRANCH   1  19
TORSDOF 6
ENDMDL
MODEL 8
REMARK VINA RESULT:      -6.7      3.541      6.085
REMARK  6 active torsions:
REMARK  status: ('A' for Active; 'I' for Inactive)
REMARK    1  A    between atoms: C2_2  and  O1_3 
REMARK    2  A    between atoms: O1_3  and  C3_4 
REMARK    3  A    between atoms: C3_4  and  N1_5 
REMARK    4  A    between atoms: C3_4  and  C4_6 
REMARK    5  A    between atoms: C9_12  and  N3_13 
REMARK    6  A    between atoms: N3_13  and  C10_14 
ROOT
HETATM    1  C4  UNL     1      26.690   4.462  49.594  1.00  0.00     0.044 C 
HETATM    2  C5  UNL     1      25.306   4.358  49.613  1.00  0.00    -0.014 A 
HETATM    3  C6  UNL     1      24.195   4.336  49.550  1.00  0.00     0.123 A 
HETATM    4  C7  UNL     1      23.513   5.213  49.895  1.00  0.00     0.140 A 
HETATM    5  C8  UNL     1      22.460   5.802  50.672  1.00  0.00     0.077 C 
HETATM    6  N2  UNL     1      21.587   6.296  51.298  1.00  0.00    -0.196 NA
HETATM    7  C9  UNL     1      23.962   3.796  50.031  1.00  0.00     0.108 A 
HETATM    8  C16 UNL     1      23.106   3.037  49.042  1.00  0.00     0.174 A 
HETATM    9  N4  UNL     1      24.267   2.920  48.992  1.00  0.00    -0.299 NA
ENDROOT
BRANCH   7  10
HETATM   10  N3  UNL     1      23.965   3.260  51.351  1.00  0.00    -0.373 N 
HETATM   11  H8  UNL     1      23.580   3.910  52.104  1.00  0.00     0.161 HD
BRANCH  10  12
HETATM   12  C10 UNL     1      24.370   2.028  51.926  1.00  0.00     0.030 A 
HETATM   13  C11 UNL     1      25.649   1.501  51.855  1.00  0.00     0.029 A 
HETATM   14  C12 UNL     1      25.895   0.295  52.467  1.00  0.00     0.004 A 
HETATM   15  C13 UNL     1      24.925  -0.407  53.144  1.00  0.00     0.019 A 
HETATM   16  C14 UNL     1      23.621   0.098  53.235  1.00  0.00     0.013 A 
HETATM   17 BR1  UNL     1      22.325  -0.922  54.188  1.00  0.00    -0.051 Br
HETATM   18  C15 UNL     1      23.396   1.325  52.605  1.00  0.00     0.048 A 
ENDBRANCH  10  12
ENDBRANCH   7  10
BRANCH   1  19
HETATM   19  C3  UNL     1      27.458   5.285  48.595  1.00  0.00     0.382 C 
BRANCH  19  20
HETATM   20  O1  UNL     1      28.776   4.832  48.468  1.00  0.00    -0.326 OA
BRANCH  20  21
HETATM   21  C2  UNL     1      29.794   5.637  47.972  1.00  0.00     0.127 C 
HETATM   22  C1  UNL     1      30.887   5.854  48.726  1.00  0.00     0.037 C 
ENDBRANCH  20  21
ENDBRANCH  19  20
BRANCH  19  23
HETATM   23  N1  UNL     1      27.395   6.686  48.992  1.00  0.00     0.111 N 
HETATM   24  H5  UNL     1      27.785   6.763  49.962  1.00  0.00     0.316 HD
HETATM   25  H6  UNL     1      27.946   7.295  48.351  1.00  0.00     0.316 HD
ENDBRANCH  19  23
ENDBRANCH   1  19
TORSDOF 6
ENDMDL
MODEL 9
REMARK VINA RESULT:      -6.7      3.595      5.918
REMARK  6 active torsions:
REMARK  status: ('A' for Active; 'I' for Inactive)
REMARK    1  A    between atoms: C2_2  and  O1_3 
REMARK    2  A    between atoms: O1_3  and  C3_4 
REMARK    3  A    between atoms: C3_4  and  N1_5 
REMARK    4  A    between atoms: C3_4  and  C4_6 
REMARK    5  A    between atoms: C9_12  and  N3_13 
REMARK    6  A    between atoms: N3_13  and  C10_14 
ROOT
HETATM    1  C4  UNL     1      23.569  -0.125  53.833  1.00  0.00     0.044 C 
HETATM    2  C5  UNL     1      23.189   0.801  52.872  1.00  0.00    -0.014 A 
HETATM    3  C6  UNL     1      22.981   1.563  52.087  1.00  0.00     0.123 A 
HETATM    4  C7  UNL     1      23.077   2.709  52.261  1.00  0.00     0.140 A 
HETATM    5  C8  UNL     1      22.587   4.058  52.287  1.00  0.00     0.077 C 
HETATM    6  N2  UNL     1      22.197   5.173  52.302  1.00  0.00    -0.196 NA
HETATM    7  C9  UNL     1      22.237   1.518  51.935  1.00  0.00     0.108 A 
HETATM    8  C16 UNL     1      22.373   1.364  50.437  1.00  0.00     0.174 A 
HETATM    9  N4  UNL     1      22.599   0.447  51.123  1.00  0.00    -0.299 NA
ENDROOT
BRANCH   7  10
HETATM   10  N3  UNL     1      20.895   1.545  52.412  1.00  0.00    -0.373 N 
HETATM   11  H8  UNL     1      20.584   2.474  52.836  1.00  0.00     0.161 HD
BRANCH  10  12
HETATM   12  C10 UNL     1      19.836   0.602  52.463  1.00  0.00     0.030 A 
HETATM   13  C11 UNL     1      19.673  -0.355  53.449  1.00  0.00     0.029 A 
HETATM   14  C12 UNL     1      18.591  -1.201  53.369  1.00  0.00     0.004 A 
HETATM   15  C13 UNL     1      17.669  -1.134  52.350  1.00  0.00     0.019 A 
HETATM   16  C14 UNL     1      17.806  -0.176  51.336  1.00  0.00     0.013 A 
HETATM   17 BR1  UNL     1      16.495  -0.134  49.955  1.00  0.00    -0.051 Br
HETATM   18  C15 UNL     1      18.912   0.671  51.440  1.00  0.00     0.048 A 
ENDBRANCH  10  12
ENDBRANCH   7  10
BRANCH   1  19
HETATM   19  C3  UNL     1      25.000  -0.428  54.189  1.00  0.00     0.382 C 
BRANCH  19  20
HETATM   20  O1  UNL     1      25.668  -1.051  53.129  1.00  0.00    -0.326 OA
BRANCH  20  21
HETATM   21  C2  UNL     1      26.787  -0.492  52.524  1.00  0.00     0.127 C 
HETATM   22  C1  UNL     1      26.642   0.608  51.762  1.00  0.00     0.037 C 
ENDBRANCH  20  21
ENDBRANCH  19  20
BRANCH  19  23
HETATM   23  N1  UNL     1      25.022  -1.236  55.401  1.00  0.00     0.111 N 
HETATM   24  H5  UNL     1      26.009  -1.548  55.563  1.00  0.00     0.316 HD
HETATM   25  H6  UNL     1      24.692  -0.697  56.231  1.00  0.00     0.316 HD
ENDBRANCH  19  23
ENDBRANCH   1  19
TORSDOF 6
ENDMDL
