MODEL 1
REMARK VINA RESULT:      -7.7      0.000      0.000
REMARK  3 active torsions:
REMARK  status: ('A' for Active; 'I' for Inactive)
REMARK    1  A    between atoms: N1_1  and  C1_2 
REMARK    2  A    between atoms: C6_9  and  N4_10 
REMARK    3  A    between atoms: N4_10  and  C7_11 
ROOT
HETATM    1  C1  UNL     1      28.342  -1.880  53.235  1.00  0.00     0.140 A 
HETATM    2  C2  UNL     1      28.964  -0.911  53.893  1.00  0.00     0.058 A 
HETATM    3  C3  UNL     1      28.355   0.395  54.105  1.00  0.00     0.037 A 
HETATM    4  C4  UNL     1      27.188   0.907  53.750  1.00  0.00     0.074 A 
HETATM    5  N2  UNL     1      26.968   2.166  54.128  1.00  0.00    -0.241 NA
HETATM    6  C5  UNL     1      25.800   2.814  53.833  1.00  0.00     0.236 A 
HETATM    7  N3  UNL     1      24.834   2.187  53.143  1.00  0.00    -0.223 NA
HETATM    8  C6  UNL     1      25.008   0.908  52.735  1.00  0.00     0.143 A 
HETATM    9  C13 UNL     1      26.191   0.267  53.041  1.00  0.00     0.061 A 
HETATM   10  C14 UNL     1      26.105  -0.947  52.541  1.00  0.00     0.162 A 
HETATM   11  O1  UNL     1      27.086  -1.935  52.627  1.00  0.00    -0.305 OA
ENDROOT
BRANCH   8  12
HETATM   12  N4  UNL     1      23.885   0.409  52.033  1.00  0.00    -0.340 N 
HETATM   13  H6  UNL     1      23.941   0.315  50.979  1.00  0.00     0.167 HD
BRANCH  12  14
HETATM   14  C7  UNL     1      22.692   0.028  52.682  1.00  0.00     0.035 A 
HETATM   15  C8  UNL     1      22.685  -0.578  53.921  1.00  0.00     0.029 A 
HETATM   16  C9  UNL     1      21.515  -0.973  54.583  1.00  0.00     0.004 A 
HETATM   17  C10 UNL     1      20.293  -0.741  53.962  1.00  0.00     0.019 A 
HETATM   18  C11 UNL     1      20.299  -0.142  52.738  1.00  0.00     0.013 A 
HETATM   19 BR1  UNL     1      18.669   0.211  51.817  1.00  0.00    -0.051 Br
HETATM   20  C12 UNL     1      21.464   0.243  52.097  1.00  0.00     0.048 A 
ENDBRANCH  12  14
ENDBRANCH   8  12
BRANCH   1  21
HETATM   21  N1  UNL     1      29.043  -3.122  53.092  1.00  0.00    -0.380 N 
HETATM   22  H1  UNL     1      28.385  -3.934  53.099  1.00  0.00     0.158 HD
HETATM   23  H2  UNL     1      30.058  -3.299  52.987  1.00  0.00     0.158 HD
ENDBRANCH   1  21
TORSDOF 3
ENDMDL
MODEL 2
REMARK VINA RESULT:      -7.6      3.465      6.809
REMARK  3 active torsions:
REMARK  status: ('A' for Active; 'I' for Inactive)
REMARK    1  A    between atoms: N1_1  and  C1_2 
REMARK    2  A    between atoms: C6_9  and  N4_10 
REMARK    3  A    between atoms: N4_10  and  C7_11 
ROOT
HETATM    1  C1  UNL     1      19.816   0.039  52.161  1.00  0.00     0.140 A 
HETATM    2  C2  UNL     1      19.519  -0.630  53.267  1.00  0.00     0.058 A 
HETATM    3  C3  UNL     1      20.541  -1.043  54.219  1.00  0.00     0.037 A 
HETATM    4  C4  UNL     1      21.855  -0.894  54.244  1.00  0.00     0.074 A 
HETATM    5  N2  UNL     1      22.478  -1.414  55.302  1.00  0.00    -0.241 NA
HETATM    6  C5  UNL     1      23.834  -1.325  55.455  1.00  0.00     0.236 A 
HETATM    7  N3  UNL     1      24.580  -0.702  54.530  1.00  0.00    -0.223 NA
HETATM    8  C6  UNL     1      23.997  -0.157  53.437  1.00  0.00     0.143 A 
HETATM    9  C13 UNL     1      22.627  -0.254  53.295  1.00  0.00     0.061 A 
HETATM   10  C14 UNL     1      22.318   0.351  52.169  1.00  0.00     0.162 A 
HETATM   11  O1  UNL     1      21.033   0.489  51.644  1.00  0.00    -0.305 OA
ENDROOT
BRANCH   8  12
HETATM   12  N4  UNL     1      24.934   0.465  52.578  1.00  0.00    -0.340 N 
HETATM   13  H6  UNL     1      24.626   0.750  51.605  1.00  0.00     0.167 HD
BRANCH  12  14
HETATM   14  C7  UNL     1      26.266   0.722  52.967  1.00  0.00     0.035 A 
HETATM   15  C8  UNL     1      26.710   1.987  53.291  1.00  0.00     0.029 A 
HETATM   16  C9  UNL     1      28.029   2.271  53.671  1.00  0.00     0.004 A 
HETATM   17  C10 UNL     1      28.941   1.221  53.729  1.00  0.00     0.019 A 
HETATM   18  C11 UNL     1      28.502  -0.028  53.410  1.00  0.00     0.013 A 
HETATM   19 BR1  UNL     1      29.685  -1.520  53.462  1.00  0.00    -0.051 Br
HETATM   20  C12 UNL     1      27.195  -0.292  53.036  1.00  0.00     0.048 A 
ENDBRANCH  12  14
ENDBRANCH   8  12
BRANCH   1  21
HETATM   21  N1  UNL     1      18.725   0.392  51.301  1.00  0.00    -0.380 N 
HETATM   22  H1  UNL     1      18.843   1.353  50.910  1.00  0.00     0.158 HD
HETATM   23  H2  UNL     1      17.888  -0.159  51.037  1.00  0.00     0.158 HD
ENDBRANCH   1  21
TORSDOF 3
ENDMDL
MODEL 3
REMARK VINA RESULT:      -7.5      3.434      6.883
REMARK  3 active torsions:
REMARK  status: ('A' for Active; 'I' for Inactive)
REMARK    1  A    between atoms: N1_1  and  C1_2 
REMARK    2  A    between atoms: C6_9  and  N4_10 
REMARK    3  A    between atoms: N4_10  and  C7_11 
ROOT
HETATM    1  C1  UNL     1      19.456   0.152  51.646  1.00  0.00     0.140 A 
HETATM    2  C2  UNL     1      19.012  -0.493  52.717  1.00  0.00     0.058 A 
HETATM    3  C3  UNL     1      19.907  -0.950  53.771  1.00  0.00     0.037 A 
HETATM    4  C4  UNL     1      21.217  -0.868  53.931  1.00  0.00     0.074 A 
HETATM    5  N2  UNL     1      21.700  -1.412  55.048  1.00  0.00    -0.241 NA
HETATM    6  C5  UNL     1      23.036  -1.391  55.341  1.00  0.00     0.236 A 
HETATM    7  N3  UNL     1      23.905  -0.814  54.496  1.00  0.00    -0.223 NA
HETATM    8  C6  UNL     1      23.467  -0.248  53.347  1.00  0.00     0.143 A 
HETATM    9  C13 UNL     1      22.116  -0.276  53.065  1.00  0.00     0.061 A 
HETATM   10  C14 UNL     1      21.956   0.336  51.912  1.00  0.00     0.162 A 
HETATM   11  O1  UNL     1      20.741   0.535  51.257  1.00  0.00    -0.305 OA
ENDROOT
BRANCH   8  12
HETATM   12  N4  UNL     1      24.518   0.318  52.589  1.00  0.00    -0.340 N 
HETATM   13  H6  UNL     1      24.279   0.991  51.806  1.00  0.00     0.167 HD
BRANCH  12  14
HETATM   14  C7  UNL     1      25.876   0.023  52.835  1.00  0.00     0.035 A 
HETATM   15  C8  UNL     1      26.399  -1.243  52.667  1.00  0.00     0.029 A 
HETATM   16  C9  UNL     1      27.740  -1.565  52.913  1.00  0.00     0.004 A 
HETATM   17  C10 UNL     1      28.594  -0.556  53.347  1.00  0.00     0.019 A 
HETATM   18  C11 UNL     1      28.078   0.694  53.512  1.00  0.00     0.013 A 
HETATM   19 BR1  UNL     1      29.177   2.133  54.105  1.00  0.00    -0.051 Br
HETATM   20  C12 UNL     1      26.750   0.997  53.265  1.00  0.00     0.048 A 
ENDBRANCH  12  14
ENDBRANCH   8  12
BRANCH   1  21
HETATM   21  N1  UNL     1      18.479   0.554  50.677  1.00  0.00    -0.380 N 
HETATM   22  H1  UNL     1      17.624   0.942  51.135  1.00  0.00     0.158 HD
HETATM   23  H2  UNL     1      18.518   0.509  49.643  1.00  0.00     0.158 HD
ENDBRANCH   1  21
TORSDOF 3
ENDMDL
MODEL 4
REMARK VINA RESULT:      -7.4      3.501      6.851
REMARK  3 active torsions:
REMARK  status: ('A' for Active; 'I' for Inactive)
REMARK    1  A    between atoms: N1_1  and  C1_2 
REMARK    2  A    between atoms: C6_9  and  N4_10 
REMARK    3  A    between atoms: N4_10  and  C7_11 
ROOT
HETATM    1  C1  UNL     1      18.835  -0.932  53.147  1.00  0.00     0.140 A 
HETATM    2  C2  UNL     1      18.540  -0.433  51.954  1.00  0.00     0.058 A 
HETATM    3  C3  UNL     1      19.516   0.302  51.161  1.00  0.00     0.037 A 
HETATM    4  C4  UNL     1      20.778   0.633  51.375  1.00  0.00     0.074 A 
HETATM    5  N2  UNL     1      21.371   1.323  50.401  1.00  0.00    -0.241 NA
HETATM    6  C5  UNL     1      22.675   1.724  50.492  1.00  0.00     0.236 A 
HETATM    7  N3  UNL     1      23.400   1.425  51.581  1.00  0.00    -0.223 NA
HETATM    8  C6  UNL     1      22.846   0.727  52.599  1.00  0.00     0.143 A 
HETATM    9  C13 UNL     1      21.529   0.329  52.494  1.00  0.00     0.061 A 
HETATM   10  C14 UNL     1      21.241  -0.327  53.597  1.00  0.00     0.162 A 
HETATM   11  O1  UNL     1      20.009  -0.907  53.902  1.00  0.00    -0.305 OA
ENDROOT
BRANCH   8  12
HETATM   12  N4  UNL     1      23.759   0.497  53.656  1.00  0.00    -0.340 N 
HETATM   13  H6  UNL     1      23.414   0.573  54.655  1.00  0.00     0.167 HD
BRANCH  12  14
HETATM   14  C7  UNL     1      25.113   0.170  53.432  1.00  0.00     0.035 A 
HETATM   15  C8  UNL     1      25.508  -1.068  52.972  1.00  0.00     0.029 A 
HETATM   16  C9  UNL     1      26.846  -1.421  52.750  1.00  0.00     0.004 A 
HETATM   17  C10 UNL     1      27.831  -0.472  53.004  1.00  0.00     0.019 A 
HETATM   18  C11 UNL     1      27.441   0.752  53.458  1.00  0.00     0.013 A 
HETATM   19 BR1  UNL     1      28.725   2.108  53.833  1.00  0.00    -0.051 Br
HETATM   20  C12 UNL     1      26.114   1.085  53.673  1.00  0.00     0.048 A 
ENDBRANCH  12  14
ENDBRANCH   8  12
BRANCH   1  21
HETATM   21  N1  UNL     1      17.792  -1.637  53.833  1.00  0.00    -0.380 N 
HETATM   22  H1  UNL     1      16.949  -1.036  53.967  1.00  0.00     0.158 HD
HETATM   23  H2  UNL     1      17.777  -2.611  54.187  1.00  0.00     0.158 HD
ENDBRANCH   1  21
TORSDOF 3
ENDMDL
MODEL 5
REMARK VINA RESULT:      -7.2      3.819      6.135
REMARK  3 active torsions:
REMARK  status: ('A' for Active; 'I' for Inactive)
REMARK    1  A    between atoms: N1_1  and  C1_2 
REMARK    2  A    between atoms: C6_9  and  N4_10 
REMARK    3  A    between atoms: N4_10  and  C7_11 
ROOT
HETATM    1  C1  UNL     1      20.373  -0.895  53.690  1.00  0.00     0.140 A 
HETATM    2  C2  UNL     1      21.208  -1.441  54.565  1.00  0.00     0.058 A 
HETATM    3  C3  UNL     1      22.638  -1.168  54.544  1.00  0.00     0.037 A 
HETATM    4  C4  UNL     1      23.395  -0.416  53.762  1.00  0.00     0.074 A 
HETATM    5  N2  UNL     1      24.697  -0.407  54.049  1.00  0.00    -0.241 NA
HETATM    6  C5  UNL     1      25.590   0.333  53.325  1.00  0.00     0.236 A 
HETATM    7  N3  UNL     1      25.170   1.078  52.291  1.00  0.00    -0.223 NA
HETATM    8  C6  UNL     1      23.858   1.104  51.957  1.00  0.00     0.143 A 
HETATM    9  C13 UNL     1      22.968   0.353  52.697  1.00  0.00     0.061 A 
HETATM   10  C14 UNL     1      21.777   0.555  52.177  1.00  0.00     0.162 A 
HETATM   11  O1  UNL     1      20.585  -0.013  52.627  1.00  0.00    -0.305 OA
ENDROOT
BRANCH   8  12
HETATM   12  N4  UNL     1      23.599   1.949  50.852  1.00  0.00    -0.340 N 
HETATM   13  H6  UNL     1      23.130   1.540  49.994  1.00  0.00     0.167 HD
BRANCH  12  14
HETATM   14  C7  UNL     1      23.940   3.318  50.847  1.00  0.00     0.035 A 
HETATM   15  C8  UNL     1      23.315   4.239  51.662  1.00  0.00     0.029 A 
HETATM   16  C9  UNL     1      23.629   5.604  51.670  1.00  0.00     0.004 A 
HETATM   17  C10 UNL     1      24.625   6.059  50.812  1.00  0.00     0.019 A 
HETATM   18  C11 UNL     1      25.243   5.151  50.007  1.00  0.00     0.013 A 
HETATM   19 BR1  UNL     1      26.617   5.689  48.802  1.00  0.00    -0.051 Br
HETATM   20  C12 UNL     1      24.922   3.804  50.011  1.00  0.00     0.048 A 
ENDBRANCH  12  14
ENDBRANCH   8  12
BRANCH   1  21
HETATM   21  N1  UNL     1      18.987  -1.238  53.811  1.00  0.00    -0.380 N 
HETATM   22  H1  UNL     1      18.489  -1.144  52.898  1.00  0.00     0.158 HD
HETATM   23  H2  UNL     1      18.455  -1.550  54.644  1.00  0.00     0.158 HD
ENDBRANCH   1  21
TORSDOF 3
ENDMDL
MODEL 6
REMARK VINA RESULT:      -7.2      3.364      4.595
REMARK  3 active torsions:
REMARK  status: ('A' for Active; 'I' for Inactive)
REMARK    1  A    between atoms: N1_1  and  C1_2 
REMARK    2  A    between atoms: C6_9  and  N4_10 
REMARK    3  A    between atoms: N4_10  and  C7_11 
ROOT
HETATM    1  C1  UNL     1      28.726   0.485  53.390  1.00  0.00     0.140 A 
HETATM    2  C2  UNL     1      28.168  -0.716  53.454  1.00  0.00     0.058 A 
HETATM    3  C3  UNL     1      26.725  -0.903  53.390  1.00  0.00     0.037 A 
HETATM    4  C4  UNL     1      25.716  -0.056  53.272  1.00  0.00     0.074 A 
HETATM    5  N2  UNL     1      24.500  -0.601  53.246  1.00  0.00    -0.241 NA
HETATM    6  C5  UNL     1      23.371   0.160  53.122  1.00  0.00     0.236 A 
HETATM    7  N3  UNL     1      23.463   1.496  53.022  1.00  0.00    -0.223 NA
HETATM    8  C6  UNL     1      24.674   2.100  53.045  1.00  0.00     0.143 A 
HETATM    9  C13 UNL     1      25.805   1.319  53.170  1.00  0.00     0.061 A 
HETATM   10  C14 UNL     1      26.835   2.137  53.161  1.00  0.00     0.162 A 
HETATM   11  O1  UNL     1      28.175   1.762  53.261  1.00  0.00    -0.305 OA
ENDROOT
BRANCH   8  12
HETATM   12  N4  UNL     1      24.579   3.506  52.920  1.00  0.00    -0.340 N 
HETATM   13  H6  UNL     1      24.800   4.111  53.761  1.00  0.00     0.167 HD
BRANCH  12  14
HETATM   14  C7  UNL     1      24.199   4.137  51.715  1.00  0.00     0.035 A 
HETATM   15  C8  UNL     1      24.723   3.771  50.493  1.00  0.00     0.029 A 
HETATM   16  C9  UNL     1      24.371   4.387  49.285  1.00  0.00     0.004 A 
HETATM   17  C10 UNL     1      23.440   5.421  49.316  1.00  0.00     0.019 A 
HETATM   18  C11 UNL     1      22.923   5.782  50.523  1.00  0.00     0.013 A 
HETATM   19 BR1  UNL     1      21.645   7.189  50.656  1.00  0.00    -0.051 Br
HETATM   20  C12 UNL     1      23.281   5.164  51.709  1.00  0.00     0.048 A 
ENDBRANCH  12  14
ENDBRANCH   8  12
BRANCH   1  21
HETATM   21  N1  UNL     1      30.156   0.543  53.463  1.00  0.00    -0.380 N 
HETATM   22  H1  UNL     1      30.491   1.518  53.629  1.00  0.00     0.158 HD
HETATM   23  H2  UNL     1      30.852  -0.220  53.377  1.00  0.00     0.158 HD
ENDBRANCH   1  21
TORSDOF 3
ENDMDL
MODEL 7
REMARK VINA RESULT:      -7.1      3.912      5.630
REMARK  3 active torsions:
REMARK  status: ('A' for Active; 'I' for Inactive)
REMARK    1  A    between atoms: N1_1  and  C1_2 
REMARK    2  A    between atoms: C6_9  and  N4_10 
REMARK    3  A    between atoms: N4_10  and  C7_11 
ROOT
HETATM    1  C1  UNL     1      26.551   0.281  54.399  1.00  0.00     0.140 A 
HETATM    2  C2  UNL     1      25.663  -0.680  54.173  1.00  0.00     0.058 A 
HETATM    3  C3  UNL     1      24.386  -0.415  53.525  1.00  0.00     0.037 A 
HETATM    4  C4  UNL     1      23.833   0.690  53.054  1.00  0.00     0.074 A 
HETATM    5  N2  UNL     1      22.622   0.547  52.513  1.00  0.00    -0.241 NA
HETATM    6  C5  UNL     1      21.940   1.607  51.983  1.00  0.00     0.236 A 
HETATM    7  N3  UNL     1      22.482   2.835  51.996  1.00  0.00    -0.223 NA
HETATM    8  C6  UNL     1      23.708   3.034  52.534  1.00  0.00     0.143 A 
HETATM    9  C13 UNL     1      24.385   1.955  53.065  1.00  0.00     0.061 A 
HETATM   10  C14 UNL     1      25.536   2.411  53.511  1.00  0.00     0.162 A 
HETATM   11  O1  UNL     1      26.531   1.649  54.123  1.00  0.00    -0.305 OA
ENDROOT
BRANCH   8  12
HETATM   12  N4  UNL     1      24.121   4.385  52.451  1.00  0.00    -0.340 N 
HETATM   13  H6  UNL     1      24.266   4.932  53.347  1.00  0.00     0.167 HD
BRANCH  12  14
HETATM   14  C7  UNL     1      24.348   5.035  51.220  1.00  0.00     0.035 A 
HETATM   15  C8  UNL     1      25.235   4.551  50.281  1.00  0.00     0.029 A 
HETATM   16  C9  UNL     1      25.486   5.181  49.055  1.00  0.00     0.004 A 
HETATM   17  C10 UNL     1      24.803   6.358  48.765  1.00  0.00     0.019 A 
HETATM   18  C11 UNL     1      23.927   6.837  49.691  1.00  0.00     0.013 A 
HETATM   19 BR1  UNL     1      22.953   8.443  49.375  1.00  0.00    -0.051 Br
HETATM   20  C12 UNL     1      23.690   6.202  50.899  1.00  0.00     0.048 A 
ENDBRANCH  12  14
ENDBRANCH   8  12
BRANCH   1  21
HETATM   21  N1  UNL     1      27.772  -0.101  55.044  1.00  0.00    -0.380 N 
HETATM   22  H1  UNL     1      28.596   0.374  54.613  1.00  0.00     0.158 HD
HETATM   23  H2  UNL     1      27.925  -0.751  55.837  1.00  0.00     0.158 HD
ENDBRANCH   1  21
TORSDOF 3
ENDMDL
MODEL 8
REMARK VINA RESULT:      -7.1      2.849      4.122
REMARK  3 active torsions:
REMARK  status: ('A' for Active; 'I' for Inactive)
REMARK    1  A    between atoms: N1_1  and  C1_2 
REMARK    2  A    between atoms: C6_9  and  N4_10 
REMARK    3  A    between atoms: N4_10  and  C7_11 
ROOT
HETATM    1  C1  UNL     1      28.858   1.716  54.486  1.00  0.00     0.140 A 
HETATM    2  C2  UNL     1      28.764   0.431  54.798  1.00  0.00     0.058 A 
HETATM    3  C3  UNL     1      27.525  -0.317  54.635  1.00  0.00     0.037 A 
HETATM    4  C4  UNL     1      26.324   0.025  54.200  1.00  0.00     0.074 A 
HETATM    5  N2  UNL     1      25.412  -0.948  54.188  1.00  0.00    -0.241 NA
HETATM    6  C5  UNL     1      24.133  -0.732  53.756  1.00  0.00     0.236 A 
HETATM    7  N3  UNL     1      23.759   0.484  53.327  1.00  0.00    -0.223 NA
HETATM    8  C6  UNL     1      24.646   1.507  53.319  1.00  0.00     0.143 A 
HETATM    9  C13 UNL     1      25.934   1.274  53.757  1.00  0.00     0.061 A 
HETATM   10  C14 UNL     1      26.585   2.412  53.645  1.00  0.00     0.162 A 
HETATM   11  O1  UNL     1      27.924   2.621  53.977  1.00  0.00    -0.305 OA
ENDROOT
BRANCH   8  12
HETATM   12  N4  UNL     1      24.082   2.708  52.827  1.00  0.00    -0.340 N 
HETATM   13  H6  UNL     1      23.821   3.470  53.516  1.00  0.00     0.167 HD
BRANCH  12  14
HETATM   14  C7  UNL     1      23.852   2.931  51.453  1.00  0.00     0.035 A 
HETATM   15  C8  UNL     1      24.568   3.858  50.725  1.00  0.00     0.029 A 
HETATM   16  C9  UNL     1      24.354   4.106  49.363  1.00  0.00     0.004 A 
HETATM   17  C10 UNL     1      23.368   3.378  48.705  1.00  0.00     0.019 A 
HETATM   18  C11 UNL     1      22.660   2.462  49.424  1.00  0.00     0.013 A 
HETATM   19 BR1  UNL     1      21.291   1.423  48.602  1.00  0.00    -0.051 Br
HETATM   20  C12 UNL     1      22.884   2.228  50.770  1.00  0.00     0.048 A 
ENDBRANCH  12  14
ENDBRANCH   8  12
BRANCH   1  21
HETATM   21  N1  UNL     1      30.130   2.344  54.689  1.00  0.00    -0.380 N 
HETATM   22  H1  UNL     1      30.834   1.668  55.062  1.00  0.00     0.158 HD
HETATM   23  H2  UNL     1      30.417   3.325  54.519  1.00  0.00     0.158 HD
ENDBRANCH   1  21
TORSDOF 3
ENDMDL
MODEL 9
REMARK VINA RESULT:      -7.0      3.398      6.380
REMARK  3 active torsions:
REMARK  status: ('A' for Active; 'I' for Inactive)
REMARK    1  A    between atoms: N1_1  and  C1_2 
REMARK    2  A    between atoms: C6_9  and  N4_10 
REMARK    3  A    between atoms: N4_10  and  C7_11 
ROOT
HETATM    1  C1  UNL     1      21.195  -0.567  53.907  1.00  0.00     0.140 A 
HETATM    2  C2  UNL     1      20.515   0.553  53.703  1.00  0.00     0.058 A 
HETATM    3  C3  UNL     1      21.103   1.703  53.029  1.00  0.00     0.037 A 
HETATM    4  C4  UNL     1      22.300   1.923  52.513  1.00  0.00     0.074 A 
HETATM    5  N2  UNL     1      22.483   3.123  51.962  1.00  0.00    -0.241 NA
HETATM    6  C5  UNL     1      23.672   3.479  51.387  1.00  0.00     0.236 A 
HETATM    7  N3  UNL     1      24.698   2.614  51.363  1.00  0.00    -0.223 NA
HETATM    8  C6  UNL     1      24.565   1.383  51.910  1.00  0.00     0.143 A 
HETATM    9  C13 UNL     1      23.359   1.037  52.486  1.00  0.00     0.061 A 
HETATM   10  C14 UNL     1      23.490  -0.194  52.931  1.00  0.00     0.162 A 
HETATM   11  O1  UNL     1      22.503  -0.934  53.582  1.00  0.00    -0.305 OA
ENDROOT
BRANCH   8  12
HETATM   12  N4  UNL     1      25.741   0.607  51.785  1.00  0.00    -0.340 N 
HETATM   13  H6  UNL     1      25.753  -0.198  51.095  1.00  0.00     0.167 HD
BRANCH  12  14
HETATM   14  C7  UNL     1      26.904   0.862  52.543  1.00  0.00     0.035 A 
HETATM   15  C8  UNL     1      27.212   2.118  53.022  1.00  0.00     0.029 A 
HETATM   16  C9  UNL     1      28.363   2.401  53.769  1.00  0.00     0.004 A 
HETATM   17  C10 UNL     1      29.244   1.359  54.047  1.00  0.00     0.019 A 
HETATM   18  C11 UNL     1      28.939   0.119  53.575  1.00  0.00     0.013 A 
HETATM   19 BR1  UNL     1      30.090  -1.362  53.908  1.00  0.00    -0.051 Br
HETATM   20  C12 UNL     1      27.797  -0.144  52.837  1.00  0.00     0.048 A 
ENDBRANCH  12  14
ENDBRANCH   8  12
BRANCH   1  21
HETATM   21  N1  UNL     1      20.510  -1.631  54.580  1.00  0.00    -0.380 N 
HETATM   22  H1  UNL     1      20.261  -2.402  53.921  1.00  0.00     0.158 HD
HETATM   23  H2  UNL     1      20.250  -1.720  55.579  1.00  0.00     0.158 HD
ENDBRANCH   1  21
TORSDOF 3
ENDMDL
