MODEL 1
REMARK VINA RESULT:      -8.4      0.000      0.000
REMARK  7 active torsions:
REMARK  status: ('A' for Active; 'I' for Inactive)
REMARK    1  A    between atoms: N1_2  and  C3_4 
REMARK    2  A    between atoms: C4_5  and  C5_6 
REMARK       I    between atoms: C5_6  and  N2_8 
REMARK    3  A    between atoms: C12_18  and  N5_19 
REMARK    4  A    between atoms: N5_19  and  C13_20 
REMARK    5  A    between atoms: C13_20  and  C14_21 
REMARK    6  A    between atoms: C13_20  and  C15_23 
REMARK    7  A    between atoms: C14_21  and  O2_22 
ROOT
HETATM    1  C5  UNL     1      24.009   4.032  49.451  1.00  0.00     0.244 C 
HETATM    2  O1  UNL     1      25.223   3.823  49.314  1.00  0.00    -0.268 OA
HETATM    3  N2  UNL     1      23.593   3.918  50.804  1.00  0.00    -0.344 N 
HETATM    4  C6  UNL     1      24.500   3.597  51.863  1.00  0.00     0.131 C 
HETATM    5  C7  UNL     1      24.292   2.167  52.300  1.00  0.00     0.060 C 
HETATM    6  C8  UNL     1      22.855   1.855  52.506  1.00  0.00    -0.025 A 
HETATM    7  C9  UNL     1      21.985   2.842  52.102  1.00  0.00     0.010 A 
HETATM    8  S1  UNL     1      20.386   2.221  52.544  1.00  0.00    -0.072 SA
HETATM    9  C10 UNL     1      20.989   0.641  53.257  1.00  0.00     0.114 A 
HETATM   10  N3  UNL     1      20.312  -0.375  53.803  1.00  0.00    -0.234 NA
HETATM   11  C11 UNL     1      20.936  -1.466  54.267  1.00  0.00     0.236 A 
HETATM   12  N4  UNL     1      22.256  -1.432  54.130  1.00  0.00    -0.224 NA
HETATM   13  C12 UNL     1      22.943  -0.432  53.590  1.00  0.00     0.139 A 
HETATM   14  C21 UNL     1      22.385   0.715  53.097  1.00  0.00     0.053 A 
HETATM   15  C22 UNL     1      22.284   4.075  51.446  1.00  0.00     0.172 C 
ENDROOT
BRANCH  13  16
HETATM   16  N5  UNL     1      24.342  -0.699  53.516  1.00  0.00    -0.363 N 
HETATM   17  H14 UNL     1      24.913  -1.276  52.873  1.00  0.00     0.162 HD
BRANCH  16  18
HETATM   18  C13 UNL     1      25.300  -0.175  54.438  1.00  0.00     0.140 C 
BRANCH  18  19
HETATM   19  C14 UNL     1      25.160  -0.576  55.861  1.00  0.00     0.194 C 
BRANCH  19  20
HETATM   20  O2  UNL     1      24.849  -1.932  55.901  1.00  0.00    -0.399 OA
HETATM   21  H18 UNL     1      25.565  -2.474  56.279  1.00  0.00     0.209 HD
ENDBRANCH  19  20
ENDBRANCH  18  19
BRANCH  18  22
HETATM   22  C15 UNL     1      26.709  -0.515  54.024  1.00  0.00    -0.034 A 
HETATM   23  C16 UNL     1      27.674   0.202  54.730  1.00  0.00     0.009 A 
HETATM   24  C17 UNL     1      29.023   0.010  54.473  1.00  0.00     0.001 A 
HETATM   25  C18 UNL     1      29.408  -0.902  53.507  1.00  0.00     0.000 A 
HETATM   26  C19 UNL     1      28.440  -1.591  52.830  1.00  0.00     0.001 A 
HETATM   27  C20 UNL     1      27.092  -1.425  53.060  1.00  0.00     0.009 A 
ENDBRANCH  18  22
ENDBRANCH  16  18
ENDBRANCH  13  16
BRANCH   1  28
HETATM   28  C4  UNL     1      23.059   4.361  48.400  1.00  0.00     0.091 C 
HETATM   29  C3  UNL     1      22.348   3.393  47.878  1.00  0.00     0.090 C 
BRANCH  29  30
HETATM   30  N1  UNL     1      21.367   3.464  46.852  1.00  0.00    -0.398 N 
HETATM   31  C1  UNL     1      21.672   3.813  45.473  1.00  0.00     0.148 C 
HETATM   32  C2  UNL     1      19.930   3.206  47.012  1.00  0.00     0.148 C 
ENDBRANCH  29  30
ENDBRANCH   1  28
TORSDOF 7
ENDMDL
MODEL 2
REMARK VINA RESULT:      -8.1      3.136      5.932
REMARK  7 active torsions:
REMARK  status: ('A' for Active; 'I' for Inactive)
REMARK    1  A    between atoms: N1_2  and  C3_4 
REMARK    2  A    between atoms: C4_5  and  C5_6 
REMARK       I    between atoms: C5_6  and  N2_8 
REMARK    3  A    between atoms: C12_18  and  N5_19 
REMARK    4  A    between atoms: N5_19  and  C13_20 
REMARK    5  A    between atoms: C13_20  and  C14_21 
REMARK    6  A    between atoms: C13_20  and  C15_23 
REMARK    7  A    between atoms: C14_21  and  O2_22 
ROOT
HETATM    1  C5  UNL     1      23.437   6.428  50.622  1.00  0.00     0.244 C 
HETATM    2  O1  UNL     1      22.243   6.604  50.909  1.00  0.00    -0.268 OA
HETATM    3  N2  UNL     1      23.683   5.118  50.130  1.00  0.00    -0.344 N 
HETATM    4  C6  UNL     1      22.648   4.139  49.994  1.00  0.00     0.131 C 
HETATM    5  C7  UNL     1      22.771   3.109  51.090  1.00  0.00     0.060 C 
HETATM    6  C8  UNL     1      24.165   2.620  51.236  1.00  0.00    -0.025 A 
HETATM    7  C9  UNL     1      25.098   3.303  50.491  1.00  0.00     0.010 A 
HETATM    8  S1  UNL     1      26.618   2.450  50.809  1.00  0.00    -0.072 SA
HETATM    9  C10 UNL     1      25.899   1.204  51.949  1.00  0.00     0.114 A 
HETATM   10  N3  UNL     1      26.483   0.198  52.608  1.00  0.00    -0.234 NA
HETATM   11  C11 UNL     1      25.784  -0.613  53.414  1.00  0.00     0.236 A 
HETATM   12  N4  UNL     1      24.491  -0.319  53.485  1.00  0.00    -0.224 NA
HETATM   13  C12 UNL     1      23.896   0.676  52.837  1.00  0.00     0.139 A 
HETATM   14  C21 UNL     1      24.535   1.544  51.996  1.00  0.00     0.053 A 
HETATM   15  C22 UNL     1      24.908   4.456  49.670  1.00  0.00     0.172 C 
ENDROOT
BRANCH  13  16
HETATM   16  N5  UNL     1      22.511   0.793  53.156  1.00  0.00    -0.363 N 
HETATM   17  H14 UNL     1      21.880   1.609  53.253  1.00  0.00     0.162 HD
BRANCH  16  18
HETATM   18  C13 UNL     1      21.667  -0.322  53.451  1.00  0.00     0.140 C 
BRANCH  18  19
HETATM   19  C14 UNL     1      21.351  -0.571  54.881  1.00  0.00     0.194 C 
BRANCH  19  20
HETATM   20  O2  UNL     1      22.202  -1.571  55.345  1.00  0.00    -0.399 OA
HETATM   21  H18 UNL     1      22.508  -2.167  54.638  1.00  0.00     0.209 HD
ENDBRANCH  19  20
ENDBRANCH  18  19
BRANCH  18  22
HETATM   22  C15 UNL     1      20.352  -0.229  52.721  1.00  0.00    -0.034 A 
HETATM   23  C16 UNL     1      20.459   0.391  51.477  1.00  0.00     0.009 A 
HETATM   24  C17 UNL     1      19.342   0.558  50.674  1.00  0.00     0.001 A 
HETATM   25  C18 UNL     1      18.113   0.103  51.116  1.00  0.00     0.000 A 
HETATM   26  C19 UNL     1      18.036  -0.501  52.341  1.00  0.00     0.001 A 
HETATM   27  C20 UNL     1      19.126  -0.683  53.164  1.00  0.00     0.009 A 
ENDBRANCH  18  22
ENDBRANCH  16  18
ENDBRANCH  13  16
BRANCH   1  28
HETATM   28  C4  UNL     1      24.514   7.396  50.746  1.00  0.00     0.091 C 
HETATM   29  C3  UNL     1      24.820   8.126  49.701  1.00  0.00     0.090 C 
BRANCH  29  30
HETATM   30  N1  UNL     1      25.821   9.126  49.578  1.00  0.00    -0.398 N 
HETATM   31  C1  UNL     1      27.070   9.107  50.323  1.00  0.00     0.148 C 
HETATM   32  C2  UNL     1      25.760  10.305  48.705  1.00  0.00     0.148 C 
ENDBRANCH  29  30
ENDBRANCH   1  28
TORSDOF 7
ENDMDL
MODEL 3
REMARK VINA RESULT:      -8.1      1.868      2.128
REMARK  7 active torsions:
REMARK  status: ('A' for Active; 'I' for Inactive)
REMARK    1  A    between atoms: N1_2  and  C3_4 
REMARK    2  A    between atoms: C4_5  and  C5_6 
REMARK       I    between atoms: C5_6  and  N2_8 
REMARK    3  A    between atoms: C12_18  and  N5_19 
REMARK    4  A    between atoms: N5_19  and  C13_20 
REMARK    5  A    between atoms: C13_20  and  C14_21 
REMARK    6  A    between atoms: C13_20  and  C15_23 
REMARK    7  A    between atoms: C14_21  and  O2_22 
ROOT
HETATM    1  C5  UNL     1      22.928   5.584  49.580  1.00  0.00     0.244 C 
HETATM    2  O1  UNL     1      24.095   6.002  49.591  1.00  0.00    -0.268 OA
HETATM    3  N2  UNL     1      22.504   5.138  50.860  1.00  0.00    -0.344 N 
HETATM    4  C6  UNL     1      23.356   5.181  52.010  1.00  0.00     0.131 C 
HETATM    5  C7  UNL     1      23.840   3.790  52.342  1.00  0.00     0.060 C 
HETATM    6  C8  UNL     1      22.730   2.804  52.344  1.00  0.00    -0.025 A 
HETATM    7  C9  UNL     1      21.527   3.286  51.882  1.00  0.00     0.010 A 
HETATM    8  S1  UNL     1      20.408   1.928  52.081  1.00  0.00    -0.072 SA
HETATM    9  C10 UNL     1      21.644   0.767  52.783  1.00  0.00     0.114 A 
HETATM   10  N3  UNL     1      21.509  -0.501  53.184  1.00  0.00    -0.234 NA
HETATM   11  C11 UNL     1      22.545  -1.199  53.668  1.00  0.00     0.236 A 
HETATM   12  N4  UNL     1      23.684  -0.519  53.705  1.00  0.00    -0.224 NA
HETATM   13  C12 UNL     1      23.836   0.741  53.310  1.00  0.00     0.139 A 
HETATM   14  C21 UNL     1      22.832   1.522  52.809  1.00  0.00     0.053 A 
HETATM   15  C22 UNL     1      21.237   4.573  51.334  1.00  0.00     0.172 C 
ENDROOT
BRANCH  13  16
HETATM   16  N5  UNL     1      25.186   1.191  53.404  1.00  0.00    -0.363 N 
HETATM   17  H14 UNL     1      25.704   1.703  54.140  1.00  0.00     0.162 HD
BRANCH  16  18
HETATM   18  C13 UNL     1      26.156   1.012  52.371  1.00  0.00     0.140 C 
BRANCH  18  19
HETATM   19  C14 UNL     1      27.066   2.152  52.093  1.00  0.00     0.194 C 
BRANCH  19  20
HETATM   20  O2  UNL     1      26.905   2.520  50.760  1.00  0.00    -0.399 OA
HETATM   21  H18 UNL     1      27.415   1.960  50.147  1.00  0.00     0.209 HD
ENDBRANCH  19  20
ENDBRANCH  18  19
BRANCH  18  22
HETATM   22  C15 UNL     1      27.027  -0.190  52.632  1.00  0.00    -0.034 A 
HETATM   23  C16 UNL     1      28.258   0.139  53.199  1.00  0.00     0.009 A 
HETATM   24  C17 UNL     1      29.180  -0.849  53.504  1.00  0.00     0.001 A 
HETATM   25  C18 UNL     1      28.872  -2.172  53.240  1.00  0.00     0.000 A 
HETATM   26  C19 UNL     1      27.658  -2.466  52.683  1.00  0.00     0.001 A 
HETATM   27  C20 UNL     1      26.719  -1.509  52.368  1.00  0.00     0.009 A 
ENDBRANCH  18  22
ENDBRANCH  16  18
ENDBRANCH  13  16
BRANCH   1  28
HETATM   28  C4  UNL     1      22.035   5.525  48.434  1.00  0.00     0.091 C 
HETATM   29  C3  UNL     1      21.983   4.416  47.740  1.00  0.00     0.090 C 
BRANCH  29  30
HETATM   30  N1  UNL     1      21.197   4.119  46.594  1.00  0.00    -0.398 N 
HETATM   31  C1  UNL     1      21.753   3.969  45.258  1.00  0.00     0.148 C 
HETATM   32  C2  UNL     1      19.742   3.922  46.571  1.00  0.00     0.148 C 
ENDBRANCH  29  30
ENDBRANCH   1  28
TORSDOF 7
ENDMDL
MODEL 4
REMARK VINA RESULT:      -7.9      5.021      8.463
REMARK  7 active torsions:
REMARK  status: ('A' for Active; 'I' for Inactive)
REMARK    1  A    between atoms: N1_2  and  C3_4 
REMARK    2  A    between atoms: C4_5  and  C5_6 
REMARK       I    between atoms: C5_6  and  N2_8 
REMARK    3  A    between atoms: C12_18  and  N5_19 
REMARK    4  A    between atoms: N5_19  and  C13_20 
REMARK    5  A    between atoms: C13_20  and  C14_21 
REMARK    6  A    between atoms: C13_20  and  C15_23 
REMARK    7  A    between atoms: C14_21  and  O2_22 
ROOT
HETATM    1  C5  UNL     1      25.064   2.453  51.851  1.00  0.00     0.244 C 
HETATM    2  O1  UNL     1      26.184   2.251  52.343  1.00  0.00    -0.268 OA
HETATM    3  N2  UNL     1      25.140   2.858  50.491  1.00  0.00    -0.344 N 
HETATM    4  C6  UNL     1      26.385   3.006  49.801  1.00  0.00     0.131 C 
HETATM    5  C7  UNL     1      26.709   4.471  49.637  1.00  0.00     0.060 C 
HETATM    6  C8  UNL     1      25.545   5.242  49.131  1.00  0.00    -0.025 A 
HETATM    7  C9  UNL     1      24.365   4.537  49.074  1.00  0.00     0.010 A 
HETATM    8  S1  UNL     1      23.209   5.678  48.368  1.00  0.00    -0.072 SA
HETATM    9  C10 UNL     1      24.399   7.064  48.190  1.00  0.00     0.114 A 
HETATM   10  N3  UNL     1      24.221   8.300  47.712  1.00  0.00    -0.234 NA
HETATM   11  C11 UNL     1      25.223   9.188  47.670  1.00  0.00     0.236 A 
HETATM   12  N4  UNL     1      26.375   8.725  48.139  1.00  0.00    -0.224 NA
HETATM   13  C12 UNL     1      26.569   7.500  48.617  1.00  0.00     0.139 A 
HETATM   14  C21 UNL     1      25.603   6.536  48.692  1.00  0.00     0.053 A 
HETATM   15  C22 UNL     1      24.106   3.201  49.509  1.00  0.00     0.172 C 
ENDROOT
BRANCH  13  16
HETATM   16  N5  UNL     1      27.892   7.303  49.111  1.00  0.00    -0.363 N 
HETATM   17  H14 UNL     1      28.269   6.763  49.911  1.00  0.00     0.162 HD
BRANCH  16  18
HETATM   18  C13 UNL     1      29.053   7.905  48.535  1.00  0.00     0.140 C 
BRANCH  18  19
HETATM   19  C14 UNL     1      29.620   9.086  49.234  1.00  0.00     0.194 C 
BRANCH  19  20
HETATM   20  O2  UNL     1      28.740   9.454  50.248  1.00  0.00    -0.399 OA
HETATM   21  H18 UNL     1      28.978   9.075  51.113  1.00  0.00     0.209 HD
ENDBRANCH  19  20
ENDBRANCH  18  19
BRANCH  18  22
HETATM   22  C15 UNL     1      30.173   6.908  48.378  1.00  0.00    -0.034 A 
HETATM   23  C16 UNL     1      31.385   7.362  48.896  1.00  0.00     0.009 A 
HETATM   24  C17 UNL     1      32.520   6.568  48.835  1.00  0.00     0.001 A 
HETATM   25  C18 UNL     1      32.442   5.316  48.252  1.00  0.00     0.000 A 
HETATM   26  C19 UNL     1      31.241   4.896  47.752  1.00  0.00     0.001 A 
HETATM   27  C20 UNL     1      30.094   5.660  47.797  1.00  0.00     0.009 A 
ENDBRANCH  18  22
ENDBRANCH  16  18
ENDBRANCH  13  16
BRANCH   1  28
HETATM   28  C4  UNL     1      23.781   2.312  52.520  1.00  0.00     0.091 C 
HETATM   29  C3  UNL     1      23.296   1.108  52.693  1.00  0.00     0.090 C 
BRANCH  29  30
HETATM   30  N1  UNL     1      22.077   0.720  53.311  1.00  0.00    -0.398 N 
HETATM   31  C1  UNL     1      20.786   1.301  52.973  1.00  0.00     0.148 C 
HETATM   32  C2  UNL     1      21.925  -0.298  54.358  1.00  0.00     0.148 C 
ENDBRANCH  29  30
ENDBRANCH   1  28
TORSDOF 7
ENDMDL
MODEL 5
REMARK VINA RESULT:      -7.6      8.919     11.995
REMARK  7 active torsions:
REMARK  status: ('A' for Active; 'I' for Inactive)
REMARK    1  A    between atoms: N1_2  and  C3_4 
REMARK    2  A    between atoms: C4_5  and  C5_6 
REMARK       I    between atoms: C5_6  and  N2_8 
REMARK    3  A    between atoms: C12_18  and  N5_19 
REMARK    4  A    between atoms: N5_19  and  C13_20 
REMARK    5  A    between atoms: C13_20  and  C14_21 
REMARK    6  A    between atoms: C13_20  and  C15_23 
REMARK    7  A    between atoms: C14_21  and  O2_22 
ROOT
HETATM    1  C5  UNL     1      32.919   4.151  46.340  1.00  0.00     0.244 C 
HETATM    2  O1  UNL     1      32.058   3.317  46.658  1.00  0.00    -0.268 OA
HETATM    3  N2  UNL     1      33.126   5.123  47.355  1.00  0.00    -0.344 N 
HETATM    4  C6  UNL     1      32.405   5.110  48.591  1.00  0.00     0.131 C 
HETATM    5  C7  UNL     1      31.362   6.201  48.588  1.00  0.00     0.060 C 
HETATM    6  C8  UNL     1      31.919   7.498  48.130  1.00  0.00    -0.025 A 
HETATM    7  C9  UNL     1      33.202   7.434  47.636  1.00  0.00     0.010 A 
HETATM    8  S1  UNL     1      33.608   9.116  47.258  1.00  0.00    -0.072 SA
HETATM    9  C10 UNL     1      31.999   9.822  47.791  1.00  0.00     0.114 A 
HETATM   10  N3  UNL     1      31.567  11.087  47.788  1.00  0.00    -0.234 NA
HETATM   11  C11 UNL     1      30.338  11.410  48.214  1.00  0.00     0.236 A 
HETATM   12  N4  UNL     1      29.620  10.374  48.626  1.00  0.00    -0.224 NA
HETATM   13  C12 UNL     1      30.034   9.111  48.636  1.00  0.00     0.139 A 
HETATM   14  C21 UNL     1      31.270   8.698  48.222  1.00  0.00     0.053 A 
HETATM   15  C22 UNL     1      34.021   6.281  47.438  1.00  0.00     0.172 C 
ENDROOT
BRANCH  13  16
HETATM   16  N5  UNL     1      29.025   8.202  49.071  1.00  0.00    -0.363 N 
HETATM   17  H14 UNL     1      28.945   7.589  49.902  1.00  0.00     0.162 HD
BRANCH  16  18
HETATM   18  C13 UNL     1      27.829   7.933  48.337  1.00  0.00     0.140 C 
BRANCH  18  19
HETATM   19  C14 UNL     1      27.917   7.986  46.856  1.00  0.00     0.194 C 
BRANCH  19  20
HETATM   20  O2  UNL     1      27.465   9.235  46.439  1.00  0.00    -0.399 OA
HETATM   21  H18 UNL     1      26.688   9.181  45.854  1.00  0.00     0.209 HD
ENDBRANCH  19  20
ENDBRANCH  18  19
BRANCH  18  22
HETATM   22  C15 UNL     1      27.252   6.586  48.694  1.00  0.00    -0.034 A 
HETATM   23  C16 UNL     1      25.959   6.664  49.208  1.00  0.00     0.009 A 
HETATM   24  C17 UNL     1      25.280   5.517  49.587  1.00  0.00     0.001 A 
HETATM   25  C18 UNL     1      25.898   4.286  49.452  1.00  0.00     0.000 A 
HETATM   26  C19 UNL     1      27.167   4.239  48.946  1.00  0.00     0.001 A 
HETATM   27  C20 UNL     1      27.869   5.360  48.560  1.00  0.00     0.009 A 
ENDBRANCH  18  22
ENDBRANCH  16  18
ENDBRANCH  13  16
BRANCH   1  28
HETATM   28  C4  UNL     1      33.670   4.195  45.096  1.00  0.00     0.091 C 
HETATM   29  C3  UNL     1      33.130   4.792  44.062  1.00  0.00     0.090 C 
BRANCH  29  30
HETATM   30  N1  UNL     1      33.662   4.963  42.756  1.00  0.00    -0.398 N 
HETATM   31  C1  UNL     1      34.779   5.845  42.454  1.00  0.00     0.148 C 
HETATM   32  C2  UNL     1      33.186   4.299  41.536  1.00  0.00     0.148 C 
ENDBRANCH  29  30
ENDBRANCH   1  28
TORSDOF 7
ENDMDL
MODEL 6
REMARK VINA RESULT:      -7.6      2.994      8.100
REMARK  7 active torsions:
REMARK  status: ('A' for Active; 'I' for Inactive)
REMARK    1  A    between atoms: N1_2  and  C3_4 
REMARK    2  A    between atoms: C4_5  and  C5_6 
REMARK       I    between atoms: C5_6  and  N2_8 
REMARK    3  A    between atoms: C12_18  and  N5_19 
REMARK    4  A    between atoms: N5_19  and  C13_20 
REMARK    5  A    between atoms: C13_20  and  C14_21 
REMARK    6  A    between atoms: C13_20  and  C15_23 
REMARK    7  A    between atoms: C14_21  and  O2_22 
ROOT
HETATM    1  C5  UNL     1      24.944  -0.115  53.048  1.00  0.00     0.244 C 
HETATM    2  O1  UNL     1      24.199  -0.960  53.566  1.00  0.00    -0.268 OA
HETATM    3  N2  UNL     1      24.263   1.099  52.763  1.00  0.00    -0.344 N 
HETATM    4  C6  UNL     1      22.875   1.290  53.054  1.00  0.00     0.131 C 
HETATM    5  C7  UNL     1      22.071   1.232  51.778  1.00  0.00     0.060 C 
HETATM    6  C8  UNL     1      22.671   2.069  50.708  1.00  0.00    -0.025 A 
HETATM    7  C9  UNL     1      23.909   2.588  51.006  1.00  0.00     0.010 A 
HETATM    8  S1  UNL     1      24.314   3.584  49.599  1.00  0.00    -0.072 SA
HETATM    9  C10 UNL     1      22.768   3.236  48.672  1.00  0.00     0.114 A 
HETATM   10  N3  UNL     1      22.365   3.665  47.472  1.00  0.00    -0.234 NA
HETATM   11  C11 UNL     1      21.190   3.290  46.950  1.00  0.00     0.236 A 
HETATM   12  N4  UNL     1      20.491   2.472  47.727  1.00  0.00    -0.224 NA
HETATM   13  C12 UNL     1      20.877   2.036  48.921  1.00  0.00     0.139 A 
HETATM   14  C21 UNL     1      22.056   2.374  49.525  1.00  0.00     0.053 A 
HETATM   15  C22 UNL     1      24.713   2.360  52.165  1.00  0.00     0.172 C 
ENDROOT
BRANCH  13  16
HETATM   16  N5  UNL     1      19.952   1.117  49.499  1.00  0.00    -0.363 N 
HETATM   17  H14 UNL     1      19.916   0.082  49.525  1.00  0.00     0.162 HD
BRANCH  16  18
HETATM   18  C13 UNL     1      18.772   1.513  50.200  1.00  0.00     0.140 C 
BRANCH  18  19
HETATM   19  C14 UNL     1      17.579   1.848  49.381  1.00  0.00     0.194 C 
BRANCH  19  20
HETATM   20  O2  UNL     1      17.687   3.177  48.981  1.00  0.00    -0.399 OA
HETATM   21  H18 UNL     1      18.596   3.426  48.733  1.00  0.00     0.209 HD
ENDBRANCH  19  20
ENDBRANCH  18  19
BRANCH  18  22
HETATM   22  C15 UNL     1      18.341   0.465  51.195  1.00  0.00    -0.034 A 
HETATM   23  C16 UNL     1      17.072  -0.050  50.931  1.00  0.00     0.009 A 
HETATM   24  C17 UNL     1      16.523  -1.025  51.749  1.00  0.00     0.001 A 
HETATM   25  C18 UNL     1      17.245  -1.485  52.836  1.00  0.00     0.000 A 
HETATM   26  C19 UNL     1      18.486  -0.962  53.072  1.00  0.00     0.001 A 
HETATM   27  C20 UNL     1      19.061   0.007  52.278  1.00  0.00     0.009 A 
ENDBRANCH  18  22
ENDBRANCH  16  18
ENDBRANCH  13  16
BRANCH   1  28
HETATM   28  C4  UNL     1      26.356  -0.272  52.738  1.00  0.00     0.091 C 
HETATM   29  C3  UNL     1      27.221  -0.200  53.719  1.00  0.00     0.090 C 
BRANCH  29  30
HETATM   30  N1  UNL     1      28.636  -0.320  53.667  1.00  0.00    -0.398 N 
HETATM   31  C1  UNL     1      29.544   0.795  53.886  1.00  0.00     0.148 C 
HETATM   32  C2  UNL     1      29.389  -1.551  53.393  1.00  0.00     0.148 C 
ENDBRANCH  29  30
ENDBRANCH   1  28
TORSDOF 7
ENDMDL
MODEL 7
REMARK VINA RESULT:      -7.5      3.436      5.488
REMARK  7 active torsions:
REMARK  status: ('A' for Active; 'I' for Inactive)
REMARK    1  A    between atoms: N1_2  and  C3_4 
REMARK    2  A    between atoms: C4_5  and  C5_6 
REMARK       I    between atoms: C5_6  and  N2_8 
REMARK    3  A    between atoms: C12_18  and  N5_19 
REMARK    4  A    between atoms: N5_19  and  C13_20 
REMARK    5  A    between atoms: C13_20  and  C14_21 
REMARK    6  A    between atoms: C13_20  and  C15_23 
REMARK    7  A    between atoms: C14_21  and  O2_22 
ROOT
HETATM    1  C5  UNL     1      19.179   1.725  51.003  1.00  0.00     0.244 C 
HETATM    2  O1  UNL     1      19.416   0.751  51.732  1.00  0.00    -0.268 OA
HETATM    3  N2  UNL     1      20.096   1.824  49.922  1.00  0.00    -0.344 N 
HETATM    4  C6  UNL     1      21.160   0.887  49.729  1.00  0.00     0.131 C 
HETATM    5  C7  UNL     1      22.474   1.515  50.123  1.00  0.00     0.060 C 
HETATM    6  C8  UNL     1      22.637   2.870  49.540  1.00  0.00    -0.025 A 
HETATM    7  C9  UNL     1      21.519   3.367  48.912  1.00  0.00     0.010 A 
HETATM    8  S1  UNL     1      22.042   4.930  48.262  1.00  0.00    -0.072 SA
HETATM    9  C10 UNL     1      23.764   4.826  48.888  1.00  0.00     0.114 A 
HETATM   10  N3  UNL     1      24.778   5.689  48.775  1.00  0.00    -0.234 NA
HETATM   11  C11 UNL     1      25.979   5.438  49.315  1.00  0.00     0.236 A 
HETATM   12  N4  UNL     1      26.051   4.277  49.954  1.00  0.00    -0.224 NA
HETATM   13  C12 UNL     1      25.053   3.408  50.075  1.00  0.00     0.139 A 
HETATM   14  C21 UNL     1      23.802   3.586  49.553  1.00  0.00     0.053 A 
HETATM   15  C22 UNL     1      20.218   2.785  48.821  1.00  0.00     0.172 C 
ENDROOT
BRANCH  13  16
HETATM   16  N5  UNL     1      25.400   2.276  50.870  1.00  0.00    -0.363 N 
HETATM   17  H14 UNL     1      25.381   1.257  50.685  1.00  0.00     0.162 HD
BRANCH  16  18
HETATM   18  C13 UNL     1      25.863   2.364  52.219  1.00  0.00     0.140 C 
BRANCH  18  19
HETATM   19  C14 UNL     1      24.832   2.480  53.282  1.00  0.00     0.194 C 
BRANCH  19  20
HETATM   20  O2  UNL     1      24.513   3.827  53.430  1.00  0.00    -0.399 OA
HETATM   21  H18 UNL     1      24.406   4.288  52.578  1.00  0.00     0.209 HD
ENDBRANCH  19  20
ENDBRANCH  18  19
BRANCH  18  22
HETATM   22  C15 UNL     1      26.737   1.190  52.582  1.00  0.00    -0.034 A 
HETATM   23  C16 UNL     1      27.939   1.568  53.178  1.00  0.00     0.009 A 
HETATM   24  C17 UNL     1      28.860   0.611  53.575  1.00  0.00     0.001 A 
HETATM   25  C18 UNL     1      28.578  -0.728  53.374  1.00  0.00     0.000 A 
HETATM   26  C19 UNL     1      27.391  -1.070  52.787  1.00  0.00     0.001 A 
HETATM   27  C20 UNL     1      26.454  -0.145  52.381  1.00  0.00     0.009 A 
ENDBRANCH  18  22
ENDBRANCH  16  18
ENDBRANCH  13  16
BRANCH   1  28
HETATM   28  C4  UNL     1      18.109   2.697  51.168  1.00  0.00     0.091 C 
HETATM   29  C3  UNL     1      16.925   2.266  51.525  1.00  0.00     0.090 C 
BRANCH  29  30
HETATM   30  N1  UNL     1      15.737   3.012  51.747  1.00  0.00    -0.398 N 
HETATM   31  C1  UNL     1      14.472   2.720  51.090  1.00  0.00     0.148 C 
HETATM   32  C2  UNL     1      15.595   4.163  52.648  1.00  0.00     0.148 C 
ENDBRANCH  29  30
ENDBRANCH   1  28
TORSDOF 7
ENDMDL
MODEL 8
REMARK VINA RESULT:      -7.0     17.426     20.152
REMARK  7 active torsions:
REMARK  status: ('A' for Active; 'I' for Inactive)
REMARK    1  A    between atoms: N1_2  and  C3_4 
REMARK    2  A    between atoms: C4_5  and  C5_6 
REMARK       I    between atoms: C5_6  and  N2_8 
REMARK    3  A    between atoms: C12_18  and  N5_19 
REMARK    4  A    between atoms: N5_19  and  C13_20 
REMARK    5  A    between atoms: C13_20  and  C14_21 
REMARK    6  A    between atoms: C13_20  and  C15_23 
REMARK    7  A    between atoms: C14_21  and  O2_22 
ROOT
HETATM    1  C5  UNL     1      44.171   8.661  48.740  1.00  0.00     0.244 C 
HETATM    2  O1  UNL     1      45.318   8.611  49.208  1.00  0.00    -0.268 OA
HETATM    3  N2  UNL     1      43.248   9.256  49.642  1.00  0.00    -0.344 N 
HETATM    4  C6  UNL     1      43.635   9.732  50.935  1.00  0.00     0.131 C 
HETATM    5  C7  UNL     1      43.148   8.779  51.999  1.00  0.00     0.060 C 
HETATM    6  C8  UNL     1      41.725   8.407  51.799  1.00  0.00    -0.025 A 
HETATM    7  C9  UNL     1      41.173   8.844  50.617  1.00  0.00     0.010 A 
HETATM    8  S1  UNL     1      39.482   8.326  50.708  1.00  0.00    -0.072 SA
HETATM    9  C10 UNL     1      39.616   7.535  52.359  1.00  0.00     0.114 A 
HETATM   10  N3  UNL     1      38.694   6.904  53.092  1.00  0.00    -0.234 NA
HETATM   11  C11 UNL     1      38.988   6.376  54.288  1.00  0.00     0.236 A 
HETATM   12  N4  UNL     1      40.253   6.540  54.654  1.00  0.00    -0.224 NA
HETATM   13  C12 UNL     1      41.181   7.164  53.938  1.00  0.00     0.139 A 
HETATM   14  C21 UNL     1      40.964   7.733  52.714  1.00  0.00     0.053 A 
HETATM   15  C22 UNL     1      41.811   9.529  49.539  1.00  0.00     0.172 C 
ENDROOT
BRANCH  13  16
HETATM   16  N5  UNL     1      42.468   7.133  54.553  1.00  0.00    -0.363 N 
HETATM   17  H14 UNL     1      43.369   7.586  54.318  1.00  0.00     0.162 HD
BRANCH  16  18
HETATM   18  C13 UNL     1      42.773   6.362  55.717  1.00  0.00     0.140 C 
BRANCH  18  19
HETATM   19  C14 UNL     1      43.367   5.018  55.502  1.00  0.00     0.194 C 
BRANCH  19  20
HETATM   20  O2  UNL     1      42.337   4.132  55.199  1.00  0.00    -0.399 OA
HETATM   21  H18 UNL     1      42.641   3.209  55.123  1.00  0.00     0.209 HD
ENDBRANCH  19  20
ENDBRANCH  18  19
BRANCH  18  22
HETATM   22  C15 UNL     1      43.697   7.106  56.647  1.00  0.00    -0.034 A 
HETATM   23  C16 UNL     1      43.507   8.487  56.616  1.00  0.00     0.009 A 
HETATM   24  C17 UNL     1      44.275   9.322  57.412  1.00  0.00     0.001 A 
HETATM   25  C18 UNL     1      45.236   8.774  58.242  1.00  0.00     0.000 A 
HETATM   26  C19 UNL     1      45.402   7.417  58.252  1.00  0.00     0.001 A 
HETATM   27  C20 UNL     1      44.656   6.559  57.474  1.00  0.00     0.009 A 
ENDBRANCH  18  22
ENDBRANCH  16  18
ENDBRANCH  13  16
BRANCH   1  28
HETATM   28  C4  UNL     1      43.742   8.189  47.433  1.00  0.00     0.091 C 
HETATM   29  C3  UNL     1      43.778   9.024  46.425  1.00  0.00     0.090 C 
BRANCH  29  30
HETATM   30  N1  UNL     1      43.415   8.800  45.070  1.00  0.00    -0.398 N 
HETATM   31  C1  UNL     1      42.095   9.095  44.535  1.00  0.00     0.148 C 
HETATM   32  C2  UNL     1      44.284   8.250  44.022  1.00  0.00     0.148 C 
ENDBRANCH  29  30
ENDBRANCH   1  28
TORSDOF 7
ENDMDL
MODEL 9
REMARK VINA RESULT:      -7.0      2.786      3.576
REMARK  7 active torsions:
REMARK  status: ('A' for Active; 'I' for Inactive)
REMARK    1  A    between atoms: N1_2  and  C3_4 
REMARK    2  A    between atoms: C4_5  and  C5_6 
REMARK       I    between atoms: C5_6  and  N2_8 
REMARK    3  A    between atoms: C12_18  and  N5_19 
REMARK    4  A    between atoms: N5_19  and  C13_20 
REMARK    5  A    between atoms: C13_20  and  C14_21 
REMARK    6  A    between atoms: C13_20  and  C15_23 
REMARK    7  A    between atoms: C14_21  and  O2_22 
ROOT
HETATM    1  C5  UNL     1      23.198   7.137  48.783  1.00  0.00     0.244 C 
HETATM    2  O1  UNL     1      24.416   7.351  48.700  1.00  0.00    -0.268 OA
HETATM    3  N2  UNL     1      22.800   6.804  50.105  1.00  0.00    -0.344 N 
HETATM    4  C6  UNL     1      23.727   6.733  51.193  1.00  0.00     0.131 C 
HETATM    5  C7  UNL     1      23.994   5.290  51.546  1.00  0.00     0.060 C 
HETATM    6  C8  UNL     1      22.739   4.507  51.661  1.00  0.00    -0.025 A 
HETATM    7  C9  UNL     1      21.603   5.173  51.262  1.00  0.00     0.010 A 
HETATM    8  S1  UNL     1      20.290   4.031  51.588  1.00  0.00    -0.072 SA
HETATM    9  C10 UNL     1      21.362   2.696  52.251  1.00  0.00     0.114 A 
HETATM   10  N3  UNL     1      21.047   1.481  52.709  1.00  0.00    -0.234 NA
HETATM   11  C11 UNL     1      21.984   0.631  53.150  1.00  0.00     0.236 A 
HETATM   12  N4  UNL     1      23.220   1.109  53.084  1.00  0.00    -0.224 NA
HETATM   13  C12 UNL     1      23.551   2.314  52.631  1.00  0.00     0.139 A 
HETATM   14  C21 UNL     1      22.658   3.240  52.168  1.00  0.00     0.053 A 
HETATM   15  C22 UNL     1      21.493   6.475  50.685  1.00  0.00     0.172 C 
ENDROOT
BRANCH  13  16
HETATM   16  N5  UNL     1      24.960   2.531  52.617  1.00  0.00    -0.363 N 
HETATM   17  H14 UNL     1      25.587   3.103  53.210  1.00  0.00     0.162 HD
BRANCH  16  18
HETATM   18  C13 UNL     1      25.844   1.947  51.658  1.00  0.00     0.140 C 
BRANCH  18  19
HETATM   19  C14 UNL     1      26.636   2.877  50.813  1.00  0.00     0.194 C 
BRANCH  19  20
HETATM   20  O2  UNL     1      25.899   3.152  49.664  1.00  0.00    -0.399 OA
HETATM   21  H18 UNL     1      25.494   4.038  49.676  1.00  0.00     0.209 HD
ENDBRANCH  19  20
ENDBRANCH  18  19
BRANCH  18  22
HETATM   22  C15 UNL     1      26.825   1.006  52.310  1.00  0.00    -0.034 A 
HETATM   23  C16 UNL     1      27.874   1.665  52.949  1.00  0.00     0.009 A 
HETATM   24  C17 UNL     1      28.865   0.948  53.600  1.00  0.00     0.001 A 
HETATM   25  C18 UNL     1      28.807  -0.434  53.613  1.00  0.00     0.000 A 
HETATM   26  C19 UNL     1      27.767  -1.055  52.979  1.00  0.00     0.001 A 
HETATM   27  C20 UNL     1      26.766  -0.373  52.322  1.00  0.00     0.009 A 
ENDBRANCH  18  22
ENDBRANCH  16  18
ENDBRANCH  13  16
BRANCH   1  28
HETATM   28  C4  UNL     1      22.227   7.199  47.702  1.00  0.00     0.091 C 
HETATM   29  C3  UNL     1      22.253   8.234  46.899  1.00  0.00     0.090 C 
BRANCH  29  30
HETATM   30  N1  UNL     1      21.417   8.516  45.786  1.00  0.00    -0.398 N 
HETATM   31  C1  UNL     1      21.914   8.653  44.425  1.00  0.00     0.148 C 
HETATM   32  C2  UNL     1      19.962   8.710  45.824  1.00  0.00     0.148 C 
ENDBRANCH  29  30
ENDBRANCH   1  28
TORSDOF 7
ENDMDL
