MODEL 1
REMARK VINA RESULT:      -8.4      0.000      0.000
REMARK  7 active torsions:
REMARK  status: ('A' for Active; 'I' for Inactive)
REMARK       I    between atoms: C1_2  and  N1_3 
REMARK       I    between atoms: C1_2  and  N2_10 
REMARK    1  A    between atoms: N1_3  and  C2_4 
REMARK    2  A    between atoms: N2_10  and  C8_11 
REMARK    3  A    between atoms: N2_10  and  C15_19 
REMARK    4  A    between atoms: C8_11  and  C9_12 
REMARK    5  A    between atoms: C12_15  and  O2_16 
REMARK    6  A    between atoms: C15_19  and  C16_20 
REMARK    7  A    between atoms: C21_26  and  O3_27 
ROOT
HETATM    1  O1  UNL     1      24.668   0.447  52.309  1.00  0.00    -0.247 OA
HETATM    2  C1  UNL     1      24.257   1.594  52.655  1.00  0.00     0.323 C 
HETATM    3  N1  UNL     1      25.173   2.338  53.445  1.00  0.00    -0.309 N 
HETATM    4  N2  UNL     1      22.950   1.870  52.164  1.00  0.00    -0.325 N 
HETATM    5  H1  UNL     1      24.785   3.268  53.717  1.00  0.00     0.170 HD
ENDROOT
BRANCH   4   6
HETATM    6  C8  UNL     1      22.311   0.801  51.426  1.00  0.00     0.166 C 
BRANCH   6   7
HETATM    7  C9  UNL     1      21.087   0.268  52.016  1.00  0.00    -0.040 A 
HETATM    8  C10 UNL     1      19.799   0.354  51.537  1.00  0.00     0.011 A 
HETATM    9  C11 UNL     1      18.667  -0.160  52.130  1.00  0.00     0.037 A 
HETATM   10  C12 UNL     1      18.822  -0.831  53.326  1.00  0.00     0.065 A 
HETATM   11  C13 UNL     1      20.088  -0.954  53.863  1.00  0.00     0.037 A 
HETATM   12  C14 UNL     1      21.189  -0.419  53.226  1.00  0.00     0.011 A 
BRANCH  10  13
HETATM   13  O2  UNL     1      17.685  -1.349  53.926  1.00  0.00    -0.361 OA
HETATM   14  H11 UNL     1      17.115  -0.785  54.566  1.00  0.00     0.217 HD
ENDBRANCH  10  13
ENDBRANCH   6   7
ENDBRANCH   4   6
BRANCH   4  15
HETATM   15  C15 UNL     1      22.150   3.095  52.248  1.00  0.00     0.169 C 
BRANCH  15  16
HETATM   16  C16 UNL     1      22.742   4.245  51.556  1.00  0.00    -0.006 A 
HETATM   17  C17 UNL     1      22.460   4.332  50.183  1.00  0.00     0.030 A 
HETATM   18  C18 UNL     1      22.906   5.313  49.331  1.00  0.00     0.011 A 
HETATM   19 BR1  UNL     1      22.457   5.328  47.478  1.00  0.00    -0.051 Br
HETATM   20  C19 UNL     1      23.700   6.308  49.854  1.00  0.00     0.022 A 
HETATM   21  C20 UNL     1      24.016   6.284  51.196  1.00  0.00     0.038 A 
HETATM   22  C21 UNL     1      23.537   5.273  51.996  1.00  0.00     0.073 A 
BRANCH  22  23
HETATM   23  O3  UNL     1      23.850   5.245  53.337  1.00  0.00    -0.360 OA
HETATM   24  H19 UNL     1      23.170   5.452  54.070  1.00  0.00     0.217 HD
ENDBRANCH  22  23
ENDBRANCH  15  16
ENDBRANCH   4  15
BRANCH   3  25
HETATM   25  C2  UNL     1      26.425   1.748  53.756  1.00  0.00     0.036 A 
HETATM   26  C3  UNL     1      27.561   2.230  53.145  1.00  0.00     0.029 A 
HETATM   27  C4  UNL     1      28.793   1.666  53.437  1.00  0.00     0.002 A 
HETATM   28  C5  UNL     1      28.919   0.623  54.332  1.00  0.00     0.000 A 
HETATM   29  C6  UNL     1      27.781   0.141  54.943  1.00  0.00     0.002 A 
HETATM   30  C7  UNL     1      26.543   0.710  54.648  1.00  0.00     0.029 A 
ENDBRANCH   3  25
TORSDOF 7
ENDMDL
MODEL 2
REMARK VINA RESULT:      -8.2      3.080      6.258
REMARK  7 active torsions:
REMARK  status: ('A' for Active; 'I' for Inactive)
REMARK       I    between atoms: C1_2  and  N1_3 
REMARK       I    between atoms: C1_2  and  N2_10 
REMARK    1  A    between atoms: N1_3  and  C2_4 
REMARK    2  A    between atoms: N2_10  and  C8_11 
REMARK    3  A    between atoms: N2_10  and  C15_19 
REMARK    4  A    between atoms: C8_11  and  C9_12 
REMARK    5  A    between atoms: C12_15  and  O2_16 
REMARK    6  A    between atoms: C15_19  and  C16_20 
REMARK    7  A    between atoms: C21_26  and  O3_27 
ROOT
HETATM    1  O1  UNL     1      26.801   1.630  50.892  1.00  0.00    -0.247 OA
HETATM    2  C1  UNL     1      26.119   2.138  51.832  1.00  0.00     0.323 C 
HETATM    3  N1  UNL     1      26.469   1.684  53.130  1.00  0.00    -0.309 N 
HETATM    4  N2  UNL     1      25.143   3.059  51.354  1.00  0.00    -0.325 N 
HETATM    5  H1  UNL     1      25.872   2.118  53.868  1.00  0.00     0.170 HD
ENDROOT
BRANCH   4   6
HETATM    6  C8  UNL     1      25.062   3.207  49.917  1.00  0.00     0.166 C 
BRANCH   6   7
HETATM    7  C9  UNL     1      25.699   4.399  49.366  1.00  0.00    -0.040 A 
HETATM    8  C10 UNL     1      25.128   5.621  49.086  1.00  0.00     0.011 A 
HETATM    9  C11 UNL     1      25.766   6.722  48.560  1.00  0.00     0.037 A 
HETATM   10  C12 UNL     1      27.112   6.607  48.278  1.00  0.00     0.065 A 
HETATM   11  C13 UNL     1      27.747   5.407  48.534  1.00  0.00     0.037 A 
HETATM   12  C14 UNL     1      27.058   4.334  49.063  1.00  0.00     0.011 A 
BRANCH  10  13
HETATM   13  O2  UNL     1      27.757   7.712  47.747  1.00  0.00    -0.361 OA
HETATM   14  H11 UNL     1      28.088   8.476  48.347  1.00  0.00     0.217 HD
ENDBRANCH  10  13
ENDBRANCH   6   7
ENDBRANCH   4   6
BRANCH   4  15
HETATM   15  C15 UNL     1      24.224   3.926  52.095  1.00  0.00     0.169 C 
BRANCH  15  16
HETATM   16  C16 UNL     1      22.873   3.374  52.248  1.00  0.00    -0.006 A 
HETATM   17  C17 UNL     1      22.813   2.027  52.643  1.00  0.00     0.030 A 
HETATM   18  C18 UNL     1      21.667   1.298  52.843  1.00  0.00     0.011 A 
HETATM   19 BR1  UNL     1      21.710  -0.531  53.382  1.00  0.00    -0.051 Br
HETATM   20  C19 UNL     1      20.461   1.929  52.647  1.00  0.00     0.022 A 
HETATM   21  C20 UNL     1      20.445   3.252  52.258  1.00  0.00     0.038 A 
HETATM   22  C21 UNL     1      21.629   3.926  52.073  1.00  0.00     0.073 A 
BRANCH  22  23
HETATM   23  O3  UNL     1      21.619   5.248  51.685  1.00  0.00    -0.360 OA
HETATM   24  H19 UNL     1      22.127   5.977  52.187  1.00  0.00     0.217 HD
ENDBRANCH  22  23
ENDBRANCH  15  16
ENDBRANCH   4  15
BRANCH   3  25
HETATM   25  C2  UNL     1      27.521   0.739  53.250  1.00  0.00     0.036 A 
HETATM   26  C3  UNL     1      27.241  -0.598  53.076  1.00  0.00     0.029 A 
HETATM   27  C4  UNL     1      28.256  -1.535  53.189  1.00  0.00     0.002 A 
HETATM   28  C5  UNL     1      29.555  -1.167  53.475  1.00  0.00     0.000 A 
HETATM   29  C6  UNL     1      29.835   0.173  53.649  1.00  0.00     0.002 A 
HETATM   30  C7  UNL     1      28.812   1.113  53.535  1.00  0.00     0.029 A 
ENDBRANCH   3  25
TORSDOF 7
ENDMDL
MODEL 3
REMARK VINA RESULT:      -8.2      1.984      2.325
REMARK  7 active torsions:
REMARK  status: ('A' for Active; 'I' for Inactive)
REMARK       I    between atoms: C1_2  and  N1_3 
REMARK       I    between atoms: C1_2  and  N2_10 
REMARK    1  A    between atoms: N1_3  and  C2_4 
REMARK    2  A    between atoms: N2_10  and  C8_11 
REMARK    3  A    between atoms: N2_10  and  C15_19 
REMARK    4  A    between atoms: C8_11  and  C9_12 
REMARK    5  A    between atoms: C12_15  and  O2_16 
REMARK    6  A    between atoms: C15_19  and  C16_20 
REMARK    7  A    between atoms: C21_26  and  O3_27 
ROOT
HETATM    1  O1  UNL     1      25.180   0.882  53.714  1.00  0.00    -0.247 OA
HETATM    2  C1  UNL     1      25.110   1.010  52.455  1.00  0.00     0.323 C 
HETATM    3  N1  UNL     1      26.295   0.662  51.757  1.00  0.00    -0.309 N 
HETATM    4  N2  UNL     1      23.836   1.484  52.032  1.00  0.00    -0.325 N 
HETATM    5  H1  UNL     1      26.194   0.797  50.728  1.00  0.00     0.170 HD
ENDROOT
BRANCH   4   6
HETATM    6  C8  UNL     1      22.889   1.785  53.085  1.00  0.00     0.166 C 
BRANCH   6   7
HETATM    7  C9  UNL     1      21.803   0.824  53.254  1.00  0.00    -0.040 A 
HETATM    8  C10 UNL     1      20.549   0.843  52.685  1.00  0.00     0.011 A 
HETATM    9  C11 UNL     1      19.549  -0.084  52.876  1.00  0.00     0.037 A 
HETATM   10  C12 UNL     1      19.812  -1.144  53.720  1.00  0.00     0.065 A 
HETATM   11  C13 UNL     1      21.052  -1.223  54.325  1.00  0.00     0.037 A 
HETATM   12  C14 UNL     1      22.019  -0.265  54.098  1.00  0.00     0.011 A 
BRANCH  10  13
HETATM   13  O2  UNL     1      18.808  -2.078  53.916  1.00  0.00    -0.361 OA
HETATM   14  H11 UNL     1      18.830  -2.729  54.709  1.00  0.00     0.217 HD
ENDBRANCH  10  13
ENDBRANCH   6   7
ENDBRANCH   4   6
BRANCH   4  15
HETATM   15  C15 UNL     1      23.304   1.679  50.680  1.00  0.00     0.169 C 
BRANCH  15  16
HETATM   16  C16 UNL     1      23.535   3.021  50.135  1.00  0.00    -0.006 A 
HETATM   17  C17 UNL     1      24.868   3.319  49.810  1.00  0.00     0.030 A 
HETATM   18  C18 UNL     1      25.324   4.506  49.293  1.00  0.00     0.011 A 
HETATM   19 BR1  UNL     1      27.166   4.797  48.890  1.00  0.00    -0.051 Br
HETATM   20  C19 UNL     1      24.405   5.503  49.064  1.00  0.00     0.022 A 
HETATM   21  C20 UNL     1      23.077   5.279  49.360  1.00  0.00     0.038 A 
HETATM   22  C21 UNL     1      22.685   4.067  49.877  1.00  0.00     0.073 A 
BRANCH  22  23
HETATM   23  O3  UNL     1      21.359   3.837  50.173  1.00  0.00    -0.360 OA
HETATM   24  H19 UNL     1      20.598   4.086  49.540  1.00  0.00     0.217 HD
ENDBRANCH  22  23
ENDBRANCH  15  16
ENDBRANCH   4  15
BRANCH   3  25
HETATM   25  C2  UNL     1      27.410   0.211  52.510  1.00  0.00     0.036 A 
HETATM   26  C3  UNL     1      27.615  -1.144  52.654  1.00  0.00     0.029 A 
HETATM   27  C4  UNL     1      28.698  -1.603  53.386  1.00  0.00     0.002 A 
HETATM   28  C5  UNL     1      29.591  -0.735  53.983  1.00  0.00     0.000 A 
HETATM   29  C6  UNL     1      29.385   0.621  53.838  1.00  0.00     0.002 A 
HETATM   30  C7  UNL     1      28.294   1.080  53.101  1.00  0.00     0.029 A 
ENDBRANCH   3  25
TORSDOF 7
ENDMDL
MODEL 4
REMARK VINA RESULT:      -7.8      3.243      7.052
REMARK  7 active torsions:
REMARK  status: ('A' for Active; 'I' for Inactive)
REMARK       I    between atoms: C1_2  and  N1_3 
REMARK       I    between atoms: C1_2  and  N2_10 
REMARK    1  A    between atoms: N1_3  and  C2_4 
REMARK    2  A    between atoms: N2_10  and  C8_11 
REMARK    3  A    between atoms: N2_10  and  C15_19 
REMARK    4  A    between atoms: C8_11  and  C9_12 
REMARK    5  A    between atoms: C12_15  and  O2_16 
REMARK    6  A    between atoms: C15_19  and  C16_20 
REMARK    7  A    between atoms: C21_26  and  O3_27 
ROOT
HETATM    1  O1  UNL     1      26.340   4.321  49.421  1.00  0.00    -0.247 OA
HETATM    2  C1  UNL     1      25.520   4.547  50.360  1.00  0.00     0.323 C 
HETATM    3  N1  UNL     1      25.052   5.886  50.429  1.00  0.00    -0.309 N 
HETATM    4  N2  UNL     1      25.260   3.385  51.141  1.00  0.00    -0.325 N 
HETATM    5  H1  UNL     1      24.393   6.027  51.225  1.00  0.00     0.170 HD
ENDROOT
BRANCH   4   6
HETATM    6  C8  UNL     1      25.999   2.196  50.774  1.00  0.00     0.166 C 
BRANCH   6   7
HETATM    7  C9  UNL     1      26.751   1.560  51.852  1.00  0.00    -0.040 A 
HETATM    8  C10 UNL     1      27.623   2.144  52.745  1.00  0.00     0.011 A 
HETATM    9  C11 UNL     1      28.319   1.505  53.747  1.00  0.00     0.037 A 
HETATM   10  C12 UNL     1      28.135   0.143  53.885  1.00  0.00     0.065 A 
HETATM   11  C13 UNL     1      27.273  -0.504  53.021  1.00  0.00     0.037 A 
HETATM   12  C14 UNL     1      26.601   0.186  52.033  1.00  0.00     0.011 A 
BRANCH  10  13
HETATM   13  O2  UNL     1      28.834  -0.503  54.891  1.00  0.00    -0.361 OA
HETATM   14  H11 UNL     1      28.949  -0.079  55.818  1.00  0.00     0.217 HD
ENDBRANCH  10  13
ENDBRANCH   6   7
ENDBRANCH   4   6
BRANCH   4  15
HETATM   15  C15 UNL     1      24.319   3.184  52.246  1.00  0.00     0.169 C 
BRANCH  15  16
HETATM   16  C16 UNL     1      23.312   2.147  51.993  1.00  0.00    -0.006 A 
HETATM   17  C17 UNL     1      23.181   1.176  52.998  1.00  0.00     0.030 A 
HETATM   18  C18 UNL     1      22.313   0.112  52.981  1.00  0.00     0.011 A 
HETATM   19 BR1  UNL     1      22.223  -1.148  54.410  1.00  0.00    -0.051 Br
HETATM   20  C19 UNL     1      21.490  -0.029  51.888  1.00  0.00     0.022 A 
HETATM   21  C20 UNL     1      21.566   0.890  50.862  1.00  0.00     0.038 A 
HETATM   22  C21 UNL     1      22.457   1.934  50.941  1.00  0.00     0.073 A 
BRANCH  22  23
HETATM   23  O3  UNL     1      22.537   2.854  49.919  1.00  0.00    -0.360 OA
HETATM   24  H19 UNL     1      23.399   3.041  49.406  1.00  0.00     0.217 HD
ENDBRANCH  22  23
ENDBRANCH  15  16
ENDBRANCH   4  15
BRANCH   3  25
HETATM   25  C2  UNL     1      25.526   6.813  49.465  1.00  0.00     0.036 A 
HETATM   26  C3  UNL     1      24.941   6.838  48.218  1.00  0.00     0.029 A 
HETATM   27  C4  UNL     1      25.390   7.737  47.264  1.00  0.00     0.002 A 
HETATM   28  C5  UNL     1      26.419   8.618  47.525  1.00  0.00     0.000 A 
HETATM   29  C6  UNL     1      27.005   8.592  48.773  1.00  0.00     0.002 A 
HETATM   30  C7  UNL     1      26.551   7.687  49.732  1.00  0.00     0.029 A 
ENDBRANCH   3  25
TORSDOF 7
ENDMDL
MODEL 5
REMARK VINA RESULT:      -7.8      2.999      5.014
REMARK  7 active torsions:
REMARK  status: ('A' for Active; 'I' for Inactive)
REMARK       I    between atoms: C1_2  and  N1_3 
REMARK       I    between atoms: C1_2  and  N2_10 
REMARK    1  A    between atoms: N1_3  and  C2_4 
REMARK    2  A    between atoms: N2_10  and  C8_11 
REMARK    3  A    between atoms: N2_10  and  C15_19 
REMARK    4  A    between atoms: C8_11  and  C9_12 
REMARK    5  A    between atoms: C12_15  and  O2_16 
REMARK    6  A    between atoms: C15_19  and  C16_20 
REMARK    7  A    between atoms: C21_26  and  O3_27 
ROOT
HETATM    1  O1  UNL     1      26.768   1.695  51.140  1.00  0.00    -0.247 OA
HETATM    2  C1  UNL     1      25.904   1.907  52.042  1.00  0.00     0.323 C 
HETATM    3  N1  UNL     1      25.955   1.002  53.136  1.00  0.00    -0.309 N 
HETATM    4  N2  UNL     1      25.069   3.020  51.740  1.00  0.00    -0.325 N 
HETATM    5  H1  UNL     1      25.216   1.207  53.844  1.00  0.00     0.170 HD
ENDROOT
BRANCH   4   6
HETATM    6  C8  UNL     1      25.307   3.662  50.464  1.00  0.00     0.166 C 
BRANCH   6   7
HETATM    7  C9  UNL     1      24.214   3.576  49.500  1.00  0.00    -0.040 A 
HETATM    8  C10 UNL     1      23.524   2.458  49.087  1.00  0.00     0.011 A 
HETATM    9  C11 UNL     1      22.499   2.420  48.168  1.00  0.00     0.037 A 
HETATM   10  C12 UNL     1      22.113   3.614  47.591  1.00  0.00     0.065 A 
HETATM   11  C13 UNL     1      22.764   4.774  47.961  1.00  0.00     0.037 A 
HETATM   12  C14 UNL     1      23.786   4.755  48.889  1.00  0.00     0.011 A 
BRANCH  10  13
HETATM   13  O2  UNL     1      21.083   3.580  46.666  1.00  0.00    -0.361 OA
HETATM   14  H11 UNL     1      20.619   2.699  46.416  1.00  0.00     0.217 HD
ENDBRANCH  10  13
ENDBRANCH   6   7
ENDBRANCH   4   6
BRANCH   4  15
HETATM   15  C15 UNL     1      24.021   3.657  52.541  1.00  0.00     0.169 C 
BRANCH  15  16
HETATM   16  C16 UNL     1      22.718   2.988  52.463  1.00  0.00    -0.006 A 
HETATM   17  C17 UNL     1      22.684   1.675  52.962  1.00  0.00     0.030 A 
HETATM   18  C18 UNL     1      21.584   0.854  52.990  1.00  0.00     0.011 A 
HETATM   19 BR1  UNL     1      21.657  -0.916  53.694  1.00  0.00    -0.051 Br
HETATM   20  C19 UNL     1      20.400   1.346  52.490  1.00  0.00     0.022 A 
HETATM   21  C20 UNL     1      20.362   2.629  51.984  1.00  0.00     0.038 A 
HETATM   22  C21 UNL     1      21.500   3.400  51.984  1.00  0.00     0.073 A 
BRANCH  22  23
HETATM   23  O3  UNL     1      21.467   4.682  51.480  1.00  0.00    -0.360 OA
HETATM   24  H19 UNL     1      20.842   5.404  51.841  1.00  0.00     0.217 HD
ENDBRANCH  22  23
ENDBRANCH  15  16
ENDBRANCH   4  15
BRANCH   3  25
HETATM   25  C2  UNL     1      26.942  -0.017  53.119  1.00  0.00     0.036 A 
HETATM   26  C3  UNL     1      26.603  -1.267  52.650  1.00  0.00     0.029 A 
HETATM   27  C4  UNL     1      27.554  -2.275  52.626  1.00  0.00     0.002 A 
HETATM   28  C5  UNL     1      28.847  -2.063  53.063  1.00  0.00     0.000 A 
HETATM   29  C6  UNL     1      29.185  -0.811  53.532  1.00  0.00     0.002 A 
HETATM   30  C7  UNL     1      28.226   0.201  53.555  1.00  0.00     0.029 A 
ENDBRANCH   3  25
TORSDOF 7
ENDMDL
MODEL 6
REMARK VINA RESULT:      -7.8      2.168      2.825
REMARK  7 active torsions:
REMARK  status: ('A' for Active; 'I' for Inactive)
REMARK       I    between atoms: C1_2  and  N1_3 
REMARK       I    between atoms: C1_2  and  N2_10 
REMARK    1  A    between atoms: N1_3  and  C2_4 
REMARK    2  A    between atoms: N2_10  and  C8_11 
REMARK    3  A    between atoms: N2_10  and  C15_19 
REMARK    4  A    between atoms: C8_11  and  C9_12 
REMARK    5  A    between atoms: C12_15  and  O2_16 
REMARK    6  A    between atoms: C15_19  and  C16_20 
REMARK    7  A    between atoms: C21_26  and  O3_27 
ROOT
HETATM    1  O1  UNL     1      25.091   2.213  53.098  1.00  0.00    -0.247 OA
HETATM    2  C1  UNL     1      25.417   2.436  51.895  1.00  0.00     0.323 C 
HETATM    3  N1  UNL     1      26.734   2.031  51.552  1.00  0.00    -0.309 N 
HETATM    4  N2  UNL     1      24.367   3.055  51.157  1.00  0.00    -0.325 N 
HETATM    5  H1  UNL     1      26.961   2.249  50.558  1.00  0.00     0.170 HD
ENDROOT
BRANCH   4   6
HETATM    6  C8  UNL     1      23.166   3.366  51.903  1.00  0.00     0.166 C 
BRANCH   6   7
HETATM    7  C9  UNL     1      22.055   2.434  51.730  1.00  0.00    -0.040 A 
HETATM    8  C10 UNL     1      22.099   1.118  51.328  1.00  0.00     0.011 A 
HETATM    9  C11 UNL     1      21.023   0.273  51.172  1.00  0.00     0.037 A 
HETATM   10  C12 UNL     1      19.767   0.780  51.441  1.00  0.00     0.065 A 
HETATM   11  C13 UNL     1      19.653   2.095  51.849  1.00  0.00     0.037 A 
HETATM   12  C14 UNL     1      20.766   2.898  51.990  1.00  0.00     0.011 A 
BRANCH  10  13
HETATM   13  O2  UNL     1      18.682  -0.067  51.285  1.00  0.00    -0.361 OA
HETATM   14  H11 UNL     1      17.729   0.299  51.184  1.00  0.00     0.217 HD
ENDBRANCH  10  13
ENDBRANCH   6   7
ENDBRANCH   4   6
BRANCH   4  15
HETATM   15  C15 UNL     1      24.289   3.394  49.734  1.00  0.00     0.169 C 
BRANCH  15  16
HETATM   16  C16 UNL     1      25.054   4.589  49.361  1.00  0.00    -0.006 A 
HETATM   17  C17 UNL     1      24.307   5.772  49.244  1.00  0.00     0.030 A 
HETATM   18  C18 UNL     1      24.802   7.006  48.903  1.00  0.00     0.011 A 
HETATM   19 BR1  UNL     1      23.686   8.547  48.775  1.00  0.00    -0.051 Br
HETATM   20  C19 UNL     1      26.151   7.111  48.652  1.00  0.00     0.022 A 
HETATM   21  C20 UNL     1      26.945   5.988  48.748  1.00  0.00     0.038 A 
HETATM   22  C21 UNL     1      26.387   4.780  49.094  1.00  0.00     0.073 A 
BRANCH  22  23
HETATM   23  O3  UNL     1      27.176   3.656  49.192  1.00  0.00    -0.360 OA
HETATM   24  H19 UNL     1      27.277   3.122  50.056  1.00  0.00     0.217 HD
ENDBRANCH  22  23
ENDBRANCH  15  16
ENDBRANCH   4  15
BRANCH   3  25
HETATM   25  C2  UNL     1      27.532   1.427  52.557  1.00  0.00     0.036 A 
HETATM   26  C3  UNL     1      28.330   2.225  53.347  1.00  0.00     0.029 A 
HETATM   27  C4  UNL     1      29.117   1.653  54.333  1.00  0.00     0.002 A 
HETATM   28  C5  UNL     1      29.128   0.290  54.553  1.00  0.00     0.000 A 
HETATM   29  C6  UNL     1      28.330  -0.509  53.761  1.00  0.00     0.002 A 
HETATM   30  C7  UNL     1      27.539   0.070  52.770  1.00  0.00     0.029 A 
ENDBRANCH   3  25
TORSDOF 7
ENDMDL
MODEL 7
REMARK VINA RESULT:      -7.8      3.471      5.600
REMARK  7 active torsions:
REMARK  status: ('A' for Active; 'I' for Inactive)
REMARK       I    between atoms: C1_2  and  N1_3 
REMARK       I    between atoms: C1_2  and  N2_10 
REMARK    1  A    between atoms: N1_3  and  C2_4 
REMARK    2  A    between atoms: N2_10  and  C8_11 
REMARK    3  A    between atoms: N2_10  and  C15_19 
REMARK    4  A    between atoms: C8_11  and  C9_12 
REMARK    5  A    between atoms: C12_15  and  O2_16 
REMARK    6  A    between atoms: C15_19  and  C16_20 
REMARK    7  A    between atoms: C21_26  and  O3_27 
ROOT
HETATM    1  O1  UNL     1      23.652   3.590  51.406  1.00  0.00    -0.247 OA
HETATM    2  C1  UNL     1      23.199   2.835  50.495  1.00  0.00     0.323 C 
HETATM    3  N1  UNL     1      23.779   3.036  49.216  1.00  0.00    -0.309 N 
HETATM    4  N2  UNL     1      22.195   1.948  50.979  1.00  0.00    -0.325 N 
HETATM    5  H1  UNL     1      23.365   2.403  48.497  1.00  0.00     0.170 HD
ENDROOT
BRANCH   4   6
HETATM    6  C8  UNL     1      21.834   2.099  52.372  1.00  0.00     0.166 C 
BRANCH   6   7
HETATM    7  C9  UNL     1      22.210   0.992  53.247  1.00  0.00    -0.040 A 
HETATM    8  C10 UNL     1      23.440   0.388  53.379  1.00  0.00     0.011 A 
HETATM    9  C11 UNL     1      23.752  -0.661  54.215  1.00  0.00     0.037 A 
HETATM   10  C12 UNL     1      22.742  -1.170  55.006  1.00  0.00     0.065 A 
HETATM   11  C13 UNL     1      21.482  -0.610  54.922  1.00  0.00     0.037 A 
HETATM   12  C14 UNL     1      21.225   0.442  54.066  1.00  0.00     0.011 A 
BRANCH  10  13
HETATM   13  O2  UNL     1      23.052  -2.226  55.848  1.00  0.00    -0.361 OA
HETATM   14  H11 UNL     1      22.958  -2.143  56.866  1.00  0.00     0.217 HD
ENDBRANCH  10  13
ENDBRANCH   6   7
ENDBRANCH   4   6
BRANCH   4  15
HETATM   15  C15 UNL     1      21.487   0.863  50.295  1.00  0.00     0.169 C 
BRANCH  15  16
HETATM   16  C16 UNL     1      20.037   1.062  50.198  1.00  0.00    -0.006 A 
HETATM   17  C17 UNL     1      19.259   0.247  51.038  1.00  0.00     0.030 A 
HETATM   18  C18 UNL     1      17.889   0.251  51.118  1.00  0.00     0.011 A 
HETATM   19 BR1  UNL     1      16.938  -0.904  52.300  1.00  0.00    -0.051 Br
HETATM   20  C19 UNL     1      17.200   1.128  50.312  1.00  0.00     0.022 A 
HETATM   21  C20 UNL     1      17.900   1.958  49.462  1.00  0.00     0.038 A 
HETATM   22  C21 UNL     1      19.274   1.904  49.429  1.00  0.00     0.073 A 
BRANCH  22  23
HETATM   23  O3  UNL     1      19.978   2.732  48.583  1.00  0.00    -0.360 OA
HETATM   24  H19 UNL     1      20.986   2.652  48.440  1.00  0.00     0.217 HD
ENDBRANCH  22  23
ENDBRANCH  15  16
ENDBRANCH   4  15
BRANCH   3  25
HETATM   25  C2  UNL     1      24.785   4.028  49.083  1.00  0.00     0.036 A 
HETATM   26  C3  UNL     1      26.105   3.667  49.243  1.00  0.00     0.029 A 
HETATM   27  C4  UNL     1      27.101   4.622  49.118  1.00  0.00     0.002 A 
HETATM   28  C5  UNL     1      26.810   5.941  48.834  1.00  0.00     0.000 A 
HETATM   29  C6  UNL     1      25.488   6.302  48.674  1.00  0.00     0.002 A 
HETATM   30  C7  UNL     1      24.488   5.339  48.801  1.00  0.00     0.029 A 
ENDBRANCH   3  25
TORSDOF 7
ENDMDL
MODEL 8
REMARK VINA RESULT:      -7.7      3.243      5.313
REMARK  7 active torsions:
REMARK  status: ('A' for Active; 'I' for Inactive)
REMARK       I    between atoms: C1_2  and  N1_3 
REMARK       I    between atoms: C1_2  and  N2_10 
REMARK    1  A    between atoms: N1_3  and  C2_4 
REMARK    2  A    between atoms: N2_10  and  C8_11 
REMARK    3  A    between atoms: N2_10  and  C15_19 
REMARK    4  A    between atoms: C8_11  and  C9_12 
REMARK    5  A    between atoms: C12_15  and  O2_16 
REMARK    6  A    between atoms: C15_19  and  C16_20 
REMARK    7  A    between atoms: C21_26  and  O3_27 
ROOT
HETATM    1  O1  UNL     1      24.103   3.544  52.990  1.00  0.00    -0.247 OA
HETATM    2  C1  UNL     1      24.469   3.323  51.797  1.00  0.00     0.323 C 
HETATM    3  N1  UNL     1      25.086   2.061  51.590  1.00  0.00    -0.309 N 
HETATM    4  N2  UNL     1      24.173   4.413  50.931  1.00  0.00    -0.325 N 
HETATM    5  H1  UNL     1      25.383   1.931  50.599  1.00  0.00     0.170 HD
ENDROOT
BRANCH   4   6
HETATM    6  C8  UNL     1      23.576   5.575  51.555  1.00  0.00     0.166 C 
BRANCH   6   7
HETATM    7  C9  UNL     1      22.351   6.069  50.933  1.00  0.00    -0.040 A 
HETATM    8  C10 UNL     1      21.208   5.367  50.622  1.00  0.00     0.011 A 
HETATM    9  C11 UNL     1      20.072   5.872  50.028  1.00  0.00     0.037 A 
HETATM   10  C12 UNL     1      20.063   7.214  49.703  1.00  0.00     0.065 A 
HETATM   11  C13 UNL     1      21.180   7.976  49.988  1.00  0.00     0.037 A 
HETATM   12  C14 UNL     1      22.292   7.418  50.585  1.00  0.00     0.011 A 
BRANCH  10  13
HETATM   13  O2  UNL     1      18.923   7.725  49.105  1.00  0.00    -0.361 OA
HETATM   14  H11 UNL     1      18.349   8.436  49.570  1.00  0.00     0.217 HD
ENDBRANCH  10  13
ENDBRANCH   6   7
ENDBRANCH   4   6
BRANCH   4  15
HETATM   15  C15 UNL     1      24.338   4.537  49.480  1.00  0.00     0.169 C 
BRANCH  15  16
HETATM   16  C16 UNL     1      25.646   5.058  49.069  1.00  0.00    -0.006 A 
HETATM   17  C17 UNL     1      25.651   6.392  48.628  1.00  0.00     0.030 A 
HETATM   18  C18 UNL     1      26.750   7.090  48.191  1.00  0.00     0.011 A 
HETATM   19 BR1  UNL     1      26.636   8.904  47.615  1.00  0.00    -0.051 Br
HETATM   20  C19 UNL     1      27.963   6.440  48.181  1.00  0.00     0.022 A 
HETATM   21  C20 UNL     1      28.030   5.128  48.601  1.00  0.00     0.038 A 
HETATM   22  C21 UNL     1      26.892   4.485  49.026  1.00  0.00     0.073 A 
BRANCH  22  23
HETATM   23  O3  UNL     1      26.954   3.175  49.447  1.00  0.00    -0.360 OA
HETATM   24  H19 UNL     1      26.332   2.448  49.092  1.00  0.00     0.217 HD
ENDBRANCH  22  23
ENDBRANCH  15  16
ENDBRANCH   4  15
BRANCH   3  25
HETATM   25  C2  UNL     1      25.223   1.191  52.703  1.00  0.00     0.036 A 
HETATM   26  C3  UNL     1      24.230   0.271  52.958  1.00  0.00     0.029 A 
HETATM   27  C4  UNL     1      24.346  -0.587  54.040  1.00  0.00     0.002 A 
HETATM   28  C5  UNL     1      25.440  -0.550  54.881  1.00  0.00     0.000 A 
HETATM   29  C6  UNL     1      26.434   0.372  54.625  1.00  0.00     0.002 A 
HETATM   30  C7  UNL     1      26.314   1.234  53.536  1.00  0.00     0.029 A 
ENDBRANCH   3  25
TORSDOF 7
ENDMDL
MODEL 9
REMARK VINA RESULT:      -7.7      2.785      6.398
REMARK  7 active torsions:
REMARK  status: ('A' for Active; 'I' for Inactive)
REMARK       I    between atoms: C1_2  and  N1_3 
REMARK       I    between atoms: C1_2  and  N2_10 
REMARK    1  A    between atoms: N1_3  and  C2_4 
REMARK    2  A    between atoms: N2_10  and  C8_11 
REMARK    3  A    between atoms: N2_10  and  C15_19 
REMARK    4  A    between atoms: C8_11  and  C9_12 
REMARK    5  A    between atoms: C12_15  and  O2_16 
REMARK    6  A    between atoms: C15_19  and  C16_20 
REMARK    7  A    between atoms: C21_26  and  O3_27 
ROOT
HETATM    1  O1  UNL     1      23.863   2.133  52.353  1.00  0.00    -0.247 OA
HETATM    2  C1  UNL     1      24.175   2.315  51.139  1.00  0.00     0.323 C 
HETATM    3  N1  UNL     1      23.088   2.227  50.229  1.00  0.00    -0.309 N 
HETATM    4  N2  UNL     1      25.566   2.566  50.970  1.00  0.00    -0.325 N 
HETATM    5  H1  UNL     1      23.396   2.368  49.242  1.00  0.00     0.170 HD
ENDROOT
BRANCH   4   6
HETATM    6  C8  UNL     1      26.370   2.514  52.173  1.00  0.00     0.166 C 
BRANCH   6   7
HETATM    7  C9  UNL     1      26.978   1.220  52.471  1.00  0.00    -0.040 A 
HETATM    8  C10 UNL     1      26.511  -0.037  52.156  1.00  0.00     0.011 A 
HETATM    9  C11 UNL     1      27.115  -1.236  52.462  1.00  0.00     0.037 A 
HETATM   10  C12 UNL     1      28.309  -1.192  53.154  1.00  0.00     0.065 A 
HETATM   11  C13 UNL     1      28.834   0.038  53.501  1.00  0.00     0.037 A 
HETATM   12  C14 UNL     1      28.186   1.210  53.168  1.00  0.00     0.011 A 
BRANCH  10  13
HETATM   13  O2  UNL     1      28.920  -2.396  53.463  1.00  0.00    -0.361 OA
HETATM   14  H11 UNL     1      28.495  -3.293  53.202  1.00  0.00     0.217 HD
ENDBRANCH  10  13
ENDBRANCH   6   7
ENDBRANCH   4   6
BRANCH   4  15
HETATM   15  C15 UNL     1      26.321   2.918  49.764  1.00  0.00     0.169 C 
BRANCH  15  16
HETATM   16  C16 UNL     1      26.379   4.358  49.493  1.00  0.00    -0.006 A 
HETATM   17  C17 UNL     1      25.294   5.107  49.977  1.00  0.00     0.030 A 
HETATM   18  C18 UNL     1      25.127   6.463  49.840  1.00  0.00     0.011 A 
HETATM   19 BR1  UNL     1      23.606   7.374  50.541  1.00  0.00    -0.051 Br
HETATM   20  C19 UNL     1      26.103   7.167  49.173  1.00  0.00     0.022 A 
HETATM   21  C20 UNL     1      27.198   6.494  48.671  1.00  0.00     0.038 A 
HETATM   22  C21 UNL     1      27.305   5.134  48.842  1.00  0.00     0.073 A 
BRANCH  22  23
HETATM   23  O3  UNL     1      28.396   4.458  48.343  1.00  0.00    -0.360 OA
HETATM   24  H19 UNL     1      28.836   3.678  48.832  1.00  0.00     0.217 HD
ENDBRANCH  22  23
ENDBRANCH  15  16
ENDBRANCH   4  15
BRANCH   3  25
HETATM   25  C2  UNL     1      21.796   1.958  50.750  1.00  0.00     0.036 A 
HETATM   26  C3  UNL     1      21.336   0.660  50.758  1.00  0.00     0.029 A 
HETATM   27  C4  UNL     1      20.076   0.379  51.263  1.00  0.00     0.002 A 
HETATM   28  C5  UNL     1      19.257   1.371  51.764  1.00  0.00     0.000 A 
HETATM   29  C6  UNL     1      19.719   2.671  51.755  1.00  0.00     0.002 A 
HETATM   30  C7  UNL     1      20.987   2.951  51.247  1.00  0.00     0.029 A 
ENDBRANCH   3  25
TORSDOF 7
ENDMDL
