MODEL 1
REMARK VINA RESULT:      -8.3      0.000      0.000
REMARK  3 active torsions:
REMARK  status: ('A' for Active; 'I' for Inactive)
REMARK       I    between atoms: C2_2  and  N1_4 
REMARK    1  A    between atoms: N1_4  and  C3_5 
REMARK    2  A    between atoms: C3_5  and  C6_9 
REMARK    3  A    between atoms: C4_6  and  C5_7 
ROOT
HETATM    1  C6  UNL     1      25.301   3.084  50.494  1.00  0.00     0.035 C 
HETATM    2  C7  UNL     1      25.939   2.271  51.364  1.00  0.00    -0.030 A 
HETATM    3  C8  UNL     1      27.098   2.096  52.204  1.00  0.00     0.251 A 
HETATM    4  N2  UNL     1      27.221   2.407  53.584  1.00  0.00     0.047 NA
HETATM    5  C9  UNL     1      28.340   1.994  54.162  1.00  0.00     0.775 C 
HETATM    6  N3  UNL     1      29.647   1.349  54.236  1.00  0.00    -0.168 NA
HETATM    7  O2  UNL     1      28.872   0.307  54.489  1.00  0.00    -0.299 OA
HETATM    8  C10 UNL     1      28.682  -0.568  53.408  1.00  0.00     0.228 C 
HETATM    9  C11 UNL     1      27.211  -0.680  53.113  1.00  0.00    -0.053 C 
HETATM   10  C12 UNL     1      26.276  -1.112  53.967  1.00  0.00     0.005 C 
HETATM   11  C13 UNL     1      25.059  -0.254  54.021  1.00  0.00    -0.002 C 
HETATM   12  C14 UNL     1      25.056   0.829  53.221  1.00  0.00    -0.010 C 
HETATM   13  C15 UNL     1      25.978   1.042  52.086  1.00  0.00     0.040 A 
HETATM   14  C16 UNL     1      26.728  -0.220  51.737  1.00  0.00     0.057 C 
HETATM   15  H11 UNL     1      29.987   2.312  54.018  1.00  0.00     0.156 HD
ENDROOT
BRANCH   1  16
HETATM   16  C3  UNL     1      25.777   4.388  50.059  1.00  0.00     0.032 C 
HETATM   17  C4  UNL     1      24.961   5.419  50.176  1.00  0.00     0.018 C 
BRANCH  16  18
HETATM   18  N1  UNL     1      27.095   4.452  49.536  1.00  0.00    -0.328 N 
HETATM   19  C2  UNL     1      27.627   5.395  48.635  1.00  0.00     0.218 C 
HETATM   20  C1  UNL     1      29.009   5.429  48.112  1.00  0.00     0.117 C 
HETATM   21  O1  UNL     1      26.933   6.326  48.185  1.00  0.00    -0.274 OA
HETATM   22  H4  UNL     1      27.816   3.771  49.789  1.00  0.00     0.169 HD
ENDBRANCH  16  18
BRANCH  17  23
HETATM   23  C5  UNL     1      23.595   5.577  50.674  1.00  0.00     0.144 C 
HETATM   24 CL1  UNL     1      23.495   5.188  52.426  1.00  0.00    -0.126 Cl
ENDBRANCH  17  23
ENDBRANCH   1  16
TORSDOF 3
ENDMDL
MODEL 2
REMARK VINA RESULT:      -7.9      2.229      6.174
REMARK  3 active torsions:
REMARK  status: ('A' for Active; 'I' for Inactive)
REMARK       I    between atoms: C2_2  and  N1_4 
REMARK    1  A    between atoms: N1_4  and  C3_5 
REMARK    2  A    between atoms: C3_5  and  C6_9 
REMARK    3  A    between atoms: C4_6  and  C5_7 
ROOT
HETATM    1  C6  UNL     1      23.728   1.842  52.469  1.00  0.00     0.035 C 
HETATM    2  C7  UNL     1      24.173   2.760  51.584  1.00  0.00    -0.030 A 
HETATM    3  C8  UNL     1      25.329   3.348  50.954  1.00  0.00     0.251 A 
HETATM    4  N2  UNL     1      25.919   2.985  49.715  1.00  0.00     0.047 NA
HETATM    5  C9  UNL     1      26.875   3.794  49.282  1.00  0.00     0.775 C 
HETATM    6  N3  UNL     1      27.770   4.945  49.319  1.00  0.00    -0.168 NA
HETATM    7  O2  UNL     1      26.728   5.495  48.718  1.00  0.00    -0.299 OA
HETATM    8  C10 UNL     1      25.923   6.299  49.541  1.00  0.00     0.228 C 
HETATM    9  C11 UNL     1      24.516   5.768  49.530  1.00  0.00    -0.053 C 
HETATM   10  C12 UNL     1      23.739   5.643  48.448  1.00  0.00     0.005 C 
HETATM   11  C13 UNL     1      23.043   4.329  48.348  1.00  0.00    -0.002 C 
HETATM   12  C14 UNL     1      23.283   3.450  49.339  1.00  0.00    -0.010 C 
HETATM   13  C15 UNL     1      23.885   3.794  50.644  1.00  0.00     0.040 A 
HETATM   14  C16 UNL     1      23.930   5.286  50.857  1.00  0.00     0.057 C 
HETATM   15  H11 UNL     1      28.409   4.266  49.789  1.00  0.00     0.156 HD
ENDROOT
BRANCH   1  16
HETATM   16  C3  UNL     1      24.570   0.944  53.244  1.00  0.00     0.032 C 
HETATM   17  C4  UNL     1      24.066  -0.219  53.611  1.00  0.00     0.018 C 
BRANCH  16  18
HETATM   18  N1  UNL     1      25.881   1.393  53.550  1.00  0.00    -0.328 N 
HETATM   19  C2  UNL     1      27.095   0.996  52.956  1.00  0.00     0.218 C 
HETATM   20  C1  UNL     1      28.445   1.487  53.303  1.00  0.00     0.117 C 
HETATM   21  O1  UNL     1      27.125   0.153  52.041  1.00  0.00    -0.274 OA
HETATM   22  H4  UNL     1      26.063   2.089  54.278  1.00  0.00     0.169 HD
ENDBRANCH  16  18
BRANCH  17  23
HETATM   23  C5  UNL     1      22.771  -0.870  53.411  1.00  0.00     0.144 C 
HETATM   24 CL1  UNL     1      21.657  -0.530  54.780  1.00  0.00    -0.126 Cl
ENDBRANCH  17  23
ENDBRANCH   1  16
TORSDOF 3
ENDMDL
MODEL 3
REMARK VINA RESULT:      -7.9      4.439      6.929
REMARK  3 active torsions:
REMARK  status: ('A' for Active; 'I' for Inactive)
REMARK       I    between atoms: C2_2  and  N1_4 
REMARK    1  A    between atoms: N1_4  and  C3_5 
REMARK    2  A    between atoms: C3_5  and  C6_9 
REMARK    3  A    between atoms: C4_6  and  C5_7 
ROOT
HETATM    1  C6  UNL     1      21.777   0.701  51.690  1.00  0.00     0.035 C 
HETATM    2  C7  UNL     1      22.551   1.765  51.386  1.00  0.00    -0.030 A 
HETATM    3  C8  UNL     1      22.708   3.195  51.487  1.00  0.00     0.251 A 
HETATM    4  N2  UNL     1      23.426   3.919  52.474  1.00  0.00     0.047 NA
HETATM    5  C9  UNL     1      23.556   5.218  52.245  1.00  0.00     0.775 C 
HETATM    6  N3  UNL     1      23.386   6.469  51.515  1.00  0.00    -0.168 NA
HETATM    7  O2  UNL     1      24.501   6.035  50.952  1.00  0.00    -0.299 OA
HETATM    8  C10 UNL     1      24.341   5.460  49.682  1.00  0.00     0.228 C 
HETATM    9  C11 UNL     1      24.863   4.049  49.705  1.00  0.00    -0.053 C 
HETATM   10  C12 UNL     1      26.117   3.688  49.999  1.00  0.00     0.005 C 
HETATM   11  C13 UNL     1      26.213   2.550  50.956  1.00  0.00    -0.002 C 
HETATM   12  C14 UNL     1      25.047   2.042  51.399  1.00  0.00    -0.010 C 
HETATM   13  C15 UNL     1      23.730   2.285  50.774  1.00  0.00     0.040 A 
HETATM   14  C16 UNL     1      23.871   2.923  49.414  1.00  0.00     0.057 C 
HETATM   15  H11 UNL     1      22.535   6.550  52.115  1.00  0.00     0.156 HD
ENDROOT
BRANCH   1  16
HETATM   16  C3  UNL     1      20.521   0.758  52.422  1.00  0.00     0.032 C 
HETATM   17  C4  UNL     1      20.521   0.384  53.687  1.00  0.00     0.018 C 
BRANCH  16  18
HETATM   18  N1  UNL     1      19.380   1.214  51.712  1.00  0.00    -0.328 N 
HETATM   19  C2  UNL     1      18.836   2.513  51.684  1.00  0.00     0.218 C 
HETATM   20  C1  UNL     1      17.643   2.951  50.930  1.00  0.00     0.117 C 
HETATM   21  O1  UNL     1      19.349   3.445  52.330  1.00  0.00    -0.274 OA
HETATM   22  H4  UNL     1      18.821   0.593  51.121  1.00  0.00     0.169 HD
ENDBRANCH  16  18
BRANCH  17  23
HETATM   23  C5  UNL     1      21.556  -0.109  54.597  1.00  0.00     0.144 C 
HETATM   24 CL1  UNL     1      21.706  -1.898  54.500  1.00  0.00    -0.126 Cl
ENDBRANCH  17  23
ENDBRANCH   1  16
TORSDOF 3
ENDMDL
MODEL 4
REMARK VINA RESULT:      -7.8      3.005      6.700
REMARK  3 active torsions:
REMARK  status: ('A' for Active; 'I' for Inactive)
REMARK       I    between atoms: C2_2  and  N1_4 
REMARK    1  A    between atoms: N1_4  and  C3_5 
REMARK    2  A    between atoms: C3_5  and  C6_9 
REMARK    3  A    between atoms: C4_6  and  C5_7 
ROOT
HETATM    1  C6  UNL     1      25.663   1.529  53.273  1.00  0.00     0.035 C 
HETATM    2  C7  UNL     1      24.872   2.082  52.328  1.00  0.00    -0.030 A 
HETATM    3  C8  UNL     1      24.055   1.842  51.165  1.00  0.00     0.251 A 
HETATM    4  N2  UNL     1      22.654   1.621  51.122  1.00  0.00     0.047 NA
HETATM    5  C9  UNL     1      22.119   1.592  49.909  1.00  0.00     0.775 C 
HETATM    6  N3  UNL     1      22.108   1.658  48.452  1.00  0.00    -0.168 NA
HETATM    7  O2  UNL     1      21.947   2.941  48.732  1.00  0.00    -0.299 OA
HETATM    8  C10 UNL     1      23.101   3.728  48.597  1.00  0.00     0.228 C 
HETATM    9  C11 UNL     1      23.400   4.400  49.910  1.00  0.00    -0.053 C 
HETATM   10  C12 UNL     1      22.585   5.240  50.557  1.00  0.00     0.005 C 
HETATM   11  C13 UNL     1      22.450   4.954  52.013  1.00  0.00    -0.002 C 
HETATM   12  C14 UNL     1      23.149   3.903  52.483  1.00  0.00    -0.010 C 
HETATM   13  C15 UNL     1      24.264   3.246  51.770  1.00  0.00     0.040 A 
HETATM   14  C16 UNL     1      24.727   4.065  50.590  1.00  0.00     0.057 C 
HETATM   15  H11 UNL     1      22.239   0.625  48.537  1.00  0.00     0.156 HD
ENDROOT
BRANCH   1  16
HETATM   16  C3  UNL     1      25.981   0.114  53.379  1.00  0.00     0.032 C 
HETATM   17  C4  UNL     1      25.040  -0.705  53.812  1.00  0.00     0.018 C 
BRANCH  16  18
HETATM   18  N1  UNL     1      27.291  -0.283  53.005  1.00  0.00    -0.328 N 
HETATM   19  C2  UNL     1      28.418  -0.450  53.833  1.00  0.00     0.218 C 
HETATM   20  C1  UNL     1      29.770  -0.865  53.405  1.00  0.00     0.117 C 
HETATM   21  O1  UNL     1      28.357  -0.248  55.060  1.00  0.00    -0.274 OA
HETATM   22  H4  UNL     1      27.541  -0.495  52.035  1.00  0.00     0.169 HD
ENDBRANCH  16  18
BRANCH  17  23
HETATM   23  C5  UNL     1      23.655  -0.517  54.242  1.00  0.00     0.144 C 
HETATM   24 CL1  UNL     1      22.507  -1.245  53.066  1.00  0.00    -0.126 Cl
ENDBRANCH  17  23
ENDBRANCH   1  16
TORSDOF 3
ENDMDL
MODEL 5
REMARK VINA RESULT:      -7.7      3.382      6.968
REMARK  3 active torsions:
REMARK  status: ('A' for Active; 'I' for Inactive)
REMARK       I    between atoms: C2_2  and  N1_4 
REMARK    1  A    between atoms: N1_4  and  C3_5 
REMARK    2  A    between atoms: C3_5  and  C6_9 
REMARK    3  A    between atoms: C4_6  and  C5_7 
ROOT
HETATM    1  C6  UNL     1      25.225   0.263  52.261  1.00  0.00     0.035 C 
HETATM    2  C7  UNL     1      24.780   1.456  51.814  1.00  0.00    -0.030 A 
HETATM    3  C8  UNL     1      23.958   2.607  52.098  1.00  0.00     0.251 A 
HETATM    4  N2  UNL     1      24.361   3.835  52.683  1.00  0.00     0.047 NA
HETATM    5  C9  UNL     1      23.445   4.793  52.682  1.00  0.00     0.775 C 
HETATM    6  N3  UNL     1      22.146   5.399  52.413  1.00  0.00    -0.168 NA
HETATM    7  O2  UNL     1      22.760   5.682  51.277  1.00  0.00    -0.299 OA
HETATM    8  C10 UNL     1      22.418   4.857  50.194  1.00  0.00     0.228 C 
HETATM    9  C11 UNL     1      23.660   4.195  49.662  1.00  0.00    -0.053 C 
HETATM   10  C12 UNL     1      24.733   4.830  49.177  1.00  0.00     0.005 C 
HETATM   11  C13 UNL     1      26.031   4.313  49.695  1.00  0.00    -0.002 C 
HETATM   12  C14 UNL     1      25.960   3.294  50.572  1.00  0.00    -0.010 C 
HETATM   13  C15 UNL     1      24.765   2.452  50.792  1.00  0.00     0.040 A 
HETATM   14  C16 UNL     1      23.729   2.670  49.717  1.00  0.00     0.057 C 
HETATM   15  H11 UNL     1      21.931   5.046  53.372  1.00  0.00     0.156 HD
ENDROOT
BRANCH   1  16
HETATM   16  C3  UNL     1      24.873  -0.341  53.536  1.00  0.00     0.032 C 
HETATM   17  C4  UNL     1      25.699  -0.175  54.552  1.00  0.00     0.018 C 
BRANCH  16  18
HETATM   18  N1  UNL     1      23.658  -1.071  53.591  1.00  0.00    -0.328 N 
HETATM   19  C2  UNL     1      22.362  -0.583  53.852  1.00  0.00     0.218 C 
HETATM   20  C1  UNL     1      21.117  -1.377  53.900  1.00  0.00     0.117 C 
HETATM   21  O1  UNL     1      22.156   0.624  54.076  1.00  0.00    -0.274 OA
HETATM   22  H4  UNL     1      23.621  -2.082  53.433  1.00  0.00     0.169 HD
ENDBRANCH  16  18
BRANCH  17  23
HETATM   23  C5  UNL     1      26.975   0.522  54.717  1.00  0.00     0.144 C 
HETATM   24 CL1  UNL     1      28.324  -0.418  53.990  1.00  0.00    -0.126 Cl
ENDBRANCH  17  23
ENDBRANCH   1  16
TORSDOF 3
ENDMDL
MODEL 6
REMARK VINA RESULT:      -7.5      3.994      7.495
REMARK  3 active torsions:
REMARK  status: ('A' for Active; 'I' for Inactive)
REMARK       I    between atoms: C2_2  and  N1_4 
REMARK    1  A    between atoms: N1_4  and  C3_5 
REMARK    2  A    between atoms: C3_5  and  C6_9 
REMARK    3  A    between atoms: C4_6  and  C5_7 
ROOT
HETATM    1  C6  UNL     1      24.972   1.382  52.878  1.00  0.00     0.035 C 
HETATM    2  C7  UNL     1      24.228   1.883  51.869  1.00  0.00    -0.030 A 
HETATM    3  C8  UNL     1      23.182   1.620  50.912  1.00  0.00     0.251 A 
HETATM    4  N2  UNL     1      21.795   1.887  51.051  1.00  0.00     0.047 NA
HETATM    5  C9  UNL     1      21.068   1.704  49.958  1.00  0.00     0.775 C 
HETATM    6  N3  UNL     1      20.816   1.358  48.564  1.00  0.00    -0.168 NA
HETATM    7  O2  UNL     1      21.100   2.643  48.425  1.00  0.00    -0.299 OA
HETATM    8  C10 UNL     1      22.394   2.918  47.954  1.00  0.00     0.228 C 
HETATM    9  C11 UNL     1      23.111   3.786  48.951  1.00  0.00    -0.053 C 
HETATM   10  C12 UNL     1      22.716   5.000  49.353  1.00  0.00     0.005 C 
HETATM   11  C13 UNL     1      22.764   5.197  50.829  1.00  0.00    -0.002 C 
HETATM   12  C14 UNL     1      23.188   4.148  51.558  1.00  0.00    -0.010 C 
HETATM   13  C15 UNL     1      23.907   2.978  51.013  1.00  0.00     0.040 A 
HETATM   14  C16 UNL     1      24.375   3.224  49.600  1.00  0.00     0.057 C 
HETATM   15  H11 UNL     1      20.644   0.411  48.968  1.00  0.00     0.156 HD
ENDROOT
BRANCH   1  16
HETATM   16  C3  UNL     1      24.864   0.033  53.412  1.00  0.00     0.032 C 
HETATM   17  C4  UNL     1      25.814  -0.833  53.111  1.00  0.00     0.018 C 
BRANCH  16  18
HETATM   18  N1  UNL     1      23.735  -0.252  54.223  1.00  0.00    -0.328 N 
HETATM   19  C2  UNL     1      22.513  -0.835  53.836  1.00  0.00     0.218 C 
HETATM   20  C1  UNL     1      21.357  -1.116  54.713  1.00  0.00     0.117 C 
HETATM   21  O1  UNL     1      22.300  -1.175  52.658  1.00  0.00    -0.274 OA
HETATM   22  H4  UNL     1      23.717  -0.043  55.225  1.00  0.00     0.169 HD
ENDBRANCH  16  18
BRANCH  17  23
HETATM   23  C5  UNL     1      27.037  -0.756  52.312  1.00  0.00     0.144 C 
HETATM   24 CL1  UNL     1      28.499  -0.846  53.355  1.00  0.00    -0.126 Cl
ENDBRANCH  17  23
ENDBRANCH   1  16
TORSDOF 3
ENDMDL
MODEL 7
REMARK VINA RESULT:      -7.5      6.981      8.807
REMARK  3 active torsions:
REMARK  status: ('A' for Active; 'I' for Inactive)
REMARK       I    between atoms: C2_2  and  N1_4 
REMARK    1  A    between atoms: N1_4  and  C3_5 
REMARK    2  A    between atoms: C3_5  and  C6_9 
REMARK    3  A    between atoms: C4_6  and  C5_7 
ROOT
HETATM    1  C6  UNL     1      30.948   6.514  47.088  1.00  0.00     0.035 C 
HETATM    2  C7  UNL     1      29.824   7.029  47.630  1.00  0.00    -0.030 A 
HETATM    3  C8  UNL     1      29.267   7.812  48.705  1.00  0.00     0.251 A 
HETATM    4  N2  UNL     1      28.997   9.206  48.711  1.00  0.00     0.047 NA
HETATM    5  C9  UNL     1      28.329   9.651  49.766  1.00  0.00     0.775 C 
HETATM    6  N3  UNL     1      27.639   9.557  51.047  1.00  0.00    -0.168 NA
HETATM    7  O2  UNL     1      26.625   9.313  50.233  1.00  0.00    -0.299 OA
HETATM    8  C10 UNL     1      26.263   7.962  50.123  1.00  0.00     0.228 C 
HETATM    9  C11 UNL     1      26.357   7.538  48.683  1.00  0.00    -0.053 C 
HETATM   10  C12 UNL     1      25.672   8.075  47.667  1.00  0.00     0.005 C 
HETATM   11  C13 UNL     1      26.501   8.378  46.467  1.00  0.00    -0.002 C 
HETATM   12  C14 UNL     1      27.812   8.082  46.557  1.00  0.00    -0.010 C 
HETATM   13  C15 UNL     1      28.408   7.199  47.580  1.00  0.00     0.040 A 
HETATM   14  C16 UNL     1      27.351   6.430  48.334  1.00  0.00     0.057 C 
HETATM   15  H11 UNL     1      28.590   9.770  51.424  1.00  0.00     0.156 HD
ENDROOT
BRANCH   1  16
HETATM   16  C3  UNL     1      32.290   6.674  47.626  1.00  0.00     0.032 C 
HETATM   17  C4  UNL     1      32.970   5.586  47.935  1.00  0.00     0.018 C 
BRANCH  16  18
HETATM   18  N1  UNL     1      32.770   8.001  47.779  1.00  0.00    -0.328 N 
HETATM   19  C2  UNL     1      33.354   8.831  46.802  1.00  0.00     0.218 C 
HETATM   20  C1  UNL     1      33.844  10.211  47.000  1.00  0.00     0.117 C 
HETATM   21  O1  UNL     1      33.513   8.442  45.630  1.00  0.00    -0.274 OA
HETATM   22  H4  UNL     1      32.728   8.496  48.673  1.00  0.00     0.169 HD
ENDBRANCH  16  18
BRANCH  17  23
HETATM   23  C5  UNL     1      32.678   4.155  47.862  1.00  0.00     0.144 C 
HETATM   24 CL1  UNL     1      34.191   3.185  47.819  1.00  0.00    -0.126 Cl
ENDBRANCH  17  23
ENDBRANCH   1  16
TORSDOF 3
ENDMDL
MODEL 8
REMARK VINA RESULT:      -7.5      6.992      8.840
REMARK  3 active torsions:
REMARK  status: ('A' for Active; 'I' for Inactive)
REMARK       I    between atoms: C2_2  and  N1_4 
REMARK    1  A    between atoms: N1_4  and  C3_5 
REMARK    2  A    between atoms: C3_5  and  C6_9 
REMARK    3  A    between atoms: C4_6  and  C5_7 
ROOT
HETATM    1  C6  UNL     1      31.092   6.680  47.038  1.00  0.00     0.035 C 
HETATM    2  C7  UNL     1      29.934   7.111  47.582  1.00  0.00    -0.030 A 
HETATM    3  C8  UNL     1      29.324   7.851  48.660  1.00  0.00     0.251 A 
HETATM    4  N2  UNL     1      28.953   9.221  48.668  1.00  0.00     0.047 NA
HETATM    5  C9  UNL     1      28.256   9.615  49.725  1.00  0.00     0.775 C 
HETATM    6  N3  UNL     1      27.577   9.469  51.008  1.00  0.00    -0.168 NA
HETATM    7  O2  UNL     1      26.583   9.153  50.195  1.00  0.00    -0.299 OA
HETATM    8  C10 UNL     1      26.320   7.779  50.083  1.00  0.00     0.228 C 
HETATM    9  C11 UNL     1      26.441   7.365  48.642  1.00  0.00    -0.053 C 
HETATM   10  C12 UNL     1      25.717   7.852  47.629  1.00  0.00     0.005 C 
HETATM   11  C13 UNL     1      26.520   8.217  46.428  1.00  0.00    -0.002 C 
HETATM   12  C14 UNL     1      27.848   8.017  46.514  1.00  0.00    -0.010 C 
HETATM   13  C15 UNL     1      28.510   7.178  47.536  1.00  0.00     0.040 A 
HETATM   14  C16 UNL     1      27.512   6.333  48.290  1.00  0.00     0.057 C 
HETATM   15  H11 UNL     1      28.511   9.750  51.383  1.00  0.00     0.156 HD
ENDROOT
BRANCH   1  16
HETATM   16  C3  UNL     1      32.419   6.937  47.574  1.00  0.00     0.032 C 
HETATM   17  C4  UNL     1      32.876   8.174  47.538  1.00  0.00     0.018 C 
BRANCH  16  18
HETATM   18  N1  UNL     1      33.129   5.826  48.098  1.00  0.00    -0.328 N 
HETATM   19  C2  UNL     1      33.987   4.941  47.415  1.00  0.00     0.218 C 
HETATM   20  C1  UNL     1      34.710   3.792  47.998  1.00  0.00     0.117 C 
HETATM   21  O1  UNL     1      34.214   5.068  46.198  1.00  0.00    -0.274 OA
HETATM   22  H4  UNL     1      33.071   5.558  49.084  1.00  0.00     0.169 HD
ENDBRANCH  16  18
BRANCH  17  23
HETATM   23  C5  UNL     1      32.329   9.442  47.055  1.00  0.00     0.144 C 
HETATM   24 CL1  UNL     1      33.534  10.767  47.204  1.00  0.00    -0.126 Cl
ENDBRANCH  17  23
ENDBRANCH   1  16
TORSDOF 3
ENDMDL
MODEL 9
REMARK VINA RESULT:      -7.2      3.947      5.132
REMARK  3 active torsions:
REMARK  status: ('A' for Active; 'I' for Inactive)
REMARK       I    between atoms: C2_2  and  N1_4 
REMARK    1  A    between atoms: N1_4  and  C3_5 
REMARK    2  A    between atoms: C3_5  and  C6_9 
REMARK    3  A    between atoms: C4_6  and  C5_7 
ROOT
HETATM    1  C6  UNL     1      26.623   6.583  48.262  1.00  0.00     0.035 C 
HETATM    2  C7  UNL     1      25.871   5.816  49.080  1.00  0.00    -0.030 A 
HETATM    3  C8  UNL     1      25.275   5.692  50.387  1.00  0.00     0.251 A 
HETATM    4  N2  UNL     1      23.960   6.060  50.777  1.00  0.00     0.047 NA
HETATM    5  C9  UNL     1      23.605   5.687  51.999  1.00  0.00     0.775 C 
HETATM    6  N3  UNL     1      23.772   5.067  53.308  1.00  0.00    -0.168 NA
HETATM    7  O2  UNL     1      23.330   4.024  52.624  1.00  0.00    -0.299 OA
HETATM    8  C10 UNL     1      24.318   3.103  52.241  1.00  0.00     0.228 C 
HETATM    9  C11 UNL     1      24.308   2.957  50.744  1.00  0.00    -0.053 C 
HETATM   10  C12 UNL     1      23.268   2.545  50.010  1.00  0.00     0.005 C 
HETATM   11  C13 UNL     1      23.002   3.386  48.809  1.00  0.00    -0.002 C 
HETATM   12  C14 UNL     1      23.823   4.436  48.621  1.00  0.00    -0.010 C 
HETATM   13  C15 UNL     1      25.127   4.617  49.291  1.00  0.00     0.040 A 
HETATM   14  C16 UNL     1      25.574   3.353  49.985  1.00  0.00     0.057 C 
HETATM   15  H11 UNL     1      24.088   6.025  53.575  1.00  0.00     0.156 HD
ENDROOT
BRANCH   1  16
HETATM   16  C3  UNL     1      27.192   7.876  48.611  1.00  0.00     0.032 C 
HETATM   17  C4  UNL     1      26.488   8.959  48.341  1.00  0.00     0.018 C 
BRANCH  16  18
HETATM   18  N1  UNL     1      28.473   7.873  49.220  1.00  0.00    -0.328 N 
HETATM   19  C2  UNL     1      29.728   8.050  48.606  1.00  0.00     0.218 C 
HETATM   20  C1  UNL     1      31.045   8.041  49.276  1.00  0.00     0.117 C 
HETATM   21  O1  UNL     1      29.829   8.238  47.379  1.00  0.00    -0.274 OA
HETATM   22  H4  UNL     1      28.598   7.733  50.227  1.00  0.00     0.169 HD
ENDBRANCH  16  18
BRANCH  17  23
HETATM   23  C5  UNL     1      25.178   9.189  47.731  1.00  0.00     0.144 C 
HETATM   24 CL1  UNL     1      23.855   8.941  48.924  1.00  0.00    -0.126 Cl
ENDBRANCH  17  23
ENDBRANCH   1  16
TORSDOF 3
ENDMDL
