MODEL 1
REMARK VINA RESULT:      -7.6      0.000      0.000
REMARK  6 active torsions:
REMARK  status: ('A' for Active; 'I' for Inactive)
REMARK    1  A    between atoms: O1_2  and  C2_3 
REMARK    2  A    between atoms: C2_3  and  C3_5 
REMARK    3  A    between atoms: C6_8  and  N1_9 
REMARK    4  A    between atoms: N1_9  and  C7_10 
REMARK    5  A    between atoms: C11_15  and  O3_16 
REMARK    6  A    between atoms: C13_18  and  O4_19 
ROOT
HETATM    1  C7  UNL     1      22.266   2.473  51.980  1.00  0.00     0.158 A 
HETATM    2  C8  UNL     1      21.298   2.911  50.944  1.00  0.00     0.120 A 
HETATM    3  N2  UNL     1      20.246   2.154  50.962  1.00  0.00    -0.262 NA
HETATM    4  C9  UNL     1      20.376   1.142  51.983  1.00  0.00     0.067 A 
HETATM    5  C10 UNL     1      19.530   0.123  52.374  1.00  0.00     0.071 A 
HETATM    6  C11 UNL     1      19.886  -0.741  53.398  1.00  0.00     0.103 A 
HETATM    7  C13 UNL     1      21.119  -0.567  54.035  1.00  0.00     0.102 A 
HETATM    8  C15 UNL     1      21.967   0.458  53.639  1.00  0.00     0.051 A 
HETATM    9  C16 UNL     1      21.611   1.316  52.618  1.00  0.00     0.001 A 
ENDROOT
BRANCH   1  10
HETATM   10  N1  UNL     1      23.595   2.269  51.523  1.00  0.00    -0.377 N 
HETATM   11  H6  UNL     1      23.814   2.458  50.494  1.00  0.00     0.160 HD
BRANCH  10  12
HETATM   12  C6  UNL     1      24.775   1.840  52.191  1.00  0.00     0.028 A 
HETATM   13  C5  UNL     1      25.592   0.786  51.770  1.00  0.00     0.030 A 
HETATM   14  C4  UNL     1      26.717   0.427  52.471  1.00  0.00     0.020 A 
HETATM   15  C3  UNL     1      27.105   1.077  53.620  1.00  0.00     0.039 A 
HETATM   16  C18 UNL     1      26.327   2.123  54.069  1.00  0.00     0.020 A 
HETATM   17  C17 UNL     1      25.207   2.459  53.345  1.00  0.00     0.030 A 
BRANCH  15  18
HETATM   18  C2  UNL     1      28.309   0.658  54.328  1.00  0.00     0.292 C 
HETATM   19  O2  UNL     1      29.042   1.454  54.978  1.00  0.00    -0.259 OA
BRANCH  18  20
HETATM   20  O1  UNL     1      28.698  -0.660  54.311  1.00  0.00    -0.323 OA
HETATM   21  C1  UNL     1      29.842  -1.145  53.649  1.00  0.00     0.213 C 
ENDBRANCH  18  20
ENDBRANCH  15  18
ENDBRANCH  10  12
ENDBRANCH   1  10
BRANCH   7  22
HETATM   22  O4  UNL     1      21.498  -1.420  55.063  1.00  0.00    -0.353 OA
HETATM   23  C14 UNL     1      22.857  -1.478  55.405  1.00  0.00     0.210 C 
ENDBRANCH   7  22
BRANCH   6  24
HETATM   24  O3  UNL     1      19.100  -1.791  53.858  1.00  0.00    -0.353 OA
HETATM   25  C12 UNL     1      17.769  -1.895  53.388  1.00  0.00     0.210 C 
ENDBRANCH   6  24
TORSDOF 6
ENDMDL
MODEL 2
REMARK VINA RESULT:      -7.5      3.686      6.153
REMARK  6 active torsions:
REMARK  status: ('A' for Active; 'I' for Inactive)
REMARK    1  A    between atoms: O1_2  and  C2_3 
REMARK    2  A    between atoms: C2_3  and  C3_5 
REMARK    3  A    between atoms: C6_8  and  N1_9 
REMARK    4  A    between atoms: N1_9  and  C7_10 
REMARK    5  A    between atoms: C11_15  and  O3_16 
REMARK    6  A    between atoms: C13_18  and  O4_19 
ROOT
HETATM    1  C7  UNL     1      22.985   2.129  52.615  1.00  0.00     0.158 A 
HETATM    2  C8  UNL     1      22.210   0.886  52.380  1.00  0.00     0.120 A 
HETATM    3  N2  UNL     1      22.921  -0.153  52.686  1.00  0.00    -0.262 NA
HETATM    4  C9  UNL     1      24.227   0.253  53.148  1.00  0.00     0.067 A 
HETATM    5  C10 UNL     1      25.314  -0.482  53.577  1.00  0.00     0.071 A 
HETATM    6  C11 UNL     1      26.483   0.148  53.976  1.00  0.00     0.103 A 
HETATM    7  C13 UNL     1      26.548   1.546  53.938  1.00  0.00     0.102 A 
HETATM    8  C15 UNL     1      25.453   2.281  53.507  1.00  0.00     0.051 A 
HETATM    9  C16 UNL     1      24.290   1.651  53.109  1.00  0.00     0.001 A 
ENDROOT
BRANCH   1  10
HETATM   10  N1  UNL     1      23.022   3.039  51.525  1.00  0.00    -0.377 N 
HETATM   11  H6  UNL     1      22.096   3.365  51.104  1.00  0.00     0.160 HD
BRANCH  10  12
HETATM   12  C6  UNL     1      24.103   3.648  50.831  1.00  0.00     0.028 A 
HETATM   13  C5  UNL     1      24.348   5.025  50.787  1.00  0.00     0.030 A 
HETATM   14  C4  UNL     1      25.414   5.541  50.091  1.00  0.00     0.020 A 
HETATM   15  C3  UNL     1      26.296   4.742  49.398  1.00  0.00     0.039 A 
HETATM   16  C18 UNL     1      26.089   3.379  49.416  1.00  0.00     0.020 A 
HETATM   17  C17 UNL     1      25.013   2.892  50.123  1.00  0.00     0.030 A 
BRANCH  15  18
HETATM   18  C2  UNL     1      27.411   5.339  48.674  1.00  0.00     0.292 C 
HETATM   19  O2  UNL     1      28.495   4.731  48.449  1.00  0.00    -0.259 OA
BRANCH  18  20
HETATM   20  O1  UNL     1      27.318   6.624  48.198  1.00  0.00    -0.323 OA
HETATM   21  C1  UNL     1      28.388   7.539  48.156  1.00  0.00     0.213 C 
ENDBRANCH  18  20
ENDBRANCH  15  18
ENDBRANCH  10  12
ENDBRANCH   1  10
BRANCH   7  22
HETATM   22  O4  UNL     1      27.708   2.200  54.333  1.00  0.00    -0.353 OA
HETATM   23  C14 UNL     1      28.646   2.531  53.345  1.00  0.00     0.210 C 
ENDBRANCH   7  22
BRANCH   6  24
HETATM   24  O3  UNL     1      27.625  -0.507  54.421  1.00  0.00    -0.353 OA
HETATM   25  C12 UNL     1      28.504  -1.060  53.461  1.00  0.00     0.210 C 
ENDBRANCH   6  24
TORSDOF 6
ENDMDL
MODEL 3
REMARK VINA RESULT:      -7.3      1.587      7.240
REMARK  6 active torsions:
REMARK  status: ('A' for Active; 'I' for Inactive)
REMARK    1  A    between atoms: O1_2  and  C2_3 
REMARK    2  A    between atoms: C2_3  and  C3_5 
REMARK    3  A    between atoms: C6_8  and  N1_9 
REMARK    4  A    between atoms: N1_9  and  C7_10 
REMARK    5  A    between atoms: C11_15  and  O3_16 
REMARK    6  A    between atoms: C13_18  and  O4_19 
ROOT
HETATM    1  C7  UNL     1      23.407   1.638  51.414  1.00  0.00     0.158 A 
HETATM    2  C8  UNL     1      24.090   2.773  50.746  1.00  0.00     0.120 A 
HETATM    3  N2  UNL     1      25.261   2.964  51.268  1.00  0.00    -0.262 NA
HETATM    4  C9  UNL     1      25.500   2.009  52.323  1.00  0.00     0.067 A 
HETATM    5  C10 UNL     1      26.584   1.820  53.158  1.00  0.00     0.071 A 
HETATM    6  C11 UNL     1      26.575   0.818  54.115  1.00  0.00     0.103 A 
HETATM    7  C13 UNL     1      25.449  -0.006  54.226  1.00  0.00     0.102 A 
HETATM    8  C15 UNL     1      24.362   0.187  53.385  1.00  0.00     0.051 A 
HETATM    9  C16 UNL     1      24.372   1.187  52.433  1.00  0.00     0.001 A 
ENDROOT
BRANCH   1  10
HETATM   10  N1  UNL     1      22.089   1.905  51.872  1.00  0.00    -0.377 N 
HETATM   11  H6  UNL     1      21.819   2.918  52.081  1.00  0.00     0.160 HD
BRANCH  10  12
HETATM   12  C6  UNL     1      20.980   1.053  52.126  1.00  0.00     0.028 A 
HETATM   13  C5  UNL     1      19.920   0.836  51.239  1.00  0.00     0.030 A 
HETATM   14  C4  UNL     1      18.879  -0.001  51.559  1.00  0.00     0.020 A 
HETATM   15  C3  UNL     1      18.815  -0.670  52.760  1.00  0.00     0.039 A 
HETATM   16  C18 UNL     1      19.840  -0.482  53.663  1.00  0.00     0.020 A 
HETATM   17  C17 UNL     1      20.869   0.361  53.314  1.00  0.00     0.030 A 
BRANCH  15  18
HETATM   18  C2  UNL     1      17.688  -1.547  53.051  1.00  0.00     0.292 C 
HETATM   19  O2  UNL     1      16.512  -1.320  52.649  1.00  0.00    -0.259 OA
BRANCH  18  20
HETATM   20  O1  UNL     1      17.872  -2.688  53.795  1.00  0.00    -0.323 OA
HETATM   21  C1  UNL     1      17.139  -3.878  53.624  1.00  0.00     0.213 C 
ENDBRANCH  18  20
ENDBRANCH  15  18
ENDBRANCH  10  12
ENDBRANCH   1  10
BRANCH   7  22
HETATM   22  O4  UNL     1      25.417  -1.018  55.177  1.00  0.00    -0.353 OA
HETATM   23  C14 UNL     1      24.182  -1.337  55.759  1.00  0.00     0.210 C 
ENDBRANCH   7  22
BRANCH   6  24
HETATM   24  O3  UNL     1      27.617   0.554  54.996  1.00  0.00    -0.353 OA
HETATM   25  C12 UNL     1      28.831   0.048  54.474  1.00  0.00     0.210 C 
ENDBRANCH   6  24
TORSDOF 6
ENDMDL
MODEL 4
REMARK VINA RESULT:      -7.3      3.935      6.396
REMARK  6 active torsions:
REMARK  status: ('A' for Active; 'I' for Inactive)
REMARK    1  A    between atoms: O1_2  and  C2_3 
REMARK    2  A    between atoms: C2_3  and  C3_5 
REMARK    3  A    between atoms: C6_8  and  N1_9 
REMARK    4  A    between atoms: N1_9  and  C7_10 
REMARK    5  A    between atoms: C11_15  and  O3_16 
REMARK    6  A    between atoms: C13_18  and  O4_19 
ROOT
HETATM    1  C7  UNL     1      23.079   3.395  50.617  1.00  0.00     0.158 A 
HETATM    2  C8  UNL     1      22.225   3.898  51.720  1.00  0.00     0.120 A 
HETATM    3  N2  UNL     1      22.581   5.097  52.056  1.00  0.00    -0.262 NA
HETATM    4  C9  UNL     1      23.691   5.534  51.243  1.00  0.00     0.067 A 
HETATM    5  C10 UNL     1      24.405   6.716  51.229  1.00  0.00     0.071 A 
HETATM    6  C11 UNL     1      25.452   6.901  50.340  1.00  0.00     0.103 A 
HETATM    7  C13 UNL     1      25.779   5.871  49.451  1.00  0.00     0.102 A 
HETATM    8  C15 UNL     1      25.058   4.685  49.467  1.00  0.00     0.051 A 
HETATM    9  C16 UNL     1      24.017   4.502  50.355  1.00  0.00     0.001 A 
ENDROOT
BRANCH   1  10
HETATM   10  N1  UNL     1      23.662   2.117  50.833  1.00  0.00    -0.377 N 
HETATM   11  H6  UNL     1      23.264   1.280  50.300  1.00  0.00     0.160 HD
BRANCH  10  12
HETATM   12  C6  UNL     1      24.735   1.688  51.661  1.00  0.00     0.028 A 
HETATM   13  C5  UNL     1      26.091   1.867  51.367  1.00  0.00     0.030 A 
HETATM   14  C4  UNL     1      27.074   1.421  52.217  1.00  0.00     0.020 A 
HETATM   15  C3  UNL     1      26.785   0.776  53.399  1.00  0.00     0.039 A 
HETATM   16  C18 UNL     1      25.461   0.579  53.725  1.00  0.00     0.020 A 
HETATM   17  C17 UNL     1      24.500   1.038  52.854  1.00  0.00     0.030 A 
BRANCH  15  18
HETATM   18  C2  UNL     1      27.865   0.322  54.267  1.00  0.00     0.292 C 
HETATM   19  O2  UNL     1      28.370   1.039  55.176  1.00  0.00    -0.259 OA
BRANCH  18  20
HETATM   20  O1  UNL     1      28.386  -0.941  54.121  1.00  0.00    -0.323 OA
HETATM   21  C1  UNL     1      29.628  -1.228  53.523  1.00  0.00     0.213 C 
ENDBRANCH  18  20
ENDBRANCH  15  18
ENDBRANCH  10  12
ENDBRANCH   1  10
BRANCH   7  22
HETATM   22  O4  UNL     1      26.824   6.033  48.550  1.00  0.00    -0.353 OA
HETATM   23  C14 UNL     1      27.824   5.051  48.517  1.00  0.00     0.210 C 
ENDBRANCH   7  22
BRANCH   6  24
HETATM   24  O3  UNL     1      26.225   8.053  50.254  1.00  0.00    -0.353 OA
HETATM   25  C12 UNL     1      25.689   9.176  49.580  1.00  0.00     0.210 C 
ENDBRANCH   6  24
TORSDOF 6
ENDMDL
MODEL 5
REMARK VINA RESULT:      -7.3      3.220      4.416
REMARK  6 active torsions:
REMARK  status: ('A' for Active; 'I' for Inactive)
REMARK    1  A    between atoms: O1_2  and  C2_3 
REMARK    2  A    between atoms: C2_3  and  C3_5 
REMARK    3  A    between atoms: C6_8  and  N1_9 
REMARK    4  A    between atoms: N1_9  and  C7_10 
REMARK    5  A    between atoms: C11_15  and  O3_16 
REMARK    6  A    between atoms: C13_18  and  O4_19 
ROOT
HETATM    1  C7  UNL     1      24.274  -0.586  53.903  1.00  0.00     0.158 A 
HETATM    2  C8  UNL     1      24.249  -1.237  55.236  1.00  0.00     0.120 A 
HETATM    3  N2  UNL     1      23.031  -1.508  55.583  1.00  0.00    -0.262 NA
HETATM    4  C9  UNL     1      22.112  -1.082  54.555  1.00  0.00     0.067 A 
HETATM    5  C10 UNL     1      20.735  -1.154  54.472  1.00  0.00     0.071 A 
HETATM    6  C11 UNL     1      20.066  -0.663  53.362  1.00  0.00     0.103 A 
HETATM    7  C13 UNL     1      20.805  -0.091  52.321  1.00  0.00     0.102 A 
HETATM    8  C15 UNL     1      22.188  -0.021  52.408  1.00  0.00     0.051 A 
HETATM    9  C16 UNL     1      22.853  -0.509  53.515  1.00  0.00     0.001 A 
ENDROOT
BRANCH   1  10
HETATM   10  N1  UNL     1      25.011   0.625  53.830  1.00  0.00    -0.377 N 
HETATM   11  H6  UNL     1      25.429   1.022  54.731  1.00  0.00     0.160 HD
BRANCH  10  12
HETATM   12  C6  UNL     1      25.334   1.479  52.740  1.00  0.00     0.028 A 
HETATM   13  C5  UNL     1      26.408   1.284  51.865  1.00  0.00     0.030 A 
HETATM   14  C4  UNL     1      26.658   2.157  50.833  1.00  0.00     0.020 A 
HETATM   15  C3  UNL     1      25.875   3.265  50.601  1.00  0.00     0.039 A 
HETATM   16  C18 UNL     1      24.807   3.492  51.441  1.00  0.00     0.020 A 
HETATM   17  C17 UNL     1      24.580   2.601  52.465  1.00  0.00     0.030 A 
BRANCH  15  18
HETATM   18  C2  UNL     1      26.184   4.160  49.492  1.00  0.00     0.292 C 
HETATM   19  O2  UNL     1      25.344   4.963  48.998  1.00  0.00    -0.259 OA
BRANCH  18  20
HETATM   20  O1  UNL     1      27.438   4.159  48.931  1.00  0.00    -0.323 OA
HETATM   21  C1  UNL     1      28.102   5.309  48.463  1.00  0.00     0.213 C 
ENDBRANCH  18  20
ENDBRANCH  15  18
ENDBRANCH  10  12
ENDBRANCH   1  10
BRANCH   7  22
HETATM   22  O4  UNL     1      20.156   0.407  51.198  1.00  0.00    -0.353 OA
HETATM   23  C14 UNL     1      20.919   1.113  50.255  1.00  0.00     0.210 C 
ENDBRANCH   7  22
BRANCH   6  24
HETATM   24  O3  UNL     1      18.687  -0.692  53.191  1.00  0.00    -0.353 OA
HETATM   25  C12 UNL     1      18.004  -1.910  53.423  1.00  0.00     0.210 C 
ENDBRANCH   6  24
TORSDOF 6
ENDMDL
MODEL 6
REMARK VINA RESULT:      -7.3      5.506      8.660
REMARK  6 active torsions:
REMARK  status: ('A' for Active; 'I' for Inactive)
REMARK    1  A    between atoms: O1_2  and  C2_3 
REMARK    2  A    between atoms: C2_3  and  C3_5 
REMARK    3  A    between atoms: C6_8  and  N1_9 
REMARK    4  A    between atoms: N1_9  and  C7_10 
REMARK    5  A    between atoms: C11_15  and  O3_16 
REMARK    6  A    between atoms: C13_18  and  O4_19 
ROOT
HETATM    1  C7  UNL     1      26.175   4.114  49.439  1.00  0.00     0.158 A 
HETATM    2  C8  UNL     1      24.833   4.746  49.428  1.00  0.00     0.120 A 
HETATM    3  N2  UNL     1      24.892   5.919  48.880  1.00  0.00    -0.262 NA
HETATM    4  C9  UNL     1      26.244   6.211  48.469  1.00  0.00     0.067 A 
HETATM    5  C10 UNL     1      26.793   7.317  47.851  1.00  0.00     0.071 A 
HETATM    6  C11 UNL     1      28.146   7.365  47.555  1.00  0.00     0.103 A 
HETATM    7  C13 UNL     1      28.954   6.273  47.891  1.00  0.00     0.102 A 
HETATM    8  C15 UNL     1      28.398   5.163  48.511  1.00  0.00     0.051 A 
HETATM    9  C16 UNL     1      27.050   5.118  48.806  1.00  0.00     0.001 A 
ENDROOT
BRANCH   1  10
HETATM   10  N1  UNL     1      26.602   3.613  50.698  1.00  0.00    -0.377 N 
HETATM   11  H6  UNL     1      27.435   4.083  51.176  1.00  0.00     0.160 HD
BRANCH  10  12
HETATM   12  C6  UNL     1      26.124   2.550  51.511  1.00  0.00     0.028 A 
HETATM   13  C5  UNL     1      26.693   1.273  51.571  1.00  0.00     0.030 A 
HETATM   14  C4  UNL     1      26.171   0.294  52.381  1.00  0.00     0.020 A 
HETATM   15  C3  UNL     1      25.066   0.508  53.174  1.00  0.00     0.039 A 
HETATM   16  C18 UNL     1      24.476   1.753  53.144  1.00  0.00     0.020 A 
HETATM   17  C17 UNL     1      25.022   2.713  52.323  1.00  0.00     0.030 A 
BRANCH  15  18
HETATM   18  C2  UNL     1      24.551  -0.565  54.016  1.00  0.00     0.292 C 
HETATM   19  O2  UNL     1      25.237  -1.130  54.914  1.00  0.00    -0.259 OA
BRANCH  18  20
HETATM   20  O1  UNL     1      23.262  -1.012  53.857  1.00  0.00    -0.323 OA
HETATM   21  C1  UNL     1      22.284  -1.005  54.870  1.00  0.00     0.213 C 
ENDBRANCH  18  20
ENDBRANCH  15  18
ENDBRANCH  10  12
ENDBRANCH   1  10
BRANCH   7  22
HETATM   22  O4  UNL     1      30.313   6.297  47.604  1.00  0.00    -0.353 OA
HETATM   23  C14 UNL     1      31.214   6.268  48.679  1.00  0.00     0.210 C 
ENDBRANCH   7  22
BRANCH   6  24
HETATM   24  O3  UNL     1      28.785   8.433  46.937  1.00  0.00    -0.353 OA
HETATM   25  C12 UNL     1      29.031   9.603  47.694  1.00  0.00     0.210 C 
ENDBRANCH   6  24
TORSDOF 6
ENDMDL
MODEL 7
REMARK VINA RESULT:      -7.2      4.304      5.215
REMARK  6 active torsions:
REMARK  status: ('A' for Active; 'I' for Inactive)
REMARK    1  A    between atoms: O1_2  and  C2_3 
REMARK    2  A    between atoms: C2_3  and  C3_5 
REMARK    3  A    between atoms: C6_8  and  N1_9 
REMARK    4  A    between atoms: N1_9  and  C7_10 
REMARK    5  A    between atoms: C11_15  and  O3_16 
REMARK    6  A    between atoms: C13_18  and  O4_19 
ROOT
HETATM    1  C7  UNL     1      23.112   4.070  51.329  1.00  0.00     0.158 A 
HETATM    2  C8  UNL     1      21.662   4.327  51.505  1.00  0.00     0.120 A 
HETATM    3  N2  UNL     1      21.093   3.318  52.086  1.00  0.00    -0.262 NA
HETATM    4  C9  UNL     1      22.064   2.287  52.362  1.00  0.00     0.067 A 
HETATM    5  C10 UNL     1      21.937   1.048  52.958  1.00  0.00     0.071 A 
HETATM    6  C11 UNL     1      23.038   0.219  53.110  1.00  0.00     0.103 A 
HETATM    7  C13 UNL     1      24.286   0.656  52.652  1.00  0.00     0.102 A 
HETATM    8  C15 UNL     1      24.409   1.902  52.055  1.00  0.00     0.051 A 
HETATM    9  C16 UNL     1      23.311   2.726  51.902  1.00  0.00     0.001 A 
ENDROOT
BRANCH   1  10
HETATM   10  N1  UNL     1      23.612   4.272  50.015  1.00  0.00    -0.377 N 
HETATM   11  H6  UNL     1      22.966   4.067  49.188  1.00  0.00     0.160 HD
BRANCH  10  12
HETATM   12  C6  UNL     1      24.873   4.721  49.535  1.00  0.00     0.028 A 
HETATM   13  C5  UNL     1      25.135   6.013  49.068  1.00  0.00     0.030 A 
HETATM   14  C4  UNL     1      26.382   6.372  48.616  1.00  0.00     0.020 A 
HETATM   15  C3  UNL     1      27.438   5.490  48.594  1.00  0.00     0.039 A 
HETATM   16  C18 UNL     1      27.221   4.206  49.046  1.00  0.00     0.020 A 
HETATM   17  C17 UNL     1      25.962   3.876  49.494  1.00  0.00     0.030 A 
BRANCH  15  18
HETATM   18  C2  UNL     1      28.742   5.921  48.104  1.00  0.00     0.292 C 
HETATM   19  O2  UNL     1      28.893   6.858  47.273  1.00  0.00    -0.259 OA
BRANCH  18  20
HETATM   20  O1  UNL     1      29.886   5.301  48.546  1.00  0.00    -0.323 OA
HETATM   21  C1  UNL     1      31.110   5.298  47.850  1.00  0.00     0.213 C 
ENDBRANCH  18  20
ENDBRANCH  15  18
ENDBRANCH  10  12
ENDBRANCH   1  10
BRANCH   7  22
HETATM   22  O4  UNL     1      25.404  -0.156  52.794  1.00  0.00    -0.353 OA
HETATM   23  C14 UNL     1      26.550   0.164  52.053  1.00  0.00     0.210 C 
ENDBRANCH   7  22
BRANCH   6  24
HETATM   24  O3  UNL     1      23.007  -1.041  53.696  1.00  0.00    -0.353 OA
HETATM   25  C12 UNL     1      22.424  -1.175  54.978  1.00  0.00     0.210 C 
ENDBRANCH   6  24
TORSDOF 6
ENDMDL
MODEL 8
REMARK VINA RESULT:      -7.2      2.085      3.119
REMARK  6 active torsions:
REMARK  status: ('A' for Active; 'I' for Inactive)
REMARK    1  A    between atoms: O1_2  and  C2_3 
REMARK    2  A    between atoms: C2_3  and  C3_5 
REMARK    3  A    between atoms: C6_8  and  N1_9 
REMARK    4  A    between atoms: N1_9  and  C7_10 
REMARK    5  A    between atoms: C11_15  and  O3_16 
REMARK    6  A    between atoms: C13_18  and  O4_19 
ROOT
HETATM    1  C7  UNL     1      22.604  -0.599  53.157  1.00  0.00     0.158 A 
HETATM    2  C8  UNL     1      22.395  -1.268  54.464  1.00  0.00     0.120 A 
HETATM    3  N2  UNL     1      21.129  -1.422  54.694  1.00  0.00    -0.262 NA
HETATM    4  C9  UNL     1      20.354  -0.887  53.601  1.00  0.00     0.067 A 
HETATM    5  C10 UNL     1      18.991  -0.819  53.394  1.00  0.00     0.071 A 
HETATM    6  C11 UNL     1      18.476  -0.243  52.243  1.00  0.00     0.103 A 
HETATM    7  C13 UNL     1      19.360   0.272  51.287  1.00  0.00     0.102 A 
HETATM    8  C15 UNL     1      20.729   0.201  51.499  1.00  0.00     0.051 A 
HETATM    9  C16 UNL     1      21.239  -0.372  52.647  1.00  0.00     0.001 A 
ENDROOT
BRANCH   1  10
HETATM   10  N1  UNL     1      23.461   0.534  53.184  1.00  0.00    -0.377 N 
HETATM   11  H6  UNL     1      23.028   1.502  53.044  1.00  0.00     0.160 HD
BRANCH  10  12
HETATM   12  C6  UNL     1      24.864   0.662  53.371  1.00  0.00     0.028 A 
HETATM   13  C5  UNL     1      25.765   1.086  52.388  1.00  0.00     0.030 A 
HETATM   14  C4  UNL     1      27.112   1.182  52.644  1.00  0.00     0.020 A 
HETATM   15  C3  UNL     1      27.650   0.868  53.872  1.00  0.00     0.039 A 
HETATM   16  C18 UNL     1      26.796   0.446  54.867  1.00  0.00     0.020 A 
HETATM   17  C17 UNL     1      25.453   0.361  54.581  1.00  0.00     0.030 A 
BRANCH  15  18
HETATM   18  C2  UNL     1      29.087   0.986  54.093  1.00  0.00     0.292 C 
HETATM   19  O2  UNL     1      29.604   1.885  54.813  1.00  0.00    -0.259 OA
BRANCH  18  20
HETATM   20  O1  UNL     1      29.953   0.096  53.506  1.00  0.00    -0.323 OA
HETATM   21  C1  UNL     1      29.774  -1.301  53.494  1.00  0.00     0.213 C 
ENDBRANCH  18  20
ENDBRANCH  15  18
ENDBRANCH  10  12
ENDBRANCH   1  10
BRANCH   7  22
HETATM   22  O4  UNL     1      18.868   0.854  50.126  1.00  0.00    -0.353 OA
HETATM   23  C14 UNL     1      19.694   1.758  49.441  1.00  0.00     0.210 C 
ENDBRANCH   7  22
BRANCH   6  24
HETATM   24  O3  UNL     1      17.123  -0.130  51.949  1.00  0.00    -0.353 OA
HETATM   25  C12 UNL     1      16.288  -1.251  52.173  1.00  0.00     0.210 C 
ENDBRANCH   6  24
TORSDOF 6
ENDMDL
MODEL 9
REMARK VINA RESULT:      -7.2      5.034      6.684
REMARK  6 active torsions:
REMARK  status: ('A' for Active; 'I' for Inactive)
REMARK    1  A    between atoms: O1_2  and  C2_3 
REMARK    2  A    between atoms: C2_3  and  C3_5 
REMARK    3  A    between atoms: C6_8  and  N1_9 
REMARK    4  A    between atoms: N1_9  and  C7_10 
REMARK    5  A    between atoms: C11_15  and  O3_16 
REMARK    6  A    between atoms: C13_18  and  O4_19 
ROOT
HETATM    1  C7  UNL     1      24.810   3.030  50.914  1.00  0.00     0.158 A 
HETATM    2  C8  UNL     1      23.508   2.473  50.474  1.00  0.00     0.120 A 
HETATM    3  N2  UNL     1      23.193   1.442  51.191  1.00  0.00    -0.262 NA
HETATM    4  C9  UNL     1      24.219   1.184  52.174  1.00  0.00     0.067 A 
HETATM    5  C10 UNL     1      24.329   0.210  53.146  1.00  0.00     0.071 A 
HETATM    6  C11 UNL     1      25.434   0.166  53.983  1.00  0.00     0.103 A 
HETATM    7  C13 UNL     1      26.440   1.126  53.830  1.00  0.00     0.102 A 
HETATM    8  C15 UNL     1      26.324   2.104  52.852  1.00  0.00     0.051 A 
HETATM    9  C16 UNL     1      25.224   2.145  52.019  1.00  0.00     0.001 A 
ENDROOT
BRANCH   1  10
HETATM   10  N1  UNL     1      25.765   3.234  49.883  1.00  0.00    -0.377 N 
HETATM   11  H6  UNL     1      26.202   2.377  49.417  1.00  0.00     0.160 HD
BRANCH  10  12
HETATM   12  C6  UNL     1      26.297   4.416  49.299  1.00  0.00     0.028 A 
HETATM   13  C5  UNL     1      25.572   5.591  49.072  1.00  0.00     0.030 A 
HETATM   14  C4  UNL     1      26.155   6.694  48.498  1.00  0.00     0.020 A 
HETATM   15  C3  UNL     1      27.478   6.710  48.115  1.00  0.00     0.039 A 
HETATM   16  C18 UNL     1      28.227   5.572  48.321  1.00  0.00     0.020 A 
HETATM   17  C17 UNL     1      27.615   4.483  48.898  1.00  0.00     0.030 A 
BRANCH  15  18
HETATM   18  C2  UNL     1      28.050   7.907  47.511  1.00  0.00     0.292 C 
HETATM   19  O2  UNL     1      28.461   7.951  46.317  1.00  0.00    -0.259 OA
BRANCH  18  20
HETATM   20  O1  UNL     1      28.164   9.064  48.242  1.00  0.00    -0.323 OA
HETATM   21  C1  UNL     1      29.171   9.309  49.196  1.00  0.00     0.213 C 
ENDBRANCH  18  20
ENDBRANCH  15  18
ENDBRANCH  10  12
ENDBRANCH   1  10
BRANCH   7  22
HETATM   22  O4  UNL     1      27.556   1.103  54.657  1.00  0.00    -0.353 OA
HETATM   23  C14 UNL     1      28.813   0.920  54.062  1.00  0.00     0.210 C 
ENDBRANCH   7  22
BRANCH   6  24
HETATM   24  O3  UNL     1      25.631  -0.775  54.987  1.00  0.00    -0.353 OA
HETATM   25  C12 UNL     1      24.499  -1.282  55.668  1.00  0.00     0.210 C 
ENDBRANCH   6  24
TORSDOF 6
ENDMDL
