MODEL 1
REMARK VINA RESULT:      -7.9      0.000      0.000
REMARK  6 active torsions:
REMARK  status: ('A' for Active; 'I' for Inactive)
REMARK    1  A    between atoms: C1_2  and  C2_3 
REMARK       I    between atoms: C1_2  and  N1_9 
REMARK    2  A    between atoms: C3_4  and  C4_5 
REMARK    3  A    between atoms: N1_9  and  C5_10 
REMARK    4  A    between atoms: C5_10  and  C6_11 
REMARK    5  A    between atoms: C5_10  and  N2_14 
REMARK    6  A    between atoms: N2_14  and  C8_15 
ROOT
HETATM    1  C5  UNL     1      24.325   1.682  52.241  1.00  0.00     0.210 C 
ENDROOT
BRANCH   1   2
HETATM    2  N1  UNL     1      25.486   0.880  52.612  1.00  0.00    -0.333 N 
HETATM    3  C1  UNL     1      26.294   1.383  53.658  1.00  0.00     0.242 C 
HETATM    4  O1  UNL     1      26.078   2.455  54.274  1.00  0.00    -0.269 OA
HETATM    5  H3  UNL     1      25.728  -0.012  52.152  1.00  0.00     0.165 HD
BRANCH   3   6
HETATM    6  C2  UNL     1      27.481   0.676  54.121  1.00  0.00     0.079 C 
HETATM    7  C3  UNL     1      28.105  -0.093  53.233  1.00  0.00     0.094 C 
BRANCH   7   8
HETATM    8  C4  UNL     1      29.337  -0.893  53.525  1.00  0.00     0.408 C 
HETATM    9  F1  UNL     1      30.457  -0.340  52.955  1.00  0.00    -0.167 F 
HETATM   10  F2  UNL     1      29.467  -0.895  54.894  1.00  0.00    -0.167 F 
HETATM   11  F3  UNL     1      29.209  -2.200  53.085  1.00  0.00    -0.167 F 
ENDBRANCH   7   8
ENDBRANCH   3   6
ENDBRANCH   1   2
BRANCH   1  12
HETATM   12  C6  UNL     1      24.693   2.505  51.031  1.00  0.00     0.027 C 
HETATM   13  C7  UNL     1      24.537   3.818  51.082  1.00  0.00     0.056 C 
HETATM   14 BR1  UNL     1      24.913   5.092  49.724  1.00  0.00    -0.064 Br
ENDBRANCH   1  12
BRANCH   1  15
HETATM   15  N2  UNL     1      23.209   0.855  51.798  1.00  0.00    -0.349 N 
HETATM   16  H7  UNL     1      23.000   0.874  50.798  1.00  0.00     0.163 HD
BRANCH  15  17
HETATM   17  C8  UNL     1      22.517   0.101  52.785  1.00  0.00     0.139 A 
HETATM   18  N3  UNL     1      23.158  -0.424  53.842  1.00  0.00    -0.224 NA
HETATM   19  C9  UNL     1      22.542  -1.142  54.799  1.00  0.00     0.235 A 
HETATM   20  N4  UNL     1      21.201  -1.376  54.735  1.00  0.00    -0.241 NA
HETATM   21  C10 UNL     1      20.467  -0.884  53.702  1.00  0.00     0.072 A 
HETATM   22  C11 UNL     1      19.111  -1.105  53.613  1.00  0.00     0.032 A 
HETATM   23  C15 UNL     1      21.164  -0.159  52.762  1.00  0.00     0.038 A 
HETATM   24  C12 UNL     1      18.376  -0.604  52.565  1.00  0.00     0.002 A 
HETATM   25  C13 UNL     1      19.046   0.129  51.603  1.00  0.00     0.001 A 
HETATM   26  C14 UNL     1      20.408   0.332  51.722  1.00  0.00     0.017 A 
ENDBRANCH  15  17
ENDBRANCH   1  15
TORSDOF 6
ENDMDL
MODEL 2
REMARK VINA RESULT:      -7.9      1.856      2.533
REMARK  6 active torsions:
REMARK  status: ('A' for Active; 'I' for Inactive)
REMARK    1  A    between atoms: C1_2  and  C2_3 
REMARK       I    between atoms: C1_2  and  N1_9 
REMARK    2  A    between atoms: C3_4  and  C4_5 
REMARK    3  A    between atoms: N1_9  and  C5_10 
REMARK    4  A    between atoms: C5_10  and  C6_11 
REMARK    5  A    between atoms: C5_10  and  N2_14 
REMARK    6  A    between atoms: N2_14  and  C8_15 
ROOT
HETATM    1  C5  UNL     1      25.048   3.145  51.327  1.00  0.00     0.210 C 
ENDROOT
BRANCH   1   2
HETATM    2  N1  UNL     1      26.359   2.597  51.655  1.00  0.00    -0.333 N 
HETATM    3  C1  UNL     1      26.536   2.131  52.979  1.00  0.00     0.242 C 
HETATM    4  O1  UNL     1      25.652   2.161  53.870  1.00  0.00    -0.269 OA
HETATM    5  H3  UNL     1      27.134   2.539  50.976  1.00  0.00     0.165 HD
BRANCH   3   6
HETATM    6  C2  UNL     1      27.797   1.561  53.432  1.00  0.00     0.079 C 
HETATM    7  C3  UNL     1      27.968   0.255  53.238  1.00  0.00     0.094 C 
BRANCH   7   8
HETATM    8  C4  UNL     1      29.196  -0.504  53.636  1.00  0.00     0.408 C 
HETATM    9  F1  UNL     1      30.342   0.084  53.162  1.00  0.00    -0.167 F 
HETATM   10  F2  UNL     1      29.210  -0.502  55.012  1.00  0.00    -0.167 F 
HETATM   11  F3  UNL     1      29.148  -1.815  53.191  1.00  0.00    -0.167 F 
ENDBRANCH   7   8
ENDBRANCH   3   6
ENDBRANCH   1   2
BRANCH   1  12
HETATM   12  C6  UNL     1      25.171   3.906  50.029  1.00  0.00     0.027 C 
HETATM   13  C7  UNL     1      25.387   5.210  50.072  1.00  0.00     0.056 C 
HETATM   14 BR1  UNL     1      25.582   6.411  48.613  1.00  0.00    -0.064 Br
ENDBRANCH   1  12
BRANCH   1  15
HETATM   15  N2  UNL     1      24.071   2.099  51.049  1.00  0.00    -0.349 N 
HETATM   16  H7  UNL     1      24.366   1.363  50.404  1.00  0.00     0.163 HD
BRANCH  15  17
HETATM   17  C8  UNL     1      22.808   2.191  51.694  1.00  0.00     0.139 A 
HETATM   18  N3  UNL     1      21.982   3.226  51.472  1.00  0.00    -0.224 NA
HETATM   19  C9  UNL     1      20.779   3.351  52.061  1.00  0.00     0.235 A 
HETATM   20  N4  UNL     1      20.332   2.406  52.936  1.00  0.00    -0.241 NA
HETATM   21  C10 UNL     1      21.099   1.321  53.223  1.00  0.00     0.072 A 
HETATM   22  C11 UNL     1      20.672   0.351  54.101  1.00  0.00     0.032 A 
HETATM   23  C15 UNL     1      22.316   1.259  52.584  1.00  0.00     0.038 A 
HETATM   24  C12 UNL     1      21.453  -0.744  54.387  1.00  0.00     0.002 A 
HETATM   25  C13 UNL     1      22.684  -0.836  53.761  1.00  0.00     0.001 A 
HETATM   26  C14 UNL     1      23.081   0.155  52.885  1.00  0.00     0.017 A 
ENDBRANCH  15  17
ENDBRANCH   1  15
TORSDOF 6
ENDMDL
MODEL 3
REMARK VINA RESULT:      -7.7      4.268      7.224
REMARK  6 active torsions:
REMARK  status: ('A' for Active; 'I' for Inactive)
REMARK    1  A    between atoms: C1_2  and  C2_3 
REMARK       I    between atoms: C1_2  and  N1_9 
REMARK    2  A    between atoms: C3_4  and  C4_5 
REMARK    3  A    between atoms: N1_9  and  C5_10 
REMARK    4  A    between atoms: C5_10  and  C6_11 
REMARK    5  A    between atoms: C5_10  and  N2_14 
REMARK    6  A    between atoms: N2_14  and  C8_15 
ROOT
HETATM    1  C5  UNL     1      24.121   1.287  52.882  1.00  0.00     0.210 C 
ENDROOT
BRANCH   1   2
HETATM    2  N1  UNL     1      24.161   1.997  51.608  1.00  0.00    -0.333 N 
HETATM    3  C1  UNL     1      24.069   3.408  51.668  1.00  0.00     0.242 C 
HETATM    4  O1  UNL     1      23.958   4.071  52.728  1.00  0.00    -0.269 OA
HETATM    5  H3  UNL     1      24.251   1.521  50.698  1.00  0.00     0.165 HD
BRANCH   3   6
HETATM    6  C2  UNL     1      24.097   4.232  50.467  1.00  0.00     0.079 C 
HETATM    7  C3  UNL     1      25.229   4.884  50.214  1.00  0.00     0.094 C 
BRANCH   7   8
HETATM    8  C4  UNL     1      25.444   5.776  49.031  1.00  0.00     0.408 C 
HETATM    9  F1  UNL     1      24.383   5.741  48.160  1.00  0.00    -0.167 F 
HETATM   10  F2  UNL     1      25.585   7.046  49.539  1.00  0.00    -0.167 F 
HETATM   11  F3  UNL     1      26.599   5.438  48.344  1.00  0.00    -0.167 F 
ENDBRANCH   7   8
ENDBRANCH   3   6
ENDBRANCH   1   2
BRANCH   1  12
HETATM   12  C6  UNL     1      22.793   0.577  52.980  1.00  0.00     0.027 C 
HETATM   13  C7  UNL     1      22.658  -0.404  53.858  1.00  0.00     0.056 C 
HETATM   14 BR1  UNL     1      21.119  -1.464  54.197  1.00  0.00    -0.064 Br
ENDBRANCH   1  12
BRANCH   1  15
HETATM   15  N2  UNL     1      25.114   0.221  52.944  1.00  0.00    -0.349 N 
HETATM   16  H7  UNL     1      24.769  -0.729  52.794  1.00  0.00     0.163 HD
BRANCH  15  17
HETATM   17  C8  UNL     1      26.461   0.593  53.205  1.00  0.00     0.139 A 
HETATM   18  N3  UNL     1      26.801   1.868  53.452  1.00  0.00    -0.224 NA
HETATM   19  C9  UNL     1      28.062   2.263  53.703  1.00  0.00     0.235 A 
HETATM   20  N4  UNL     1      29.082   1.358  53.718  1.00  0.00    -0.241 NA
HETATM   21  C10 UNL     1      28.836   0.043  53.480  1.00  0.00     0.072 A 
HETATM   22  C11 UNL     1      29.846  -0.892  53.489  1.00  0.00     0.032 A 
HETATM   23  C15 UNL     1      27.523  -0.287  53.230  1.00  0.00     0.038 A 
HETATM   24  C12 UNL     1      29.589  -2.220  53.247  1.00  0.00     0.002 A 
HETATM   25  C13 UNL     1      28.279  -2.585  52.993  1.00  0.00     0.001 A 
HETATM   26  C14 UNL     1      27.289  -1.622  52.991  1.00  0.00     0.017 A 
ENDBRANCH  15  17
ENDBRANCH   1  15
TORSDOF 6
ENDMDL
MODEL 4
REMARK VINA RESULT:      -7.7      4.468      5.887
REMARK  6 active torsions:
REMARK  status: ('A' for Active; 'I' for Inactive)
REMARK    1  A    between atoms: C1_2  and  C2_3 
REMARK       I    between atoms: C1_2  and  N1_9 
REMARK    2  A    between atoms: C3_4  and  C4_5 
REMARK    3  A    between atoms: N1_9  and  C5_10 
REMARK    4  A    between atoms: C5_10  and  C6_11 
REMARK    5  A    between atoms: C5_10  and  N2_14 
REMARK    6  A    between atoms: N2_14  and  C8_15 
ROOT
HETATM    1  C5  UNL     1      25.881   2.734  51.128  1.00  0.00     0.210 C 
ENDROOT
BRANCH   1   2
HETATM    2  N1  UNL     1      26.600   3.855  50.532  1.00  0.00    -0.333 N 
HETATM    3  C1  UNL     1      25.909   4.595  49.544  1.00  0.00     0.242 C 
HETATM    4  O1  UNL     1      24.741   4.352  49.157  1.00  0.00    -0.269 OA
HETATM    5  H3  UNL     1      27.562   4.116  50.799  1.00  0.00     0.165 HD
BRANCH   3   6
HETATM    6  C2  UNL     1      26.517   5.737  48.874  1.00  0.00     0.079 C 
HETATM    7  C3  UNL     1      27.801   5.623  48.542  1.00  0.00     0.094 C 
BRANCH   7   8
HETATM    8  C4  UNL     1      28.593   6.689  47.850  1.00  0.00     0.408 C 
HETATM    9  F1  UNL     1      27.858   7.333  46.885  1.00  0.00    -0.167 F 
HETATM   10  F2  UNL     1      28.954   7.584  48.830  1.00  0.00    -0.167 F 
HETATM   11  F3  UNL     1      29.740   6.173  47.270  1.00  0.00    -0.167 F 
ENDBRANCH   7   8
ENDBRANCH   3   6
ENDBRANCH   1   2
BRANCH   1  12
HETATM   12  C6  UNL     1      26.899   1.733  51.618  1.00  0.00     0.027 C 
HETATM   13  C7  UNL     1      27.520   1.964  52.762  1.00  0.00     0.056 C 
HETATM   14 BR1  UNL     1      28.834   0.891  53.615  1.00  0.00    -0.064 Br
ENDBRANCH   1  12
BRANCH   1  15
HETATM   15  N2  UNL     1      25.148   3.130  52.325  1.00  0.00    -0.349 N 
HETATM   16  H7  UNL     1      25.697   3.560  53.071  1.00  0.00     0.163 HD
BRANCH  15  17
HETATM   17  C8  UNL     1      23.748   2.887  52.348  1.00  0.00     0.139 A 
HETATM   18  N3  UNL     1      22.868   3.818  51.945  1.00  0.00    -0.224 NA
HETATM   19  C9  UNL     1      21.536   3.630  51.950  1.00  0.00     0.235 A 
HETATM   20  N4  UNL     1      21.004   2.450  52.378  1.00  0.00    -0.241 NA
HETATM   21  C10 UNL     1      21.816   1.446  52.804  1.00  0.00     0.072 A 
HETATM   22  C11 UNL     1      21.306   0.244  53.240  1.00  0.00     0.032 A 
HETATM   23  C15 UNL     1      23.166   1.710  52.771  1.00  0.00     0.038 A 
HETATM   24  C12 UNL     1      22.133  -0.766  53.670  1.00  0.00     0.002 A 
HETATM   25  C13 UNL     1      23.497  -0.532  53.649  1.00  0.00     0.001 A 
HETATM   26  C14 UNL     1      23.976   0.685  53.205  1.00  0.00     0.017 A 
ENDBRANCH  15  17
ENDBRANCH   1  15
TORSDOF 6
ENDMDL
MODEL 5
REMARK VINA RESULT:      -7.6      4.255      5.584
REMARK  6 active torsions:
REMARK  status: ('A' for Active; 'I' for Inactive)
REMARK    1  A    between atoms: C1_2  and  C2_3 
REMARK       I    between atoms: C1_2  and  N1_9 
REMARK    2  A    between atoms: C3_4  and  C4_5 
REMARK    3  A    between atoms: N1_9  and  C5_10 
REMARK    4  A    between atoms: C5_10  and  C6_11 
REMARK    5  A    between atoms: C5_10  and  N2_14 
REMARK    6  A    between atoms: N2_14  and  C8_15 
ROOT
HETATM    1  C5  UNL     1      25.541   1.906  51.604  1.00  0.00     0.210 C 
ENDROOT
BRANCH   1   2
HETATM    2  N1  UNL     1      25.979   3.252  51.253  1.00  0.00    -0.333 N 
HETATM    3  C1  UNL     1      25.439   3.803  50.067  1.00  0.00     0.242 C 
HETATM    4  O1  UNL     1      24.624   3.216  49.314  1.00  0.00    -0.269 OA
HETATM    5  H3  UNL     1      26.645   3.797  51.822  1.00  0.00     0.165 HD
BRANCH   3   6
HETATM    6  C2  UNL     1      25.796   5.139  49.608  1.00  0.00     0.079 C 
HETATM    7  C3  UNL     1      26.881   5.240  48.845  1.00  0.00     0.094 C 
BRANCH   7   8
HETATM    8  C4  UNL     1      27.401   6.526  48.281  1.00  0.00     0.408 C 
HETATM    9  F1  UNL     1      27.705   7.434  49.265  1.00  0.00    -0.167 F 
HETATM   10  F2  UNL     1      28.542   6.198  47.587  1.00  0.00    -0.167 F 
HETATM   11  F3  UNL     1      26.494   7.100  47.406  1.00  0.00    -0.167 F 
ENDBRANCH   7   8
ENDBRANCH   3   6
ENDBRANCH   1   2
BRANCH   1  12
HETATM   12  C6  UNL     1      26.770   1.066  51.855  1.00  0.00     0.027 C 
HETATM   13  C7  UNL     1      27.176   0.885  53.100  1.00  0.00     0.056 C 
HETATM   14 BR1  UNL     1      28.674  -0.113  53.708  1.00  0.00    -0.064 Br
ENDBRANCH   1  12
BRANCH   1  15
HETATM   15  N2  UNL     1      24.814   1.880  52.868  1.00  0.00    -0.349 N 
HETATM   16  H7  UNL     1      25.382   1.827  53.716  1.00  0.00     0.163 HD
BRANCH  15  17
HETATM   17  C8  UNL     1      23.395   1.930  52.810  1.00  0.00     0.139 A 
HETATM   18  N3  UNL     1      22.752   2.996  52.307  1.00  0.00    -0.224 NA
HETATM   19  C9  UNL     1      21.412   3.085  52.233  1.00  0.00     0.235 A 
HETATM   20  N4  UNL     1      20.624   2.067  52.680  1.00  0.00    -0.241 NA
HETATM   21  C10 UNL     1      21.184   0.946  53.205  1.00  0.00     0.072 A 
HETATM   22  C11 UNL     1      20.412  -0.098  53.663  1.00  0.00     0.032 A 
HETATM   23  C15 UNL     1      22.559   0.925  53.249  1.00  0.00     0.038 A 
HETATM   24  C12 UNL     1      20.986  -1.229  54.194  1.00  0.00     0.002 A 
HETATM   25  C13 UNL     1      22.367  -1.281  54.252  1.00  0.00     0.001 A 
HETATM   26  C14 UNL     1      23.113  -0.216  53.784  1.00  0.00     0.017 A 
ENDBRANCH  15  17
ENDBRANCH   1  15
TORSDOF 6
ENDMDL
MODEL 6
REMARK VINA RESULT:      -7.5      4.253      7.498
REMARK  6 active torsions:
REMARK  status: ('A' for Active; 'I' for Inactive)
REMARK    1  A    between atoms: C1_2  and  C2_3 
REMARK       I    between atoms: C1_2  and  N1_9 
REMARK    2  A    between atoms: C3_4  and  C4_5 
REMARK    3  A    between atoms: N1_9  and  C5_10 
REMARK    4  A    between atoms: C5_10  and  C6_11 
REMARK    5  A    between atoms: C5_10  and  N2_14 
REMARK    6  A    between atoms: N2_14  and  C8_15 
ROOT
HETATM    1  C5  UNL     1      26.079   2.349  51.786  1.00  0.00     0.210 C 
ENDROOT
BRANCH   1   2
HETATM    2  N1  UNL     1      25.313   1.123  51.976  1.00  0.00    -0.333 N 
HETATM    3  C1  UNL     1      24.056   1.255  52.613  1.00  0.00     0.242 C 
HETATM    4  O1  UNL     1      23.572   2.340  53.016  1.00  0.00    -0.269 OA
HETATM    5  H3  UNL     1      25.645   0.195  51.670  1.00  0.00     0.165 HD
BRANCH   3   6
HETATM    6  C2  UNL     1      23.195   0.106  52.860  1.00  0.00     0.079 C 
HETATM    7  C3  UNL     1      22.990  -0.226  54.132  1.00  0.00     0.094 C 
BRANCH   7   8
HETATM    8  C4  UNL     1      22.138  -1.373  54.579  1.00  0.00     0.408 C 
HETATM    9  F1  UNL     1      22.758  -2.131  55.542  1.00  0.00    -0.167 F 
HETATM   10  F2  UNL     1      20.994  -0.812  55.097  1.00  0.00    -0.167 F 
HETATM   11  F3  UNL     1      21.793  -2.193  53.517  1.00  0.00    -0.167 F 
ENDBRANCH   7   8
ENDBRANCH   3   6
ENDBRANCH   1   2
BRANCH   1  12
HETATM   12  C6  UNL     1      27.481   2.107  52.292  1.00  0.00     0.027 C 
HETATM   13  C7  UNL     1      27.717   1.033  53.026  1.00  0.00     0.056 C 
HETATM   14 BR1  UNL     1      29.366   0.479  53.790  1.00  0.00    -0.064 Br
ENDBRANCH   1  12
BRANCH   1  15
HETATM   15  N2  UNL     1      26.248   2.676  50.375  1.00  0.00    -0.349 N 
HETATM   16  H7  UNL     1      26.786   2.010  49.817  1.00  0.00     0.163 HD
BRANCH  15  17
HETATM   17  C8  UNL     1      25.654   3.878  49.903  1.00  0.00     0.139 A 
HETATM   18  N3  UNL     1      24.351   4.139  50.099  1.00  0.00    -0.224 NA
HETATM   19  C9  UNL     1      23.750   5.263  49.670  1.00  0.00     0.235 A 
HETATM   20  N4  UNL     1      24.457   6.215  48.997  1.00  0.00    -0.241 NA
HETATM   21  C10 UNL     1      25.782   6.040  48.752  1.00  0.00     0.072 A 
HETATM   22  C11 UNL     1      26.520   6.985  48.076  1.00  0.00     0.032 A 
HETATM   23  C15 UNL     1      26.329   4.866  49.220  1.00  0.00     0.038 A 
HETATM   24  C12 UNL     1      27.860   6.800  47.832  1.00  0.00     0.002 A 
HETATM   25  C13 UNL     1      28.441   5.630  48.290  1.00  0.00     0.001 A 
HETATM   26  C14 UNL     1      27.672   4.703  48.965  1.00  0.00     0.017 A 
ENDBRANCH  15  17
ENDBRANCH   1  15
TORSDOF 6
ENDMDL
MODEL 7
REMARK VINA RESULT:      -7.3      4.902      6.845
REMARK  6 active torsions:
REMARK  status: ('A' for Active; 'I' for Inactive)
REMARK    1  A    between atoms: C1_2  and  C2_3 
REMARK       I    between atoms: C1_2  and  N1_9 
REMARK    2  A    between atoms: C3_4  and  C4_5 
REMARK    3  A    between atoms: N1_9  and  C5_10 
REMARK    4  A    between atoms: C5_10  and  C6_11 
REMARK    5  A    between atoms: C5_10  and  N2_14 
REMARK    6  A    between atoms: N2_14  and  C8_15 
ROOT
HETATM    1  C5  UNL     1      25.634   2.635  51.844  1.00  0.00     0.210 C 
ENDROOT
BRANCH   1   2
HETATM    2  N1  UNL     1      26.629   3.398  51.098  1.00  0.00    -0.333 N 
HETATM    3  C1  UNL     1      26.286   3.757  49.773  1.00  0.00     0.242 C 
HETATM    4  O1  UNL     1      25.202   3.465  49.213  1.00  0.00    -0.269 OA
HETATM    5  H3  UNL     1      27.541   3.674  51.492  1.00  0.00     0.165 HD
BRANCH   3   6
HETATM    6  C2  UNL     1      27.193   4.518  48.924  1.00  0.00     0.079 C 
HETATM    7  C3  UNL     1      27.003   5.834  48.874  1.00  0.00     0.094 C 
BRANCH   7   8
HETATM    8  C4  UNL     1      27.833   6.777  48.059  1.00  0.00     0.408 C 
HETATM    9  F1  UNL     1      28.387   7.771  48.827  1.00  0.00    -0.167 F 
HETATM   10  F2  UNL     1      28.830   6.013  47.500  1.00  0.00    -0.167 F 
HETATM   11  F3  UNL     1      27.091   7.357  47.043  1.00  0.00    -0.167 F 
ENDBRANCH   7   8
ENDBRANCH   3   6
ENDBRANCH   1   2
BRANCH   1  12
HETATM   12  C6  UNL     1      26.365   1.701  52.778  1.00  0.00     0.027 C 
HETATM   13  C7  UNL     1      27.682   1.783  52.859  1.00  0.00     0.056 C 
HETATM   14 BR1  UNL     1      28.853   0.746  53.937  1.00  0.00    -0.064 Br
ENDBRANCH   1  12
BRANCH   1  15
HETATM   15  N2  UNL     1      24.839   3.486  52.723  1.00  0.00    -0.349 N 
HETATM   16  H7  UNL     1      25.285   3.779  53.595  1.00  0.00     0.163 HD
BRANCH  15  17
HETATM   17  C8  UNL     1      23.529   3.831  52.295  1.00  0.00     0.139 A 
HETATM   18  N3  UNL     1      22.506   2.967  52.402  1.00  0.00    -0.224 NA
HETATM   19  C9  UNL     1      21.252   3.253  52.009  1.00  0.00     0.235 A 
HETATM   20  N4  UNL     1      20.954   4.468  51.469  1.00  0.00    -0.241 NA
HETATM   21  C10 UNL     1      21.924   5.409  51.320  1.00  0.00     0.072 A 
HETATM   22  C11 UNL     1      21.651   6.645  50.779  1.00  0.00     0.032 A 
HETATM   23  C15 UNL     1      23.183   5.046  51.744  1.00  0.00     0.038 A 
HETATM   24  C12 UNL     1      22.637   7.591  50.631  1.00  0.00     0.002 A 
HETATM   25  C13 UNL     1      23.914   7.258  51.048  1.00  0.00     0.001 A 
HETATM   26  C14 UNL     1      24.154   6.009  51.587  1.00  0.00     0.017 A 
ENDBRANCH  15  17
ENDBRANCH   1  15
TORSDOF 6
ENDMDL
MODEL 8
REMARK VINA RESULT:      -7.1      3.710      5.964
REMARK  6 active torsions:
REMARK  status: ('A' for Active; 'I' for Inactive)
REMARK    1  A    between atoms: C1_2  and  C2_3 
REMARK       I    between atoms: C1_2  and  N1_9 
REMARK    2  A    between atoms: C3_4  and  C4_5 
REMARK    3  A    between atoms: N1_9  and  C5_10 
REMARK    4  A    between atoms: C5_10  and  C6_11 
REMARK    5  A    between atoms: C5_10  and  N2_14 
REMARK    6  A    between atoms: N2_14  and  C8_15 
ROOT
HETATM    1  C5  UNL     1      21.895   1.070  52.599  1.00  0.00     0.210 C 
ENDROOT
BRANCH   1   2
HETATM    2  N1  UNL     1      22.228   2.048  51.569  1.00  0.00    -0.333 N 
HETATM    3  C1  UNL     1      23.197   3.021  51.911  1.00  0.00     0.242 C 
HETATM    4  O1  UNL     1      23.774   3.092  53.024  1.00  0.00    -0.269 OA
HETATM    5  H3  UNL     1      21.797   2.052  50.632  1.00  0.00     0.165 HD
BRANCH   3   6
HETATM    6  C2  UNL     1      23.617   4.051  50.972  1.00  0.00     0.079 C 
HETATM    7  C3  UNL     1      24.847   3.945  50.476  1.00  0.00     0.094 C 
BRANCH   7   8
HETATM    8  C4  UNL     1      25.451   4.907  49.500  1.00  0.00     0.408 C 
HETATM    9  F1  UNL     1      25.903   6.049  50.115  1.00  0.00    -0.167 F 
HETATM   10  F2  UNL     1      26.509   4.243  48.924  1.00  0.00    -0.167 F 
HETATM   11  F3  UNL     1      24.550   5.258  48.509  1.00  0.00    -0.167 F 
ENDBRANCH   7   8
ENDBRANCH   3   6
ENDBRANCH   1   2
BRANCH   1  12
HETATM   12  C6  UNL     1      20.472   0.619  52.372  1.00  0.00     0.027 C 
HETATM   13  C7  UNL     1      19.899   0.881  51.209  1.00  0.00     0.056 C 
HETATM   14 BR1  UNL     1      18.138   0.439  50.649  1.00  0.00    -0.064 Br
ENDBRANCH   1  12
BRANCH   1  15
HETATM   15  N2  UNL     1      22.690  -0.146  52.476  1.00  0.00    -0.349 N 
HETATM   16  H7  UNL     1      22.517  -0.719  51.648  1.00  0.00     0.163 HD
BRANCH  15  17
HETATM   17  C8  UNL     1      23.628  -0.424  53.507  1.00  0.00     0.139 A 
HETATM   18  N3  UNL     1      23.245  -0.960  54.677  1.00  0.00    -0.224 NA
HETATM   19  C9  UNL     1      24.099  -1.239  55.678  1.00  0.00     0.235 A 
HETATM   20  N4  UNL     1      25.431  -0.983  55.545  1.00  0.00    -0.241 NA
HETATM   21  C10 UNL     1      25.914  -0.442  54.396  1.00  0.00     0.072 A 
HETATM   22  C11 UNL     1      27.254  -0.174  54.234  1.00  0.00     0.032 A 
HETATM   23  C15 UNL     1      24.982  -0.183  53.416  1.00  0.00     0.038 A 
HETATM   24  C12 UNL     1      27.735   0.374  53.068  1.00  0.00     0.002 A 
HETATM   25  C13 UNL     1      26.824   0.647  52.063  1.00  0.00     0.001 A 
HETATM   26  C14 UNL     1      25.486   0.365  52.258  1.00  0.00     0.017 A 
ENDBRANCH  15  17
ENDBRANCH   1  15
TORSDOF 6
ENDMDL
MODEL 9
REMARK VINA RESULT:      -7.1      4.665      6.229
REMARK  6 active torsions:
REMARK  status: ('A' for Active; 'I' for Inactive)
REMARK    1  A    between atoms: C1_2  and  C2_3 
REMARK       I    between atoms: C1_2  and  N1_9 
REMARK    2  A    between atoms: C3_4  and  C4_5 
REMARK    3  A    between atoms: N1_9  and  C5_10 
REMARK    4  A    between atoms: C5_10  and  C6_11 
REMARK    5  A    between atoms: C5_10  and  N2_14 
REMARK    6  A    between atoms: N2_14  and  C8_15 
ROOT
HETATM    1  C5  UNL     1      25.643   2.593  51.859  1.00  0.00     0.210 C 
ENDROOT
BRANCH   1   2
HETATM    2  N1  UNL     1      26.577   3.455  51.143  1.00  0.00    -0.333 N 
HETATM    3  C1  UNL     1      26.298   3.693  49.777  1.00  0.00     0.242 C 
HETATM    4  O1  UNL     1      25.317   3.217  49.156  1.00  0.00    -0.269 OA
HETATM    5  H3  UNL     1      27.405   3.883  51.586  1.00  0.00     0.165 HD
BRANCH   3   6
HETATM    6  C2  UNL     1      27.154   4.536  48.953  1.00  0.00     0.079 C 
HETATM    7  C3  UNL     1      26.864   5.835  48.922  1.00  0.00     0.094 C 
BRANCH   7   8
HETATM    8  C4  UNL     1      27.629   6.853  48.134  1.00  0.00     0.408 C 
HETATM    9  F1  UNL     1      28.170   7.826  48.937  1.00  0.00    -0.167 F 
HETATM   10  F2  UNL     1      28.637   6.160  47.504  1.00  0.00    -0.167 F 
HETATM   11  F3  UNL     1      26.832   7.454  47.174  1.00  0.00    -0.167 F 
ENDBRANCH   7   8
ENDBRANCH   3   6
ENDBRANCH   1   2
BRANCH   1  12
HETATM   12  C6  UNL     1      26.444   1.661  52.735  1.00  0.00     0.027 C 
HETATM   13  C7  UNL     1      27.751   1.842  52.829  1.00  0.00     0.056 C 
HETATM   14 BR1  UNL     1      28.999   0.833  53.846  1.00  0.00    -0.064 Br
ENDBRANCH   1  12
BRANCH   1  15
HETATM   15  N2  UNL     1      24.807   3.344  52.788  1.00  0.00    -0.349 N 
HETATM   16  H7  UNL     1      25.101   3.340  53.767  1.00  0.00     0.163 HD
BRANCH  15  17
HETATM   17  C8  UNL     1      23.670   4.011  52.257  1.00  0.00     0.139 A 
HETATM   18  N3  UNL     1      23.760   5.248  51.742  1.00  0.00    -0.224 NA
HETATM   19  C9  UNL     1      22.710   5.914  51.229  1.00  0.00     0.235 A 
HETATM   20  N4  UNL     1      21.471   5.347  51.209  1.00  0.00    -0.241 NA
HETATM   21  C10 UNL     1      21.281   4.097  51.708  1.00  0.00     0.072 A 
HETATM   22  C11 UNL     1      20.041   3.499  51.700  1.00  0.00     0.032 A 
HETATM   23  C15 UNL     1      22.400   3.476  52.216  1.00  0.00     0.038 A 
HETATM   24  C12 UNL     1      19.857   2.235  52.206  1.00  0.00     0.002 A 
HETATM   25  C13 UNL     1      20.962   1.583  52.724  1.00  0.00     0.001 A 
HETATM   26  C14 UNL     1      22.193   2.211  52.717  1.00  0.00     0.017 A 
ENDBRANCH  15  17
ENDBRANCH   1  15
TORSDOF 6
ENDMDL
