MODEL 1
REMARK VINA RESULT:      -9.0      0.000      0.000
REMARK  3 active torsions:
REMARK  status: ('A' for Active; 'I' for Inactive)
REMARK    1  A    between atoms: O1_2  and  C2_3 
REMARK    2  A    between atoms: C7_8  and  C8_9 
REMARK    3  A    between atoms: C8_9  and  N1_10 
ROOT
HETATM    1  N1  UNL     1      24.744   2.403  51.599  1.00  0.00    -0.265 N 
HETATM    2  N2  UNL     1      25.407   2.657  52.796  1.00  0.00    -0.170 NA
HETATM    3  C9  UNL     1      26.584   2.168  53.001  1.00  0.00     0.107 C 
HETATM    4  C10 UNL     1      26.901   1.258  52.117  1.00  0.00     0.037 C 
HETATM    5  C11 UNL     1      26.209   0.013  52.295  1.00  0.00     0.019 C 
HETATM    6  C12 UNL     1      25.439  -0.693  53.141  1.00  0.00     0.090 C 
HETATM    7  N3  UNL     1      24.761  -0.721  54.436  1.00  0.00    -0.350 N 
HETATM    8  C13 UNL     1      23.329  -0.903  54.484  1.00  0.00     0.141 A 
HETATM    9  N4  UNL     1      22.381  -1.669  55.011  1.00  0.00    -0.224 NA
HETATM   10  C14 UNL     1      21.069  -1.524  54.616  1.00  0.00     0.236 A 
HETATM   11  N5  UNL     1      20.550  -0.644  53.693  1.00  0.00    -0.241 NA
HETATM   12  C15 UNL     1      21.442   0.197  53.090  1.00  0.00     0.072 A 
HETATM   13  C16 UNL     1      21.203   1.156  52.135  1.00  0.00     0.035 A 
HETATM   14  C17 UNL     1      22.204   1.944  51.593  1.00  0.00     0.033 A 
HETATM   15  C18 UNL     1      23.520   1.828  51.977  1.00  0.00     0.054 A 
HETATM   16  C19 UNL     1      23.372   0.845  52.875  1.00  0.00     0.049 A 
HETATM   17  C20 UNL     1      22.721  -0.070  53.596  1.00  0.00     0.041 A 
HETATM   18  H13 UNL     1      24.946  -0.662  55.414  1.00  0.00     0.166 HD
ENDROOT
BRANCH   1  19
HETATM   19  C8  UNL     1      24.749   2.466  50.158  1.00  0.00     0.193 C 
BRANCH  19  20
HETATM   20  C7  UNL     1      25.430   3.692  49.666  1.00  0.00    -0.005 A 
HETATM   21  C2  UNL     1      24.798   4.937  49.555  1.00  0.00     0.076 A 
HETATM   22  C3  UNL     1      25.484   6.039  49.092  1.00  0.00     0.037 A 
HETATM   23  C4  UNL     1      26.811   5.958  48.721  1.00  0.00     0.003 A 
HETATM   24  C5  UNL     1      27.444   4.725  48.829  1.00  0.00     0.001 A 
HETATM   25  C6  UNL     1      26.763   3.619  49.293  1.00  0.00     0.012 A 
BRANCH  21  26
HETATM   26  O1  UNL     1      23.468   4.900  49.954  1.00  0.00    -0.355 OA
HETATM   27  C1  UNL     1      23.096   5.687  51.061  1.00  0.00     0.210 C 
ENDBRANCH  21  26
ENDBRANCH  19  20
ENDBRANCH   1  19
TORSDOF 3
ENDMDL
MODEL 2
REMARK VINA RESULT:      -8.6      2.652      5.819
REMARK  3 active torsions:
REMARK  status: ('A' for Active; 'I' for Inactive)
REMARK    1  A    between atoms: O1_2  and  C2_3 
REMARK    2  A    between atoms: C7_8  and  C8_9 
REMARK    3  A    between atoms: C8_9  and  N1_10 
ROOT
HETATM    1  N1  UNL     1      23.236   1.302  52.181  1.00  0.00    -0.265 N 
HETATM    2  N2  UNL     1      23.333   2.671  52.418  1.00  0.00    -0.170 NA
HETATM    3  C9  UNL     1      23.548   3.483  51.438  1.00  0.00     0.107 C 
HETATM    4  C10 UNL     1      23.904   2.857  50.347  1.00  0.00     0.037 C 
HETATM    5  C11 UNL     1      25.244   2.344  50.386  1.00  0.00     0.019 C 
HETATM    6  C12 UNL     1      26.404   2.379  51.064  1.00  0.00     0.090 C 
HETATM    7  N3  UNL     1      27.130   2.929  52.209  1.00  0.00    -0.350 N 
HETATM    8  C13 UNL     1      27.671   2.033  53.203  1.00  0.00     0.141 A 
HETATM    9  N4  UNL     1      28.799   1.704  53.823  1.00  0.00    -0.224 NA
HETATM   10  C14 UNL     1      28.844   0.604  54.650  1.00  0.00     0.236 A 
HETATM   11  N5  UNL     1      27.826  -0.272  54.957  1.00  0.00    -0.241 NA
HETATM   12  C15 UNL     1      26.616  -0.024  54.374  1.00  0.00     0.072 A 
HETATM   13  C16 UNL     1      25.446  -0.734  54.494  1.00  0.00     0.035 A 
HETATM   14  C17 UNL     1      24.279  -0.380  53.838  1.00  0.00     0.033 A 
HETATM   15  C18 UNL     1      24.205   0.720  53.014  1.00  0.00     0.054 A 
HETATM   16  C19 UNL     1      25.471   1.139  53.138  1.00  0.00     0.049 A 
HETATM   17  C20 UNL     1      26.733   1.119  53.572  1.00  0.00     0.041 A 
HETATM   18  H13 UNL     1      27.430   3.797  52.597  1.00  0.00     0.166 HD
ENDROOT
BRANCH   1  19
HETATM   19  C8  UNL     1      22.590   0.224  51.473  1.00  0.00     0.193 C 
BRANCH  19  20
HETATM   20  C7  UNL     1      21.136   0.476  51.299  1.00  0.00    -0.005 A 
HETATM   21  C2  UNL     1      20.171   0.126  52.251  1.00  0.00     0.076 A 
HETATM   22  C3  UNL     1      18.835   0.387  52.032  1.00  0.00     0.037 A 
HETATM   23  C4  UNL     1      18.401   0.999  50.874  1.00  0.00     0.003 A 
HETATM   24  C5  UNL     1      19.354   1.350  49.925  1.00  0.00     0.001 A 
HETATM   25  C6  UNL     1      20.693   1.092  50.138  1.00  0.00     0.012 A 
BRANCH  21  26
HETATM   26  O1  UNL     1      20.721  -0.482  53.373  1.00  0.00    -0.355 OA
HETATM   27  C1  UNL     1      20.703   0.240  54.581  1.00  0.00     0.210 C 
ENDBRANCH  21  26
ENDBRANCH  19  20
ENDBRANCH   1  19
TORSDOF 3
ENDMDL
MODEL 3
REMARK VINA RESULT:      -8.4      1.522      3.284
REMARK  3 active torsions:
REMARK  status: ('A' for Active; 'I' for Inactive)
REMARK    1  A    between atoms: O1_2  and  C2_3 
REMARK    2  A    between atoms: C7_8  and  C8_9 
REMARK    3  A    between atoms: C8_9  and  N1_10 
ROOT
HETATM    1  N1  UNL     1      23.450   2.936  50.942  1.00  0.00    -0.265 N 
HETATM    2  N2  UNL     1      22.567   2.623  49.912  1.00  0.00    -0.170 NA
HETATM    3  C9  UNL     1      21.561   3.393  49.665  1.00  0.00     0.107 C 
HETATM    4  C10 UNL     1      21.363   4.267  50.617  1.00  0.00     0.037 C 
HETATM    5  C11 UNL     1      20.805   3.703  51.813  1.00  0.00     0.019 C 
HETATM    6  C12 UNL     1      20.224   2.607  52.332  1.00  0.00     0.090 C 
HETATM    7  N3  UNL     1      19.757   1.243  52.086  1.00  0.00    -0.350 N 
HETATM    8  C13 UNL     1      20.311   0.154  52.854  1.00  0.00     0.141 A 
HETATM    9  N4  UNL     1      19.971  -0.860  53.643  1.00  0.00    -0.224 NA
HETATM   10  C14 UNL     1      20.940  -1.585  54.301  1.00  0.00     0.236 A 
HETATM   11  N5  UNL     1      22.305  -1.410  54.267  1.00  0.00    -0.241 NA
HETATM   12  C15 UNL     1      22.766  -0.392  53.481  1.00  0.00     0.072 A 
HETATM   13  C16 UNL     1      24.064   0.009  53.272  1.00  0.00     0.035 A 
HETATM   14  C17 UNL     1      24.401   1.070  52.451  1.00  0.00     0.033 A 
HETATM   15  C18 UNL     1      23.455   1.805  51.773  1.00  0.00     0.054 A 
HETATM   16  C19 UNL     1      22.364   1.154  52.200  1.00  0.00     0.049 A 
HETATM   17  C20 UNL     1      21.669   0.242  52.882  1.00  0.00     0.041 A 
HETATM   18  H13 UNL     1      19.116   0.729  51.522  1.00  0.00     0.166 HD
ENDROOT
BRANCH   1  19
HETATM   19  C8  UNL     1      24.355   3.892  51.531  1.00  0.00     0.193 C 
BRANCH  19  20
HETATM   20  C7  UNL     1      25.254   4.495  50.512  1.00  0.00    -0.005 A 
HETATM   21  C2  UNL     1      25.119   5.806  50.041  1.00  0.00     0.076 A 
HETATM   22  C3  UNL     1      25.986   6.309  49.094  1.00  0.00     0.037 A 
HETATM   23  C4  UNL     1      27.013   5.545  48.578  1.00  0.00     0.003 A 
HETATM   24  C5  UNL     1      27.152   4.242  49.042  1.00  0.00     0.001 A 
HETATM   25  C6  UNL     1      26.288   3.733  49.991  1.00  0.00     0.012 A 
BRANCH  21  26
HETATM   26  O1  UNL     1      24.055   6.480  50.628  1.00  0.00    -0.355 OA
HETATM   27  C1  UNL     1      24.109   7.887  50.656  1.00  0.00     0.210 C 
ENDBRANCH  21  26
ENDBRANCH  19  20
ENDBRANCH   1  19
TORSDOF 3
ENDMDL
MODEL 4
REMARK VINA RESULT:      -8.3      2.386      5.513
REMARK  3 active torsions:
REMARK  status: ('A' for Active; 'I' for Inactive)
REMARK    1  A    between atoms: O1_2  and  C2_3 
REMARK    2  A    between atoms: C7_8  and  C8_9 
REMARK    3  A    between atoms: C8_9  and  N1_10 
ROOT
HETATM    1  N1  UNL     1      22.979   1.599  51.657  1.00  0.00    -0.265 N 
HETATM    2  N2  UNL     1      23.145   2.948  51.957  1.00  0.00    -0.170 NA
HETATM    3  C9  UNL     1      23.548   3.769  51.046  1.00  0.00     0.107 C 
HETATM    4  C10 UNL     1      23.999   3.149  49.988  1.00  0.00     0.037 C 
HETATM    5  C11 UNL     1      25.281   2.532  50.182  1.00  0.00     0.019 C 
HETATM    6  C12 UNL     1      26.339   2.456  51.007  1.00  0.00     0.090 C 
HETATM    7  N3  UNL     1      26.944   2.914  52.258  1.00  0.00    -0.350 N 
HETATM    8  C13 UNL     1      27.280   1.950  53.278  1.00  0.00     0.141 A 
HETATM    9  N4  UNL     1      28.288   1.516  54.027  1.00  0.00    -0.224 NA
HETATM   10  C14 UNL     1      28.140   0.392  54.810  1.00  0.00     0.236 A 
HETATM   11  N5  UNL     1      27.029  -0.410  54.946  1.00  0.00    -0.241 NA
HETATM   12  C15 UNL     1      25.929  -0.051  54.220  1.00  0.00     0.072 A 
HETATM   13  C16 UNL     1      24.704  -0.670  54.158  1.00  0.00     0.035 A 
HETATM   14  C17 UNL     1      23.665  -0.207  53.369  1.00  0.00     0.033 A 
HETATM   15  C18 UNL     1      23.782   0.919  52.586  1.00  0.00     0.054 A 
HETATM   16  C19 UNL     1      25.048   1.234  52.891  1.00  0.00     0.049 A 
HETATM   17  C20 UNL     1      26.236   1.102  53.485  1.00  0.00     0.041 A 
HETATM   18  H13 UNL     1      27.253   3.744  52.716  1.00  0.00     0.166 HD
ENDROOT
BRANCH   1  19
HETATM   19  C8  UNL     1      22.356   0.595  50.829  1.00  0.00     0.193 C 
BRANCH  19  20
HETATM   20  C7  UNL     1      20.874   0.689  50.877  1.00  0.00    -0.005 A 
HETATM   21  C2  UNL     1      20.099   1.234  49.846  1.00  0.00     0.076 A 
HETATM   22  C3  UNL     1      18.726   1.292  49.949  1.00  0.00     0.037 A 
HETATM   23  C4  UNL     1      18.066   0.820  51.066  1.00  0.00     0.003 A 
HETATM   24  C5  UNL     1      18.830   0.278  52.093  1.00  0.00     0.001 A 
HETATM   25  C6  UNL     1      20.205   0.215  51.995  1.00  0.00     0.012 A 
BRANCH  21  26
HETATM   26  O1  UNL     1      20.866   1.676  48.776  1.00  0.00    -0.355 OA
HETATM   27  C1  UNL     1      20.570   2.944  48.240  1.00  0.00     0.210 C 
ENDBRANCH  21  26
ENDBRANCH  19  20
ENDBRANCH   1  19
TORSDOF 3
ENDMDL
MODEL 5
REMARK VINA RESULT:      -8.3      2.368      7.276
REMARK  3 active torsions:
REMARK  status: ('A' for Active; 'I' for Inactive)
REMARK    1  A    between atoms: O1_2  and  C2_3 
REMARK    2  A    between atoms: C7_8  and  C8_9 
REMARK    3  A    between atoms: C8_9  and  N1_10 
ROOT
HETATM    1  N1  UNL     1      23.386   2.804  51.804  1.00  0.00    -0.265 N 
HETATM    2  N2  UNL     1      23.117   3.983  52.493  1.00  0.00    -0.170 NA
HETATM    3  C9  UNL     1      22.010   4.615  52.288  1.00  0.00     0.107 C 
HETATM    4  C10 UNL     1      21.377   4.171  51.234  1.00  0.00     0.037 C 
HETATM    5  C11 UNL     1      21.981   4.558  49.991  1.00  0.00     0.019 C 
HETATM    6  C12 UNL     1      22.897   5.367  49.431  1.00  0.00     0.090 C 
HETATM    7  N3  UNL     1      23.912   6.396  49.653  1.00  0.00    -0.350 N 
HETATM    8  C13 UNL     1      25.276   6.145  49.252  1.00  0.00     0.141 A 
HETATM    9  N4  UNL     1      26.266   6.637  48.516  1.00  0.00    -0.224 NA
HETATM   10  C14 UNL     1      27.418   5.907  48.319  1.00  0.00     0.236 A 
HETATM   11  N5  UNL     1      27.725   4.655  48.804  1.00  0.00    -0.241 NA
HETATM   12  C15 UNL     1      26.774   4.056  49.580  1.00  0.00     0.072 A 
HETATM   13  C16 UNL     1      26.811   2.819  50.178  1.00  0.00     0.035 A 
HETATM   14  C17 UNL     1      25.769   2.319  50.940  1.00  0.00     0.033 A 
HETATM   15  C18 UNL     1      24.613   3.031  51.160  1.00  0.00     0.054 A 
HETATM   16  C19 UNL     1      24.926   4.129  50.459  1.00  0.00     0.049 A 
HETATM   17  C20 UNL     1      25.674   4.918  49.686  1.00  0.00     0.041 A 
HETATM   18  H13 UNL     1      24.020   7.318  50.015  1.00  0.00     0.166 HD
ENDROOT
BRANCH   1  19
HETATM   19  C8  UNL     1      22.975   1.464  51.460  1.00  0.00     0.193 C 
BRANCH  19  20
HETATM   20  C7  UNL     1      22.489   0.718  52.650  1.00  0.00    -0.005 A 
HETATM   21  C2  UNL     1      23.280  -0.183  53.374  1.00  0.00     0.076 A 
HETATM   22  C3  UNL     1      22.772  -0.845  54.471  1.00  0.00     0.037 A 
HETATM   23  C4  UNL     1      21.473  -0.648  54.895  1.00  0.00     0.003 A 
HETATM   24  C5  UNL     1      20.683   0.246  54.181  1.00  0.00     0.001 A 
HETATM   25  C6  UNL     1      21.186   0.913  53.082  1.00  0.00     0.012 A 
BRANCH  21  26
HETATM   26  O1  UNL     1      24.564  -0.302  52.859  1.00  0.00    -0.355 OA
HETATM   27  C1  UNL     1      25.642  -0.167  53.754  1.00  0.00     0.210 C 
ENDBRANCH  21  26
ENDBRANCH  19  20
ENDBRANCH   1  19
TORSDOF 3
ENDMDL
MODEL 6
REMARK VINA RESULT:      -8.0      2.669      5.776
REMARK  3 active torsions:
REMARK  status: ('A' for Active; 'I' for Inactive)
REMARK    1  A    between atoms: O1_2  and  C2_3 
REMARK    2  A    between atoms: C7_8  and  C8_9 
REMARK    3  A    between atoms: C8_9  and  N1_10 
ROOT
HETATM    1  N1  UNL     1      21.984   0.150  53.051  1.00  0.00    -0.265 N 
HETATM    2  N2  UNL     1      22.336  -1.152  52.708  1.00  0.00    -0.170 NA
HETATM    3  C9  UNL     1      22.143  -2.116  53.544  1.00  0.00     0.107 C 
HETATM    4  C10 UNL     1      21.858  -1.680  54.743  1.00  0.00     0.037 C 
HETATM    5  C11 UNL     1      22.985  -1.127  55.440  1.00  0.00     0.019 C 
HETATM    6  C12 UNL     1      24.324  -1.007  55.423  1.00  0.00     0.090 C 
HETATM    7  N3  UNL     1      25.567  -1.326  54.722  1.00  0.00    -0.350 N 
HETATM    8  C13 UNL     1      26.415  -0.254  54.257  1.00  0.00     0.141 A 
HETATM    9  N4  UNL     1      27.656   0.213  54.325  1.00  0.00    -0.224 NA
HETATM   10  C14 UNL     1      27.969   1.441  53.786  1.00  0.00     0.236 A 
HETATM   11  N5  UNL     1      27.133   2.326  53.142  1.00  0.00    -0.241 NA
HETATM   12  C15 UNL     1      25.829   1.942  53.013  1.00  0.00     0.072 A 
HETATM   13  C16 UNL     1      24.789   2.626  52.430  1.00  0.00     0.035 A 
HETATM   14  C17 UNL     1      23.499   2.127  52.371  1.00  0.00     0.033 A 
HETATM   15  C18 UNL     1      23.161   0.899  52.892  1.00  0.00     0.054 A 
HETATM   16  C19 UNL     1      24.370   0.547  53.351  1.00  0.00     0.049 A 
HETATM   17  C20 UNL     1      25.673   0.681  53.603  1.00  0.00     0.041 A 
HETATM   18  H13 UNL     1      26.112  -2.103  54.417  1.00  0.00     0.166 HD
ENDROOT
BRANCH   1  19
HETATM   19  C8  UNL     1      20.961   1.068  53.489  1.00  0.00     0.193 C 
BRANCH  19  20
HETATM   20  C7  UNL     1      19.834   1.134  52.523  1.00  0.00    -0.005 A 
HETATM   21  C2  UNL     1      19.356   2.329  51.971  1.00  0.00     0.076 A 
HETATM   22  C3  UNL     1      18.306   2.324  51.078  1.00  0.00     0.037 A 
HETATM   23  C4  UNL     1      17.689   1.150  50.697  1.00  0.00     0.003 A 
HETATM   24  C5  UNL     1      18.158  -0.040  51.241  1.00  0.00     0.001 A 
HETATM   25  C6  UNL     1      19.209  -0.042  52.135  1.00  0.00     0.012 A 
BRANCH  21  26
HETATM   26  O1  UNL     1      20.050   3.443  52.425  1.00  0.00    -0.355 OA
HETATM   27  C1  UNL     1      20.617   4.297  51.459  1.00  0.00     0.210 C 
ENDBRANCH  21  26
ENDBRANCH  19  20
ENDBRANCH   1  19
TORSDOF 3
ENDMDL
MODEL 7
REMARK VINA RESULT:      -8.0      7.063      9.880
REMARK  3 active torsions:
REMARK  status: ('A' for Active; 'I' for Inactive)
REMARK    1  A    between atoms: O1_2  and  C2_3 
REMARK    2  A    between atoms: C7_8  and  C8_9 
REMARK    3  A    between atoms: C8_9  and  N1_10 
ROOT
HETATM    1  N1  UNL     1      30.891   6.500  47.890  1.00  0.00    -0.265 N 
HETATM    2  N2  UNL     1      30.967   7.500  46.924  1.00  0.00    -0.170 NA
HETATM    3  C9  UNL     1      31.664   8.563  47.147  1.00  0.00     0.107 C 
HETATM    4  C10 UNL     1      32.017   8.668  48.402  1.00  0.00     0.037 C 
HETATM    5  C11 UNL     1      30.940   9.033  49.277  1.00  0.00     0.019 C 
HETATM    6  C12 UNL     1      29.676   9.489  49.316  1.00  0.00     0.090 C 
HETATM    7  N3  UNL     1      28.513   9.925  48.543  1.00  0.00    -0.350 N 
HETATM    8  C13 UNL     1      27.259   9.224  48.691  1.00  0.00     0.141 A 
HETATM    9  N4  UNL     1      25.976   9.408  48.981  1.00  0.00    -0.224 NA
HETATM   10  C14 UNL     1      25.138   8.329  49.149  1.00  0.00     0.236 A 
HETATM   11  N5  UNL     1      25.445   6.989  49.056  1.00  0.00    -0.241 NA
HETATM   12  C15 UNL     1      26.743   6.685  48.756  1.00  0.00     0.072 A 
HETATM   13  C16 UNL     1      27.321   5.447  48.614  1.00  0.00     0.035 A 
HETATM   14  C17 UNL     1      28.661   5.271  48.315  1.00  0.00     0.033 A 
HETATM   15  C18 UNL     1      29.519   6.332  48.132  1.00  0.00     0.054 A 
HETATM   16  C19 UNL     1      28.642   7.325  48.338  1.00  0.00     0.049 A 
HETATM   17  C20 UNL     1      27.461   7.880  48.615  1.00  0.00     0.041 A 
HETATM   18  H13 UNL     1      28.232  10.613  47.879  1.00  0.00     0.166 HD
ENDROOT
BRANCH   1  19
HETATM   19  C8  UNL     1      31.583   5.566  48.744  1.00  0.00     0.193 C 
BRANCH  19  20
HETATM   20  C7  UNL     1      32.546   4.733  47.977  1.00  0.00    -0.005 A 
HETATM   21  C2  UNL     1      33.936   4.875  48.068  1.00  0.00     0.076 A 
HETATM   22  C3  UNL     1      34.778   4.071  47.331  1.00  0.00     0.037 A 
HETATM   23  C4  UNL     1      34.287   3.101  46.480  1.00  0.00     0.003 A 
HETATM   24  C5  UNL     1      32.908   2.955  46.385  1.00  0.00     0.001 A 
HETATM   25  C6  UNL     1      32.060   3.756  47.121  1.00  0.00     0.012 A 
BRANCH  21  26
HETATM   26  O1  UNL     1      34.315   5.878  48.952  1.00  0.00    -0.355 OA
HETATM   27  C1  UNL     1      35.373   6.723  48.565  1.00  0.00     0.210 C 
ENDBRANCH  21  26
ENDBRANCH  19  20
ENDBRANCH   1  19
TORSDOF 3
ENDMDL
MODEL 8
REMARK VINA RESULT:      -7.9      2.995      5.127
REMARK  3 active torsions:
REMARK  status: ('A' for Active; 'I' for Inactive)
REMARK    1  A    between atoms: O1_2  and  C2_3 
REMARK    2  A    between atoms: C7_8  and  C8_9 
REMARK    3  A    between atoms: C8_9  and  N1_10 
ROOT
HETATM    1  N1  UNL     1      21.768   1.310  50.780  1.00  0.00    -0.265 N 
HETATM    2  N2  UNL     1      21.598   0.688  49.547  1.00  0.00    -0.170 NA
HETATM    3  C9  UNL     1      21.238   1.379  48.517  1.00  0.00     0.107 C 
HETATM    4  C10 UNL     1      20.827   2.575  48.845  1.00  0.00     0.037 C 
HETATM    5  C11 UNL     1      19.535   2.592  49.471  1.00  0.00     0.019 C 
HETATM    6  C12 UNL     1      18.443   1.853  49.733  1.00  0.00     0.090 C 
HETATM    7  N3  UNL     1      17.789   0.551  49.593  1.00  0.00    -0.350 N 
HETATM    8  C13 UNL     1      17.406  -0.181  50.776  1.00  0.00     0.141 A 
HETATM    9  N4  UNL     1      16.366  -0.758  51.368  1.00  0.00    -0.224 NA
HETATM   10  C14 UNL     1      16.474  -1.240  52.654  1.00  0.00     0.236 A 
HETATM   11  N5  UNL     1      17.574  -1.213  53.482  1.00  0.00    -0.241 NA
HETATM   12  C15 UNL     1      18.704  -0.642  52.971  1.00  0.00     0.072 A 
HETATM   13  C16 UNL     1      19.928  -0.475  53.574  1.00  0.00     0.035 A 
HETATM   14  C17 UNL     1      21.001   0.133  52.946  1.00  0.00     0.033 A 
HETATM   15  C18 UNL     1      20.923   0.613  51.658  1.00  0.00     0.054 A 
HETATM   16  C19 UNL     1      19.647   0.287  51.409  1.00  0.00     0.049 A 
HETATM   17  C20 UNL     1      18.436  -0.209  51.666  1.00  0.00     0.041 A 
HETATM   18  H13 UNL     1      17.467  -0.088  48.899  1.00  0.00     0.166 HD
ENDROOT
BRANCH   1  19
HETATM   19  C8  UNL     1      22.418   2.339  51.555  1.00  0.00     0.193 C 
BRANCH  19  20
HETATM   20  C7  UNL     1      23.854   2.471  51.193  1.00  0.00    -0.005 A 
HETATM   21  C2  UNL     1      24.894   1.896  51.934  1.00  0.00     0.076 A 
HETATM   22  C3  UNL     1      26.207   2.054  51.547  1.00  0.00     0.037 A 
HETATM   23  C4  UNL     1      26.545   2.780  50.422  1.00  0.00     0.003 A 
HETATM   24  C5  UNL     1      25.517   3.354  49.683  1.00  0.00     0.001 A 
HETATM   25  C6  UNL     1      24.200   3.198  50.065  1.00  0.00     0.012 A 
BRANCH  21  26
HETATM   26  O1  UNL     1      24.438   1.191  53.040  1.00  0.00    -0.355 OA
HETATM   27  C1  UNL     1      24.816  -0.160  53.154  1.00  0.00     0.210 C 
ENDBRANCH  21  26
ENDBRANCH  19  20
ENDBRANCH   1  19
TORSDOF 3
ENDMDL
MODEL 9
REMARK VINA RESULT:      -7.9      2.525      7.288
REMARK  3 active torsions:
REMARK  status: ('A' for Active; 'I' for Inactive)
REMARK    1  A    between atoms: O1_2  and  C2_3 
REMARK    2  A    between atoms: C7_8  and  C8_9 
REMARK    3  A    between atoms: C8_9  and  N1_10 
ROOT
HETATM    1  N1  UNL     1      23.852   3.258  51.461  1.00  0.00    -0.265 N 
HETATM    2  N2  UNL     1      23.675   4.251  52.421  1.00  0.00    -0.170 NA
HETATM    3  C9  UNL     1      22.530   4.834  52.546  1.00  0.00     0.107 C 
HETATM    4  C10 UNL     1      21.730   4.571  51.546  1.00  0.00     0.037 C 
HETATM    5  C11 UNL     1      22.086   5.243  50.329  1.00  0.00     0.019 C 
HETATM    6  C12 UNL     1      22.859   6.210  49.805  1.00  0.00     0.090 C 
HETATM    7  N3  UNL     1      23.865   7.241  50.064  1.00  0.00    -0.350 N 
HETATM    8  C13 UNL     1      25.140   7.171  49.393  1.00  0.00     0.141 A 
HETATM    9  N4  UNL     1      25.964   7.870  48.619  1.00  0.00    -0.224 NA
HETATM   10  C14 UNL     1      27.083   7.277  48.078  1.00  0.00     0.236 A 
HETATM   11  N5  UNL     1      27.513   5.976  48.226  1.00  0.00    -0.241 NA
HETATM   12  C15 UNL     1      26.738   5.167  49.008  1.00  0.00     0.072 A 
HETATM   13  C16 UNL     1      26.923   3.840  49.314  1.00  0.00     0.035 A 
HETATM   14  C17 UNL     1      26.053   3.125  50.119  1.00  0.00     0.033 A 
HETATM   15  C18 UNL     1      24.933   3.696  50.680  1.00  0.00     0.054 A 
HETATM   16  C19 UNL     1      25.079   4.932  50.185  1.00  0.00     0.049 A 
HETATM   17  C20 UNL     1      25.650   5.912  49.482  1.00  0.00     0.041 A 
HETATM   18  H13 UNL     1      24.007   8.075  50.590  1.00  0.00     0.166 HD
ENDROOT
BRANCH   1  19
HETATM   19  C8  UNL     1      23.428   1.992  50.916  1.00  0.00     0.193 C 
BRANCH  19  20
HETATM   20  C7  UNL     1      23.145   1.002  51.988  1.00  0.00    -0.005 A 
HETATM   21  C2  UNL     1      21.868   0.491  52.252  1.00  0.00     0.076 A 
HETATM   22  C3  UNL     1      21.669  -0.426  53.261  1.00  0.00     0.037 A 
HETATM   23  C4  UNL     1      22.714  -0.875  54.044  1.00  0.00     0.003 A 
HETATM   24  C5  UNL     1      23.984  -0.372  53.787  1.00  0.00     0.001 A 
HETATM   25  C6  UNL     1      24.190   0.546  52.778  1.00  0.00     0.012 A 
BRANCH  21  26
HETATM   26  O1  UNL     1      20.898   1.011  51.405  1.00  0.00    -0.355 OA
HETATM   27  C1  UNL     1      19.691   1.449  51.985  1.00  0.00     0.210 C 
ENDBRANCH  21  26
ENDBRANCH  19  20
ENDBRANCH   1  19
TORSDOF 3
ENDMDL
