MODEL 1
REMARK VINA RESULT:      -7.2      0.000      0.000
REMARK  5 active torsions:
REMARK  status: ('A' for Active; 'I' for Inactive)
REMARK    1  A    between atoms: O1_2  and  C2_3 
REMARK    2  A    between atoms: C7_10  and  N3_11 
REMARK    3  A    between atoms: N3_11  and  N4_12 
REMARK    4  A    between atoms: N3_11  and  C8_13 
REMARK    5  A    between atoms: C14_20  and  O2_21 
ROOT
HETATM    1  C2  UNL     1      24.520   0.431  53.481  1.00  0.00     0.081 A 
HETATM    2  C3  UNL     1      24.593   1.667  53.018  1.00  0.00     0.052 A 
HETATM    3  C4  UNL     1      23.394   2.126  52.332  1.00  0.00     0.042 A 
HETATM    4  C5  UNL     1      22.557   1.033  52.417  1.00  0.00     0.085 A 
HETATM    5  N1  UNL     1      21.325   1.128  51.863  1.00  0.00    -0.242 NA
HETATM    6  C6  UNL     1      20.929   2.264  51.245  1.00  0.00     0.235 A 
HETATM    7  N2  UNL     1      21.793   3.281  51.201  1.00  0.00    -0.222 NA
HETATM    8  C7  UNL     1      23.027   3.296  51.712  1.00  0.00     0.158 A 
HETATM    9  C14 UNL     1      23.177  -0.097  53.128  1.00  0.00     0.230 A 
ENDROOT
BRANCH   8  10
HETATM   10  N3  UNL     1      23.937   4.359  51.663  1.00  0.00    -0.262 N 
BRANCH  10  11
HETATM   11  N4  UNL     1      23.903   5.354  52.645  1.00  0.00    -0.241 NA
HETATM   12  H6  UNL     1      24.654   5.121  53.333  1.00  0.00     0.143 HD
HETATM   13  H7  UNL     1      24.101   6.263  52.179  1.00  0.00     0.143 HD
ENDBRANCH  10  11
BRANCH  10  14
HETATM   14  C8  UNL     1      24.946   4.585  50.694  1.00  0.00     0.054 A 
HETATM   15  C9  UNL     1      25.852   3.644  50.280  1.00  0.00     0.031 A 
HETATM   16  C10 UNL     1      26.837   3.837  49.354  1.00  0.00     0.004 A 
HETATM   17  C11 UNL     1      26.967   5.071  48.755  1.00  0.00     0.019 A 
HETATM   18  C12 UNL     1      26.101   6.051  49.118  1.00  0.00     0.013 A 
HETATM   19 BR1  UNL     1      26.235   7.779  48.324  1.00  0.00    -0.051 Br
HETATM   20  C13 UNL     1      25.139   5.790  50.051  1.00  0.00     0.050 A 
ENDBRANCH  10  14
ENDBRANCH   8  10
BRANCH   1  21
HETATM   21  O1  UNL     1      25.421  -0.362  54.176  1.00  0.00    -0.357 OA
HETATM   22  C1  UNL     1      26.434   0.183  55.012  1.00  0.00     0.209 C 
ENDBRANCH   1  21
BRANCH   9  23
HETATM   23  O2  UNL     1      22.550  -0.409  54.320  1.00  0.00    -0.378 OA
HETATM   24  C15 UNL     1      21.758  -1.545  54.250  1.00  0.00     0.203 C 
ENDBRANCH   9  23
TORSDOF 5
ENDMDL
MODEL 2
REMARK VINA RESULT:      -7.2      4.008      5.503
REMARK  5 active torsions:
REMARK  status: ('A' for Active; 'I' for Inactive)
REMARK    1  A    between atoms: O1_2  and  C2_3 
REMARK    2  A    between atoms: C7_10  and  N3_11 
REMARK    3  A    between atoms: N3_11  and  N4_12 
REMARK    4  A    between atoms: N3_11  and  C8_13 
REMARK    5  A    between atoms: C14_20  and  O2_21 
ROOT
HETATM    1  C2  UNL     1      22.684   2.138  52.393  1.00  0.00     0.081 A 
HETATM    2  C3  UNL     1      23.441   1.344  53.130  1.00  0.00     0.052 A 
HETATM    3  C4  UNL     1      22.742   0.200  53.698  1.00  0.00     0.042 A 
HETATM    4  C5  UNL     1      21.455   0.368  53.231  1.00  0.00     0.085 A 
HETATM    5  N1  UNL     1      20.525  -0.550  53.584  1.00  0.00    -0.242 NA
HETATM    6  C6  UNL     1      20.849  -1.600  54.371  1.00  0.00     0.235 A 
HETATM    7  N2  UNL     1      22.116  -1.697  54.786  1.00  0.00    -0.222 NA
HETATM    8  C7  UNL     1      23.110  -0.852  54.500  1.00  0.00     0.158 A 
HETATM    9  C14 UNL     1      21.312   1.569  52.393  1.00  0.00     0.230 A 
ENDROOT
BRANCH   8  10
HETATM   10  N3  UNL     1      24.437  -0.948  54.937  1.00  0.00    -0.262 N 
BRANCH  10  11
HETATM   11  N4  UNL     1      24.714  -1.327  56.254  1.00  0.00    -0.241 NA
HETATM   12  H6  UNL     1      25.083  -2.303  56.214  1.00  0.00     0.143 HD
HETATM   13  H7  UNL     1      25.437  -0.676  56.624  1.00  0.00     0.143 HD
ENDBRANCH  10  11
BRANCH  10  14
HETATM   14  C8  UNL     1      25.611  -0.693  54.185  1.00  0.00     0.054 A 
HETATM   15  C9  UNL     1      25.898  -1.263  52.973  1.00  0.00     0.031 A 
HETATM   16  C10 UNL     1      27.024  -1.039  52.233  1.00  0.00     0.004 A 
HETATM   17  C11 UNL     1      27.982  -0.170  52.707  1.00  0.00     0.019 A 
HETATM   18  C12 UNL     1      27.761   0.432  53.903  1.00  0.00     0.013 A 
HETATM   19 BR1  UNL     1      29.053   1.644  54.610  1.00  0.00    -0.051 Br
HETATM   20  C13 UNL     1      26.613   0.163  54.593  1.00  0.00     0.050 A 
ENDBRANCH  10  14
ENDBRANCH   8  10
BRANCH   1  21
HETATM   21  O1  UNL     1      22.956   3.304  51.692  1.00  0.00    -0.357 OA
HETATM   22  C1  UNL     1      23.079   4.569  52.330  1.00  0.00     0.209 C 
ENDBRANCH   1  21
BRANCH   9  23
HETATM   23  O2  UNL     1      21.002   1.287  51.075  1.00  0.00    -0.378 OA
HETATM   24  C15 UNL     1      19.710   1.646  50.720  1.00  0.00     0.203 C 
ENDBRANCH   9  23
TORSDOF 5
ENDMDL
MODEL 3
REMARK VINA RESULT:      -7.0      3.501      4.721
REMARK  5 active torsions:
REMARK  status: ('A' for Active; 'I' for Inactive)
REMARK    1  A    between atoms: O1_2  and  C2_3 
REMARK    2  A    between atoms: C7_10  and  N3_11 
REMARK    3  A    between atoms: N3_11  and  N4_12 
REMARK    4  A    between atoms: N3_11  and  C8_13 
REMARK    5  A    between atoms: C14_20  and  O2_21 
ROOT
HETATM    1  C2  UNL     1      21.304   0.168  52.576  1.00  0.00     0.081 A 
HETATM    2  C3  UNL     1      22.447   0.780  52.832  1.00  0.00     0.052 A 
HETATM    3  C4  UNL     1      22.980   1.551  51.718  1.00  0.00     0.042 A 
HETATM    4  C5  UNL     1      22.037   1.353  50.732  1.00  0.00     0.085 A 
HETATM    5  N1  UNL     1      22.234   1.951  49.533  1.00  0.00    -0.242 NA
HETATM    6  C6  UNL     1      23.324   2.719  49.311  1.00  0.00     0.235 A 
HETATM    7  N2  UNL     1      24.195   2.865  50.314  1.00  0.00    -0.222 NA
HETATM    8  C7  UNL     1      24.100   2.324  51.531  1.00  0.00     0.158 A 
HETATM    9  C14 UNL     1      20.931   0.489  51.174  1.00  0.00     0.230 A 
ENDROOT
BRANCH   8  10
HETATM   10  N3  UNL     1      25.014   2.471  52.582  1.00  0.00    -0.262 N 
BRANCH  10  11
HETATM   11  N4  UNL     1      24.812   3.460  53.550  1.00  0.00    -0.241 NA
HETATM   12  H6  UNL     1      24.120   3.076  54.231  1.00  0.00     0.143 HD
HETATM   13  H7  UNL     1      25.726   3.636  54.015  1.00  0.00     0.143 HD
ENDBRANCH  10  11
BRANCH  10  14
HETATM   14  C8  UNL     1      26.190   1.715  52.813  1.00  0.00     0.054 A 
HETATM   15  C9  UNL     1      27.387   2.242  53.220  1.00  0.00     0.031 A 
HETATM   16  C10 UNL     1      28.535   1.538  53.443  1.00  0.00     0.004 A 
HETATM   17  C11 UNL     1      28.537   0.173  53.254  1.00  0.00     0.019 A 
HETATM   18  C12 UNL     1      27.383  -0.416  52.850  1.00  0.00     0.013 A 
HETATM   19 BR1  UNL     1      27.326  -2.302  52.572  1.00  0.00    -0.051 Br
HETATM   20  C13 UNL     1      26.270   0.347  52.646  1.00  0.00     0.050 A 
ENDBRANCH  10  14
ENDBRANCH   8  10
BRANCH   1  21
HETATM   21  O1  UNL     1      20.485  -0.646  53.346  1.00  0.00    -0.357 OA
HETATM   22  C1  UNL     1      20.997  -1.521  54.344  1.00  0.00     0.209 C 
ENDBRANCH   1  21
BRANCH   9  23
HETATM   23  O2  UNL     1      19.712   1.139  51.229  1.00  0.00    -0.378 OA
HETATM   24  C15 UNL     1      18.924   0.935  50.106  1.00  0.00     0.203 C 
ENDBRANCH   9  23
TORSDOF 5
ENDMDL
MODEL 4
REMARK VINA RESULT:      -6.8      6.168      9.351
REMARK  5 active torsions:
REMARK  status: ('A' for Active; 'I' for Inactive)
REMARK    1  A    between atoms: O1_2  and  C2_3 
REMARK    2  A    between atoms: C7_10  and  N3_11 
REMARK    3  A    between atoms: N3_11  and  N4_12 
REMARK    4  A    between atoms: N3_11  and  C8_13 
REMARK    5  A    between atoms: C14_20  and  O2_21 
ROOT
HETATM    1  C2  UNL     1      32.061   4.946  48.081  1.00  0.00     0.081 A 
HETATM    2  C3  UNL     1      30.830   5.404  47.935  1.00  0.00     0.052 A 
HETATM    3  C4  UNL     1      30.634   6.767  48.408  1.00  0.00     0.042 A 
HETATM    4  C5  UNL     1      31.887   7.112  48.869  1.00  0.00     0.085 A 
HETATM    5  N1  UNL     1      32.056   8.352  49.388  1.00  0.00    -0.242 NA
HETATM    6  C6  UNL     1      31.024   9.224  49.452  1.00  0.00     0.235 A 
HETATM    7  N2  UNL     1      29.839   8.818  48.987  1.00  0.00    -0.222 NA
HETATM    8  C7  UNL     1      29.562   7.624  48.457  1.00  0.00     0.158 A 
HETATM    9  C14 UNL     1      32.866   6.026  48.707  1.00  0.00     0.230 A 
ENDROOT
BRANCH   8  10
HETATM   10  N3  UNL     1      28.320   7.195  47.973  1.00  0.00    -0.262 N 
BRANCH  10  11
HETATM   11  N4  UNL     1      27.893   7.584  46.699  1.00  0.00    -0.241 NA
HETATM   12  H6  UNL     1      27.005   8.119  46.832  1.00  0.00     0.143 HD
HETATM   13  H7  UNL     1      28.632   8.193  46.292  1.00  0.00     0.143 HD
ENDBRANCH  10  11
BRANCH  10  14
HETATM   14  C8  UNL     1      27.373   6.376  48.639  1.00  0.00     0.054 A 
HETATM   15  C9  UNL     1      27.417   5.008  48.674  1.00  0.00     0.031 A 
HETATM   16  C10 UNL     1      26.515   4.196  49.301  1.00  0.00     0.004 A 
HETATM   17  C11 UNL     1      25.452   4.761  49.971  1.00  0.00     0.019 A 
HETATM   18  C12 UNL     1      25.347   6.113  49.977  1.00  0.00     0.013 A 
HETATM   19 BR1  UNL     1      23.895   6.950  50.888  1.00  0.00    -0.051 Br
HETATM   20  C13 UNL     1      26.284   6.866  49.330  1.00  0.00     0.050 A 
ENDBRANCH  10  14
ENDBRANCH   8  10
BRANCH   1  21
HETATM   21  O1  UNL     1      32.650   3.730  47.767  1.00  0.00    -0.357 OA
HETATM   22  C1  UNL     1      32.593   3.167  46.462  1.00  0.00     0.209 C 
ENDBRANCH   1  21
BRANCH   9  23
HETATM   23  O2  UNL     1      33.882   6.327  47.818  1.00  0.00    -0.378 OA
HETATM   24  C15 UNL     1      35.099   6.580  48.432  1.00  0.00     0.203 C 
ENDBRANCH   9  23
TORSDOF 5
ENDMDL
MODEL 5
REMARK VINA RESULT:      -6.7      3.809      6.198
REMARK  5 active torsions:
REMARK  status: ('A' for Active; 'I' for Inactive)
REMARK    1  A    between atoms: O1_2  and  C2_3 
REMARK    2  A    between atoms: C7_10  and  N3_11 
REMARK    3  A    between atoms: N3_11  and  N4_12 
REMARK    4  A    between atoms: N3_11  and  C8_13 
REMARK    5  A    between atoms: C14_20  and  O2_21 
ROOT
HETATM    1  C2  UNL     1      25.785   0.216  53.117  1.00  0.00     0.081 A 
HETATM    2  C3  UNL     1      24.592   0.226  52.549  1.00  0.00     0.052 A 
HETATM    3  C4  UNL     1      23.952   1.533  52.514  1.00  0.00     0.042 A 
HETATM    4  C5  UNL     1      24.883   2.344  53.129  1.00  0.00     0.085 A 
HETATM    5  N1  UNL     1      24.592   3.660  53.262  1.00  0.00    -0.242 NA
HETATM    6  C6  UNL     1      23.423   4.162  52.805  1.00  0.00     0.235 A 
HETATM    7  N2  UNL     1      22.569   3.316  52.222  1.00  0.00    -0.222 NA
HETATM    8  C7  UNL     1      22.753   2.006  52.038  1.00  0.00     0.158 A 
HETATM    9  C14 UNL     1      26.083   1.605  53.550  1.00  0.00     0.230 A 
ENDROOT
BRANCH   8  10
HETATM   10  N3  UNL     1      21.859   1.116  51.431  1.00  0.00    -0.262 N 
BRANCH  10  11
HETATM   11  N4  UNL     1      21.929   0.883  50.054  1.00  0.00    -0.241 NA
HETATM   12  H6  UNL     1      22.930   0.677  49.836  1.00  0.00     0.143 HD
HETATM   13  H7  UNL     1      21.330   0.060  49.842  1.00  0.00     0.143 HD
ENDBRANCH  10  11
BRANCH  10  14
HETATM   14  C8  UNL     1      20.823   0.376  52.056  1.00  0.00     0.054 A 
HETATM   15  C9  UNL     1      20.978  -0.370  53.194  1.00  0.00     0.031 A 
HETATM   16  C10 UNL     1      19.999  -1.095  53.812  1.00  0.00     0.004 A 
HETATM   17  C11 UNL     1      18.729  -1.107  53.278  1.00  0.00     0.019 A 
HETATM   18  C12 UNL     1      18.505  -0.387  52.149  1.00  0.00     0.013 A 
HETATM   19 BR1  UNL     1      16.766  -0.367  51.366  1.00  0.00    -0.051 Br
HETATM   20  C13 UNL     1      19.528   0.317  51.583  1.00  0.00     0.050 A 
ENDBRANCH  10  14
ENDBRANCH   8  10
BRANCH   1  21
HETATM   21  O1  UNL     1      26.704  -0.798  53.346  1.00  0.00    -0.357 OA
HETATM   22  C1  UNL     1      26.842  -1.915  52.476  1.00  0.00     0.209 C 
ENDBRANCH   1  21
BRANCH   9  23
HETATM   23  O2  UNL     1      27.230   1.989  52.879  1.00  0.00    -0.378 OA
HETATM   24  C15 UNL     1      28.267   2.361  53.722  1.00  0.00     0.203 C 
ENDBRANCH   9  23
TORSDOF 5
ENDMDL
MODEL 6
REMARK VINA RESULT:      -6.7      4.092      6.073
REMARK  5 active torsions:
REMARK  status: ('A' for Active; 'I' for Inactive)
REMARK    1  A    between atoms: O1_2  and  C2_3 
REMARK    2  A    between atoms: C7_10  and  N3_11 
REMARK    3  A    between atoms: N3_11  and  N4_12 
REMARK    4  A    between atoms: N3_11  and  C8_13 
REMARK    5  A    between atoms: C14_20  and  O2_21 
ROOT
HETATM    1  C2  UNL     1      22.393   3.303  48.042  1.00  0.00     0.081 A 
HETATM    2  C3  UNL     1      23.383   3.066  48.886  1.00  0.00     0.052 A 
HETATM    3  C4  UNL     1      23.267   3.760  50.160  1.00  0.00     0.042 A 
HETATM    4  C5  UNL     1      22.089   4.462  50.019  1.00  0.00     0.085 A 
HETATM    5  N1  UNL     1      21.678   5.232  51.054  1.00  0.00    -0.242 NA
HETATM    6  C6  UNL     1      22.403   5.309  52.193  1.00  0.00     0.235 A 
HETATM    7  N2  UNL     1      23.535   4.601  52.257  1.00  0.00    -0.222 NA
HETATM    8  C7  UNL     1      24.032   3.813  51.300  1.00  0.00     0.158 A 
HETATM    9  C14 UNL     1      21.455   4.241  48.709  1.00  0.00     0.230 A 
ENDROOT
BRANCH   8  10
HETATM   10  N3  UNL     1      25.220   3.074  51.362  1.00  0.00    -0.262 N 
BRANCH  10  11
HETATM   11  N4  UNL     1      26.401   3.603  50.832  1.00  0.00    -0.241 NA
HETATM   12  H6  UNL     1      27.130   2.860  50.928  1.00  0.00     0.143 HD
HETATM   13  H7  UNL     1      26.227   3.820  49.830  1.00  0.00     0.143 HD
ENDBRANCH  10  11
BRANCH  10  14
HETATM   14  C8  UNL     1      25.401   1.782  51.916  1.00  0.00     0.054 A 
HETATM   15  C9  UNL     1      26.532   1.023  51.765  1.00  0.00     0.031 A 
HETATM   16  C10 UNL     1      26.729  -0.226  52.282  1.00  0.00     0.004 A 
HETATM   17  C11 UNL     1      25.730  -0.813  53.027  1.00  0.00     0.019 A 
HETATM   18  C12 UNL     1      24.582  -0.116  53.216  1.00  0.00     0.013 A 
HETATM   19 BR1  UNL     1      23.165  -0.880  54.239  1.00  0.00    -0.051 Br
HETATM   20  C13 UNL     1      24.450   1.129  52.672  1.00  0.00     0.050 A 
ENDBRANCH  10  14
ENDBRANCH   8  10
BRANCH   1  21
HETATM   21  O1  UNL     1      22.130   2.850  46.757  1.00  0.00    -0.357 OA
HETATM   22  C1  UNL     1      21.901   3.735  45.667  1.00  0.00     0.209 C 
ENDBRANCH   1  21
BRANCH   9  23
HETATM   23  O2  UNL     1      20.237   3.591  48.790  1.00  0.00    -0.378 OA
HETATM   24  C15 UNL     1      19.161   4.379  48.411  1.00  0.00     0.203 C 
ENDBRANCH   9  23
TORSDOF 5
ENDMDL
MODEL 7
REMARK VINA RESULT:      -6.7      3.133      5.184
REMARK  5 active torsions:
REMARK  status: ('A' for Active; 'I' for Inactive)
REMARK    1  A    between atoms: O1_2  and  C2_3 
REMARK    2  A    between atoms: C7_10  and  N3_11 
REMARK    3  A    between atoms: N3_11  and  N4_12 
REMARK    4  A    between atoms: N3_11  and  C8_13 
REMARK    5  A    between atoms: C14_20  and  O2_21 
ROOT
HETATM    1  C2  UNL     1      25.683   0.321  54.017  1.00  0.00     0.081 A 
HETATM    2  C3  UNL     1      24.710   1.016  53.452  1.00  0.00     0.052 A 
HETATM    3  C4  UNL     1      25.145   1.896  52.377  1.00  0.00     0.042 A 
HETATM    4  C5  UNL     1      26.505   1.674  52.332  1.00  0.00     0.085 A 
HETATM    5  N1  UNL     1      27.232   2.354  51.415  1.00  0.00    -0.242 NA
HETATM    6  C6  UNL     1      26.640   3.226  50.568  1.00  0.00     0.235 A 
HETATM    7  N2  UNL     1      25.318   3.390  50.670  1.00  0.00    -0.222 NA
HETATM    8  C7  UNL     1      24.507   2.774  51.534  1.00  0.00     0.158 A 
HETATM    9  C14 UNL     1      26.948   0.691  53.333  1.00  0.00     0.230 A 
ENDROOT
BRANCH   8  10
HETATM   10  N3  UNL     1      23.122   2.947  51.647  1.00  0.00    -0.262 N 
BRANCH  10  11
HETATM   11  N4  UNL     1      22.609   3.979  52.439  1.00  0.00    -0.241 NA
HETATM   12  H6  UNL     1      21.854   3.559  53.025  1.00  0.00     0.143 HD
HETATM   13  H7  UNL     1      23.384   4.333  53.036  1.00  0.00     0.143 HD
ENDBRANCH  10  11
BRANCH  10  14
HETATM   14  C8  UNL     1      22.105   2.170  51.038  1.00  0.00     0.054 A 
HETATM   15  C9  UNL     1      21.970   1.986  49.688  1.00  0.00     0.031 A 
HETATM   16  C10 UNL     1      20.997   1.248  49.076  1.00  0.00     0.004 A 
HETATM   17  C11 UNL     1      20.046   0.615  49.846  1.00  0.00     0.019 A 
HETATM   18  C12 UNL     1      20.121   0.755  51.194  1.00  0.00     0.013 A 
HETATM   19 BR1  UNL     1      18.831  -0.098  52.310  1.00  0.00    -0.051 Br
HETATM   20  C13 UNL     1      21.120   1.507  51.741  1.00  0.00     0.050 A 
ENDBRANCH  10  14
ENDBRANCH   8  10
BRANCH   1  21
HETATM   21  O1  UNL     1      25.692  -0.606  55.049  1.00  0.00    -0.357 OA
HETATM   22  C1  UNL     1      24.510  -1.250  55.510  1.00  0.00     0.209 C 
ENDBRANCH   1  21
BRANCH   9  23
HETATM   23  O2  UNL     1      27.452  -0.472  52.779  1.00  0.00    -0.378 OA
HETATM   24  C15 UNL     1      28.682  -0.848  53.297  1.00  0.00     0.203 C 
ENDBRANCH   9  23
TORSDOF 5
ENDMDL
MODEL 8
REMARK VINA RESULT:      -6.6      2.622      4.307
REMARK  5 active torsions:
REMARK  status: ('A' for Active; 'I' for Inactive)
REMARK    1  A    between atoms: O1_2  and  C2_3 
REMARK    2  A    between atoms: C7_10  and  N3_11 
REMARK    3  A    between atoms: N3_11  and  N4_12 
REMARK    4  A    between atoms: N3_11  and  C8_13 
REMARK    5  A    between atoms: C14_20  and  O2_21 
ROOT
HETATM    1  C2  UNL     1      25.447   1.050  52.393  1.00  0.00     0.081 A 
HETATM    2  C3  UNL     1      24.194   1.413  52.184  1.00  0.00     0.052 A 
HETATM    3  C4  UNL     1      23.219   0.715  53.009  1.00  0.00     0.042 A 
HETATM    4  C5  UNL     1      24.006  -0.131  53.761  1.00  0.00     0.085 A 
HETATM    5  N1  UNL     1      23.395  -0.943  54.656  1.00  0.00    -0.242 NA
HETATM    6  C6  UNL     1      22.051  -0.924  54.806  1.00  0.00     0.235 A 
HETATM    7  N2  UNL     1      21.353  -0.078  54.042  1.00  0.00    -0.222 NA
HETATM    8  C7  UNL     1      21.851   0.763  53.132  1.00  0.00     0.158 A 
HETATM    9  C14 UNL     1      25.437   0.003  53.446  1.00  0.00     0.230 A 
ENDROOT
BRANCH   8  10
HETATM   10  N3  UNL     1      21.122   1.646  52.326  1.00  0.00    -0.262 N 
BRANCH  10  11
HETATM   11  N4  UNL     1      20.126   2.449  52.892  1.00  0.00    -0.241 NA
HETATM   12  H6  UNL     1      20.573   3.366  53.117  1.00  0.00     0.143 HD
HETATM   13  H7  UNL     1      19.377   2.571  52.180  1.00  0.00     0.143 HD
ENDBRANCH  10  11
BRANCH  10  14
HETATM   14  C8  UNL     1      21.256   1.848  50.930  1.00  0.00     0.054 A 
HETATM   15  C9  UNL     1      21.268   0.845  49.997  1.00  0.00     0.031 A 
HETATM   16  C10 UNL     1      21.403   1.011  48.648  1.00  0.00     0.004 A 
HETATM   17  C11 UNL     1      21.541   2.283  48.135  1.00  0.00     0.019 A 
HETATM   18  C12 UNL     1      21.537   3.325  49.004  1.00  0.00     0.013 A 
HETATM   19 BR1  UNL     1      21.725   5.107  48.352  1.00  0.00    -0.051 Br
HETATM   20  C13 UNL     1      21.398   3.088  50.342  1.00  0.00     0.050 A 
ENDBRANCH  10  14
ENDBRANCH   8  10
BRANCH   1  21
HETATM   21  O1  UNL     1      26.647   1.461  51.830  1.00  0.00    -0.357 OA
HETATM   22  C1  UNL     1      26.781   2.692  51.129  1.00  0.00     0.209 C 
ENDBRANCH   1  21
BRANCH   9  23
HETATM   23  O2  UNL     1      26.189   0.494  54.498  1.00  0.00    -0.378 OA
HETATM   24  C15 UNL     1      27.454  -0.066  54.586  1.00  0.00     0.203 C 
ENDBRANCH   9  23
TORSDOF 5
ENDMDL
MODEL 9
REMARK VINA RESULT:      -6.6      3.666      6.033
REMARK  5 active torsions:
REMARK  status: ('A' for Active; 'I' for Inactive)
REMARK    1  A    between atoms: O1_2  and  C2_3 
REMARK    2  A    between atoms: C7_10  and  N3_11 
REMARK    3  A    between atoms: N3_11  and  N4_12 
REMARK    4  A    between atoms: N3_11  and  C8_13 
REMARK    5  A    between atoms: C14_20  and  O2_21 
ROOT
HETATM    1  C2  UNL     1      19.671   3.783  51.540  1.00  0.00     0.081 A 
HETATM    2  C3  UNL     1      20.869   3.607  52.070  1.00  0.00     0.052 A 
HETATM    3  C4  UNL     1      21.973   3.800  51.141  1.00  0.00     0.042 A 
HETATM    4  C5  UNL     1      21.329   4.119  49.964  1.00  0.00     0.085 A 
HETATM    5  N1  UNL     1      22.087   4.368  48.870  1.00  0.00    -0.242 NA
HETATM    6  C6  UNL     1      23.436   4.305  48.932  1.00  0.00     0.235 A 
HETATM    7  N2  UNL     1      23.990   3.989  50.106  1.00  0.00    -0.222 NA
HETATM    8  C7  UNL     1      23.341   3.725  51.243  1.00  0.00     0.158 A 
HETATM    9  C14 UNL     1      19.865   4.135  50.110  1.00  0.00     0.230 A 
ENDROOT
BRANCH   8  10
HETATM   10  N3  UNL     1      23.918   3.390  52.474  1.00  0.00    -0.262 N 
BRANCH  10  11
HETATM   11  N4  UNL     1      24.198   4.389  53.411  1.00  0.00    -0.241 NA
HETATM   12  H6  UNL     1      24.358   5.269  52.872  1.00  0.00     0.143 HD
HETATM   13  H7  UNL     1      23.366   4.483  54.029  1.00  0.00     0.143 HD
ENDBRANCH  10  11
BRANCH  10  14
HETATM   14  C8  UNL     1      24.289   2.099  52.927  1.00  0.00     0.054 A 
HETATM   15  C9  UNL     1      23.460   1.008  52.929  1.00  0.00     0.031 A 
HETATM   16  C10 UNL     1      23.789  -0.244  53.366  1.00  0.00     0.004 A 
HETATM   17  C11 UNL     1      25.056  -0.476  53.855  1.00  0.00     0.019 A 
HETATM   18  C12 UNL     1      25.930   0.562  53.881  1.00  0.00     0.013 A 
HETATM   19 BR1  UNL     1      27.697   0.299  54.549  1.00  0.00    -0.051 Br
HETATM   20  C13 UNL     1      25.536   1.788  53.429  1.00  0.00     0.050 A 
ENDBRANCH  10  14
ENDBRANCH   8  10
BRANCH   1  21
HETATM   21  O1  UNL     1      18.391   3.697  52.070  1.00  0.00    -0.357 OA
HETATM   22  C1  UNL     1      17.377   2.887  51.490  1.00  0.00     0.209 C 
ENDBRANCH   1  21
BRANCH   9  23
HETATM   23  O2  UNL     1      19.307   5.389  49.933  1.00  0.00    -0.378 OA
HETATM   24  C15 UNL     1      18.532   5.494  48.788  1.00  0.00     0.203 C 
ENDBRANCH   9  23
TORSDOF 5
ENDMDL
