MODEL 1
REMARK VINA RESULT:      -7.1      0.000      0.000
REMARK  4 active torsions:
REMARK  status: ('A' for Active; 'I' for Inactive)
REMARK    1  A    between atoms: O1_2  and  C2_3 
REMARK    2  A    between atoms: C2_3  and  C4_5 
REMARK    3  A    between atoms: C4_5  and  C5_6 
REMARK    4  A    between atoms: C8_11  and  O2_12 
ROOT
HETATM    1  C5  UNL     1      24.491   2.507  52.605  1.00  0.00     0.020 C 
HETATM    2  N1  UNL     1      24.130   3.698  52.958  1.00  0.00    -0.292 NA
HETATM    3  C6  UNL     1      22.902   4.465  52.957  1.00  0.00     0.195 C 
HETATM    4  C7  UNL     1      21.875   3.901  52.021  1.00  0.00     0.110 C 
HETATM    5  N2  UNL     1      21.104   2.856  52.194  1.00  0.00    -0.246 NA
HETATM    6  C8  UNL     1      21.240   1.469  52.375  1.00  0.00     0.233 C 
HETATM    7  C10 UNL     1      22.615   0.933  52.478  1.00  0.00     0.099 C 
HETATM    8  C11 UNL     1      23.747   1.517  51.728  1.00  0.00     0.048 C 
HETATM    9  C12 UNL     1      23.381   2.075  50.378  1.00  0.00     0.026 C 
HETATM   10  C13 UNL     1      23.428   2.770  49.297  1.00  0.00    -0.021 C 
HETATM   11  C14 UNL     1      22.199   2.184  48.779  1.00  0.00    -0.006 C 
HETATM   12  C15 UNL     1      21.199   1.310  48.944  1.00  0.00    -0.008 C 
HETATM   13  C16 UNL     1      21.343   0.552  50.168  1.00  0.00     0.148 C 
HETATM   14  N3  UNL     1      20.586   0.794  51.296  1.00  0.00    -0.365 N 
HETATM   15  C17 UNL     1      19.226   0.560  51.293  1.00  0.00     0.148 C 
ENDROOT
BRANCH   1  16
HETATM   16  C4  UNL     1      25.790   2.244  53.257  1.00  0.00     0.083 C 
BRANCH  16  17
HETATM   17  C2  UNL     1      26.882   1.765  53.861  1.00  0.00     0.097 C 
HETATM   18  C3  UNL     1      28.167   2.317  53.396  1.00  0.00     0.050 C 
BRANCH  17  19
HETATM   19  O1  UNL     1      27.185   0.817  54.879  1.00  0.00    -0.381 OA
HETATM   20  C1  UNL     1      28.509   0.277  54.880  1.00  0.00     0.202 C 
ENDBRANCH  17  19
ENDBRANCH  16  17
ENDBRANCH   1  16
BRANCH   6  21
HETATM   21  O2  UNL     1      20.546   1.159  53.538  1.00  0.00    -0.347 OA
HETATM   22  C9  UNL     1      21.131   0.274  54.379  1.00  0.00     0.206 C 
ENDBRANCH   6  21
TORSDOF 4
ENDMDL
MODEL 2
REMARK VINA RESULT:      -6.4      2.469      3.777
REMARK  4 active torsions:
REMARK  status: ('A' for Active; 'I' for Inactive)
REMARK    1  A    between atoms: O1_2  and  C2_3 
REMARK    2  A    between atoms: C2_3  and  C4_5 
REMARK    3  A    between atoms: C4_5  and  C5_6 
REMARK    4  A    between atoms: C8_11  and  O2_12 
ROOT
HETATM    1  C5  UNL     1      25.277   2.385  52.269  1.00  0.00     0.020 C 
HETATM    2  N1  UNL     1      26.042   2.499  51.233  1.00  0.00    -0.292 NA
HETATM    3  C6  UNL     1      26.017   3.240  49.989  1.00  0.00     0.195 C 
HETATM    4  C7  UNL     1      24.642   3.725  49.637  1.00  0.00     0.110 C 
HETATM    5  N2  UNL     1      23.987   4.742  50.139  1.00  0.00    -0.246 NA
HETATM    6  C8  UNL     1      23.469   5.148  51.380  1.00  0.00     0.233 C 
HETATM    7  C10 UNL     1      23.741   4.277  52.544  1.00  0.00     0.099 C 
HETATM    8  C11 UNL     1      23.827   2.806  52.424  1.00  0.00     0.048 C 
HETATM    9  C12 UNL     1      22.920   2.210  51.380  1.00  0.00     0.026 C 
HETATM   10  C13 UNL     1      22.434   1.388  50.519  1.00  0.00    -0.021 C 
HETATM   11  C14 UNL     1      21.310   2.262  50.209  1.00  0.00    -0.006 C 
HETATM   12  C15 UNL     1      20.659   3.405  50.453  1.00  0.00    -0.008 C 
HETATM   13  C16 UNL     1      21.290   4.171  51.506  1.00  0.00     0.148 C 
HETATM   14  N3  UNL     1      22.051   5.297  51.266  1.00  0.00    -0.365 N 
HETATM   15  C17 UNL     1      21.470   6.442  50.760  1.00  0.00     0.148 C 
ENDROOT
BRANCH   1  16
HETATM   16  C4  UNL     1      26.097   1.783  53.340  1.00  0.00     0.083 C 
BRANCH  16  17
HETATM   17  C2  UNL     1      26.715   1.023  54.250  1.00  0.00     0.097 C 
HETATM   18  C3  UNL     1      25.947  -0.130  54.751  1.00  0.00     0.050 C 
BRANCH  17  19
HETATM   19  O1  UNL     1      27.972   1.003  54.920  1.00  0.00    -0.381 OA
HETATM   20  C1  UNL     1      28.895  -0.014  54.523  1.00  0.00     0.202 C 
ENDBRANCH  17  19
ENDBRANCH  16  17
ENDBRANCH   1  16
BRANCH   6  21
HETATM   21  O2  UNL     1      23.997   6.410  51.627  1.00  0.00    -0.347 OA
HETATM   22  C9  UNL     1      24.933   6.860  50.759  1.00  0.00     0.206 C 
ENDBRANCH   6  21
TORSDOF 4
ENDMDL
MODEL 3
REMARK VINA RESULT:      -6.4      3.128      3.999
REMARK  4 active torsions:
REMARK  status: ('A' for Active; 'I' for Inactive)
REMARK    1  A    between atoms: O1_2  and  C2_3 
REMARK    2  A    between atoms: C2_3  and  C4_5 
REMARK    3  A    between atoms: C4_5  and  C5_6 
REMARK    4  A    between atoms: C8_11  and  O2_12 
ROOT
HETATM    1  C5  UNL     1      24.607   4.726  49.585  1.00  0.00     0.020 C 
HETATM    2  N1  UNL     1      24.023   5.737  50.141  1.00  0.00    -0.292 NA
HETATM    3  C6  UNL     1      22.855   5.946  50.970  1.00  0.00     0.195 C 
HETATM    4  C7  UNL     1      21.886   4.803  50.896  1.00  0.00     0.110 C 
HETATM    5  N2  UNL     1      21.965   3.632  51.478  1.00  0.00    -0.246 NA
HETATM    6  C8  UNL     1      22.806   2.507  51.464  1.00  0.00     0.233 C 
HETATM    7  C10 UNL     1      24.026   2.585  50.629  1.00  0.00     0.099 C 
HETATM    8  C11 UNL     1      24.059   3.330  49.352  1.00  0.00     0.048 C 
HETATM    9  C12 UNL     1      22.763   3.319  48.587  1.00  0.00     0.026 C 
HETATM   10  C13 UNL     1      21.834   3.658  47.765  1.00  0.00    -0.021 C 
HETATM   11  C14 UNL     1      20.989   2.531  48.138  1.00  0.00    -0.006 C 
HETATM   12  C15 UNL     1      20.832   1.423  48.870  1.00  0.00    -0.008 C 
HETATM   13  C16 UNL     1      22.001   1.138  49.675  1.00  0.00     0.148 C 
HETATM   14  N3  UNL     1      22.053   1.369  51.035  1.00  0.00    -0.365 N 
HETATM   15  C17 UNL     1      21.261   0.643  51.901  1.00  0.00     0.148 C 
ENDROOT
BRANCH   1  16
HETATM   16  C4  UNL     1      25.972   5.165  49.229  1.00  0.00     0.083 C 
BRANCH  16  17
HETATM   17  C2  UNL     1      27.160   5.446  48.685  1.00  0.00     0.097 C 
HETATM   18  C3  UNL     1      27.309   6.805  48.137  1.00  0.00     0.050 C 
BRANCH  17  19
HETATM   19  O1  UNL     1      28.396   4.774  48.462  1.00  0.00    -0.381 OA
HETATM   20  C1  UNL     1      29.538   5.597  48.213  1.00  0.00     0.202 C 
ENDBRANCH  17  19
ENDBRANCH  16  17
ENDBRANCH   1  16
BRANCH   6  21
HETATM   21  O2  UNL     1      23.178   2.282  52.784  1.00  0.00    -0.347 OA
HETATM   22  C9  UNL     1      24.345   2.834  53.192  1.00  0.00     0.206 C 
ENDBRANCH   6  21
TORSDOF 4
ENDMDL
MODEL 4
REMARK VINA RESULT:      -6.2      2.805      4.793
REMARK  4 active torsions:
REMARK  status: ('A' for Active; 'I' for Inactive)
REMARK    1  A    between atoms: O1_2  and  C2_3 
REMARK    2  A    between atoms: C2_3  and  C4_5 
REMARK    3  A    between atoms: C4_5  and  C5_6 
REMARK    4  A    between atoms: C8_11  and  O2_12 
ROOT
HETATM    1  C5  UNL     1      22.186   3.481  51.290  1.00  0.00     0.020 C 
HETATM    2  N1  UNL     1      22.241   3.078  50.062  1.00  0.00    -0.292 NA
HETATM    3  C6  UNL     1      21.814   1.909  49.323  1.00  0.00     0.195 C 
HETATM    4  C7  UNL     1      21.559   0.729  50.213  1.00  0.00     0.110 C 
HETATM    5  N2  UNL     1      20.522   0.499  50.979  1.00  0.00    -0.246 NA
HETATM    6  C8  UNL     1      19.892   1.075  52.095  1.00  0.00     0.233 C 
HETATM    7  C10 UNL     1      20.439   2.356  52.593  1.00  0.00     0.099 C 
HETATM    8  C11 UNL     1      21.883   2.670  52.537  1.00  0.00     0.048 C 
HETATM    9  C12 UNL     1      22.789   1.480  52.708  1.00  0.00     0.026 C 
HETATM   10  C13 UNL     1      23.831   0.728  52.653  1.00  0.00    -0.021 C 
HETATM   11  C14 UNL     1      23.165  -0.371  53.340  1.00  0.00    -0.006 C 
HETATM   12  C15 UNL     1      22.066  -0.831  53.948  1.00  0.00    -0.008 C 
HETATM   13  C16 UNL     1      21.020   0.168  53.998  1.00  0.00     0.148 C 
HETATM   14  N3  UNL     1      19.912   0.139  53.176  1.00  0.00    -0.365 N 
HETATM   15  C17 UNL     1      18.976  -0.869  53.293  1.00  0.00     0.148 C 
ENDROOT
BRANCH   1  16
HETATM   16  C4  UNL     1      22.441   4.935  51.273  1.00  0.00     0.083 C 
BRANCH  16  17
HETATM   17  C2  UNL     1      22.885   6.188  51.130  1.00  0.00     0.097 C 
HETATM   18  C3  UNL     1      21.877   7.184  50.727  1.00  0.00     0.050 C 
BRANCH  17  19
HETATM   19  O1  UNL     1      24.122   6.883  51.258  1.00  0.00    -0.381 OA
HETATM   20  C1  UNL     1      24.280   8.064  50.467  1.00  0.00     0.202 C 
ENDBRANCH  17  19
ENDBRANCH  16  17
ENDBRANCH   1  16
BRANCH   6  21
HETATM   21  O2  UNL     1      18.562   1.263  51.736  1.00  0.00    -0.347 OA
HETATM   22  C9  UNL     1      18.218   2.494  51.290  1.00  0.00     0.206 C 
ENDBRANCH   6  21
TORSDOF 4
ENDMDL
MODEL 5
REMARK VINA RESULT:      -6.1      1.882      3.131
REMARK  4 active torsions:
REMARK  status: ('A' for Active; 'I' for Inactive)
REMARK    1  A    between atoms: O1_2  and  C2_3 
REMARK    2  A    between atoms: C2_3  and  C4_5 
REMARK    3  A    between atoms: C4_5  and  C5_6 
REMARK    4  A    between atoms: C8_11  and  O2_12 
ROOT
HETATM    1  C5  UNL     1      23.788   2.340  51.866  1.00  0.00     0.020 C 
HETATM    2  N1  UNL     1      24.250   2.482  50.667  1.00  0.00    -0.292 NA
HETATM    3  C6  UNL     1      23.725   2.907  49.386  1.00  0.00     0.195 C 
HETATM    4  C7  UNL     1      22.228   2.840  49.328  1.00  0.00     0.110 C 
HETATM    5  N2  UNL     1      21.357   3.670  49.846  1.00  0.00    -0.246 NA
HETATM    6  C8  UNL     1      20.972   4.130  51.117  1.00  0.00     0.233 C 
HETATM    7  C10 UNL     1      21.755   3.649  52.276  1.00  0.00     0.099 C 
HETATM    8  C11 UNL     1      22.341   2.292  52.322  1.00  0.00     0.048 C 
HETATM    9  C12 UNL     1      21.530   1.236  51.618  1.00  0.00     0.026 C 
HETATM   10  C13 UNL     1      21.220   0.145  51.013  1.00  0.00    -0.021 C 
HETATM   11  C14 UNL     1      19.820   0.527  50.885  1.00  0.00    -0.006 C 
HETATM   12  C15 UNL     1      18.859   1.423  51.139  1.00  0.00    -0.008 C 
HETATM   13  C16 UNL     1      19.358   2.548  51.899  1.00  0.00     0.148 C 
HETATM   14  N3  UNL     1      19.602   3.786  51.340  1.00  0.00    -0.365 N 
HETATM   15  C17 UNL     1      18.563   4.554  50.856  1.00  0.00     0.148 C 
ENDROOT
BRANCH   1  16
HETATM   16  C4  UNL     1      24.957   2.265  52.766  1.00  0.00     0.083 C 
BRANCH  16  17
HETATM   17  C2  UNL     1      26.103   2.027  53.412  1.00  0.00     0.097 C 
HETATM   18  C3  UNL     1      27.335   2.224  52.628  1.00  0.00     0.050 C 
BRANCH  17  19
HETATM   19  O1  UNL     1      26.506   1.610  54.713  1.00  0.00    -0.381 OA
HETATM   20  C1  UNL     1      27.102   0.314  54.816  1.00  0.00     0.202 C 
ENDBRANCH  17  19
ENDBRANCH  16  17
ENDBRANCH   1  16
BRANCH   6  21
HETATM   21  O2  UNL     1      21.047   5.517  51.067  1.00  0.00    -0.347 OA
HETATM   22  C9  UNL     1      22.277   6.067  51.198  1.00  0.00     0.206 C 
ENDBRANCH   6  21
TORSDOF 4
ENDMDL
MODEL 6
REMARK VINA RESULT:      -6.0      3.120      5.331
REMARK  4 active torsions:
REMARK  status: ('A' for Active; 'I' for Inactive)
REMARK    1  A    between atoms: O1_2  and  C2_3 
REMARK    2  A    between atoms: C2_3  and  C4_5 
REMARK    3  A    between atoms: C4_5  and  C5_6 
REMARK    4  A    between atoms: C8_11  and  O2_12 
ROOT
HETATM    1  C5  UNL     1      23.230   2.483  51.166  1.00  0.00     0.020 C 
HETATM    2  N1  UNL     1      22.798   2.021  50.037  1.00  0.00    -0.292 NA
HETATM    3  C6  UNL     1      22.707   2.501  48.675  1.00  0.00     0.195 C 
HETATM    4  C7  UNL     1      22.807   3.995  48.585  1.00  0.00     0.110 C 
HETATM    5  N2  UNL     1      23.878   4.744  48.671  1.00  0.00    -0.246 NA
HETATM    6  C8  UNL     1      24.872   5.051  49.615  1.00  0.00     0.233 C 
HETATM    7  C10 UNL     1      24.829   4.324  50.903  1.00  0.00     0.099 C 
HETATM    8  C11 UNL     1      23.555   3.919  51.536  1.00  0.00     0.048 C 
HETATM    9  C12 UNL     1      22.410   4.868  51.302  1.00  0.00     0.026 C 
HETATM   10  C13 UNL     1      21.213   5.324  51.194  1.00  0.00    -0.021 C 
HETATM   11  C14 UNL     1      21.675   6.664  50.857  1.00  0.00    -0.006 C 
HETATM   12  C15 UNL     1      22.705   7.498  50.672  1.00  0.00    -0.008 C 
HETATM   13  C16 UNL     1      23.975   6.848  50.915  1.00  0.00     0.148 C 
HETATM   14  N3  UNL     1      24.824   6.452  49.901  1.00  0.00    -0.365 N 
HETATM   15  C17 UNL     1      25.440   7.388  49.096  1.00  0.00     0.148 C 
ENDROOT
BRANCH   1  16
HETATM   16  C4  UNL     1      23.396   1.323  52.065  1.00  0.00     0.083 C 
BRANCH  16  17
HETATM   17  C2  UNL     1      23.775   0.377  52.930  1.00  0.00     0.097 C 
HETATM   18  C3  UNL     1      22.788  -0.684  53.194  1.00  0.00     0.050 C 
BRANCH  17  19
HETATM   19  O1  UNL     1      24.922   0.078  53.721  1.00  0.00    -0.381 OA
HETATM   20  C1  UNL     1      25.872  -0.829  53.158  1.00  0.00     0.202 C 
ENDBRANCH  17  19
ENDBRANCH  16  17
ENDBRANCH   1  16
BRANCH   6  21
HETATM   21  O2  UNL     1      26.089   4.798  48.995  1.00  0.00    -0.347 OA
HETATM   22  C9  UNL     1      26.783   3.719  49.430  1.00  0.00     0.206 C 
ENDBRANCH   6  21
TORSDOF 4
ENDMDL
MODEL 7
REMARK VINA RESULT:      -6.0      2.212      3.445
REMARK  4 active torsions:
REMARK  status: ('A' for Active; 'I' for Inactive)
REMARK    1  A    between atoms: O1_2  and  C2_3 
REMARK    2  A    between atoms: C2_3  and  C4_5 
REMARK    3  A    between atoms: C4_5  and  C5_6 
REMARK    4  A    between atoms: C8_11  and  O2_12 
ROOT
HETATM    1  C5  UNL     1      23.229   1.022  52.141  1.00  0.00     0.020 C 
HETATM    2  N1  UNL     1      24.386   1.367  51.676  1.00  0.00    -0.292 NA
HETATM    3  C6  UNL     1      24.904   2.430  50.840  1.00  0.00     0.195 C 
HETATM    4  C7  UNL     1      23.833   3.099  50.031  1.00  0.00     0.110 C 
HETATM    5  N2  UNL     1      22.947   3.978  50.426  1.00  0.00    -0.246 NA
HETATM    6  C8  UNL     1      21.872   4.054  51.327  1.00  0.00     0.233 C 
HETATM    7  C10 UNL     1      21.617   2.870  52.177  1.00  0.00     0.099 C 
HETATM    8  C11 UNL     1      21.855   1.492  51.698  1.00  0.00     0.048 C 
HETATM    9  C12 UNL     1      21.601   1.287  50.228  1.00  0.00     0.026 C 
HETATM   10  C13 UNL     1      21.646   0.783  49.046  1.00  0.00    -0.021 C 
HETATM   11  C14 UNL     1      20.747   1.793  48.502  1.00  0.00    -0.006 C 
HETATM   12  C15 UNL     1      19.978   2.865  48.720  1.00  0.00    -0.008 C 
HETATM   13  C16 UNL     1      19.973   3.250  50.115  1.00  0.00     0.148 C 
HETATM   14  N3  UNL     1      20.673   4.336  50.598  1.00  0.00    -0.365 N 
HETATM   15  C17 UNL     1      20.323   5.619  50.228  1.00  0.00     0.148 C 
ENDROOT
BRANCH   1  16
HETATM   16  C4  UNL     1      23.480   0.080  53.250  1.00  0.00     0.083 C 
BRANCH  16  17
HETATM   17  C2  UNL     1      23.942  -0.671  54.255  1.00  0.00     0.097 C 
HETATM   18  C3  UNL     1      22.920  -1.287  55.119  1.00  0.00     0.050 C 
BRANCH  17  19
HETATM   19  O1  UNL     1      25.210  -1.072  54.766  1.00  0.00    -0.381 OA
HETATM   20  C1  UNL     1      26.219  -0.062  54.845  1.00  0.00     0.202 C 
ENDBRANCH  17  19
ENDBRANCH  16  17
ENDBRANCH   1  16
BRANCH   6  21
HETATM   21  O2  UNL     1      22.126   5.149  52.144  1.00  0.00    -0.347 OA
HETATM   22  C9  UNL     1      23.425   5.426  52.407  1.00  0.00     0.206 C 
ENDBRANCH   6  21
TORSDOF 4
ENDMDL
MODEL 8
REMARK VINA RESULT:      -6.0      2.609      6.251
REMARK  4 active torsions:
REMARK  status: ('A' for Active; 'I' for Inactive)
REMARK    1  A    between atoms: O1_2  and  C2_3 
REMARK    2  A    between atoms: C2_3  and  C4_5 
REMARK    3  A    between atoms: C4_5  and  C5_6 
REMARK    4  A    between atoms: C8_11  and  O2_12 
ROOT
HETATM    1  C5  UNL     1      21.809   2.318  51.210  1.00  0.00     0.020 C 
HETATM    2  N1  UNL     1      21.428   3.362  51.872  1.00  0.00    -0.292 NA
HETATM    3  C6  UNL     1      21.992   4.652  52.208  1.00  0.00     0.195 C 
HETATM    4  C7  UNL     1      23.485   4.679  52.069  1.00  0.00     0.110 C 
HETATM    5  N2  UNL     1      24.198   4.766  50.973  1.00  0.00    -0.246 NA
HETATM    6  C8  UNL     1      24.419   4.021  49.802  1.00  0.00     0.233 C 
HETATM    7  C10 UNL     1      23.616   2.792  49.622  1.00  0.00     0.099 C 
HETATM    8  C11 UNL     1      23.209   1.943  50.762  1.00  0.00     0.048 C 
HETATM    9  C12 UNL     1      24.203   1.895  51.892  1.00  0.00     0.026 C 
HETATM   10  C13 UNL     1      24.699   1.739  53.068  1.00  0.00    -0.021 C 
HETATM   11  C14 UNL     1      26.043   2.088  52.628  1.00  0.00    -0.006 C 
HETATM   12  C15 UNL     1      26.857   2.428  51.622  1.00  0.00    -0.008 C 
HETATM   13  C16 UNL     1      26.158   2.475  50.356  1.00  0.00     0.148 C 
HETATM   14  N3  UNL     1      25.800   3.657  49.738  1.00  0.00    -0.365 N 
HETATM   15  C17 UNL     1      26.766   4.516  49.254  1.00  0.00     0.148 C 
ENDROOT
BRANCH   1  16
HETATM   16  C4  UNL     1      20.592   1.533  50.917  1.00  0.00     0.083 C 
BRANCH  16  17
HETATM   17  C2  UNL     1      19.368   1.040  50.705  1.00  0.00     0.097 C 
HETATM   18  C3  UNL     1      18.920   0.005  51.653  1.00  0.00     0.050 C 
BRANCH  17  19
HETATM   19  O1  UNL     1      18.308   1.231  49.772  1.00  0.00    -0.381 OA
HETATM   20  C1  UNL     1      18.285   2.477  49.073  1.00  0.00     0.202 C 
ENDBRANCH  17  19
ENDBRANCH  16  17
ENDBRANCH   1  16
BRANCH   6  21
HETATM   21  O2  UNL     1      24.169   4.883  48.741  1.00  0.00    -0.347 OA
HETATM   22  C9  UNL     1      22.894   4.941  48.289  1.00  0.00     0.206 C 
ENDBRANCH   6  21
TORSDOF 4
ENDMDL
MODEL 9
REMARK VINA RESULT:      -5.9      2.567      5.851
REMARK  4 active torsions:
REMARK  status: ('A' for Active; 'I' for Inactive)
REMARK    1  A    between atoms: O1_2  and  C2_3 
REMARK    2  A    between atoms: C2_3  and  C4_5 
REMARK    3  A    between atoms: C4_5  and  C5_6 
REMARK    4  A    between atoms: C8_11  and  O2_12 
ROOT
HETATM    1  C5  UNL     1      22.689   3.175  50.089  1.00  0.00     0.020 C 
HETATM    2  N1  UNL     1      22.705   4.336  50.659  1.00  0.00    -0.292 NA
HETATM    3  C6  UNL     1      23.166   4.879  51.919  1.00  0.00     0.195 C 
HETATM    4  C7  UNL     1      23.358   3.819  52.963  1.00  0.00     0.110 C 
HETATM    5  N2  UNL     1      24.345   2.967  53.084  1.00  0.00    -0.246 NA
HETATM    6  C8  UNL     1      24.912   1.906  52.357  1.00  0.00     0.233 C 
HETATM    7  C10 UNL     1      24.345   1.625  51.020  1.00  0.00     0.099 C 
HETATM    8  C11 UNL     1      22.910   1.812  50.718  1.00  0.00     0.048 C 
HETATM    9  C12 UNL     1      21.986   1.533  51.873  1.00  0.00     0.026 C 
HETATM   10  C13 UNL     1      20.943   1.546  52.625  1.00  0.00    -0.021 C 
HETATM   11  C14 UNL     1      21.558   0.673  53.618  1.00  0.00    -0.006 C 
HETATM   12  C15 UNL     1      22.615  -0.058  53.988  1.00  0.00    -0.008 C 
HETATM   13  C16 UNL     1      23.664  -0.033  52.992  1.00  0.00     0.148 C 
HETATM   14  N3  UNL     1      24.819   0.709  53.134  1.00  0.00    -0.365 N 
HETATM   15  C17 UNL     1      25.738   0.396  54.115  1.00  0.00     0.148 C 
ENDROOT
BRANCH   1  16
HETATM   16  C4  UNL     1      22.446   3.410  48.651  1.00  0.00     0.083 C 
BRANCH  16  17
HETATM   17  C2  UNL     1      22.299   3.862  47.401  1.00  0.00     0.097 C 
HETATM   18  C3  UNL     1      22.436   5.318  47.225  1.00  0.00     0.050 C 
BRANCH  17  19
HETATM   19  O1  UNL     1      22.027   3.315  46.114  1.00  0.00    -0.381 OA
HETATM   20  C1  UNL     1      21.166   4.075  45.263  1.00  0.00     0.202 C 
ENDBRANCH  17  19
ENDBRANCH  16  17
ENDBRANCH   1  16
BRANCH   6  21
HETATM   21  O2  UNL     1      26.262   2.206  52.220  1.00  0.00    -0.347 OA
HETATM   22  C9  UNL     1      26.641   2.799  51.064  1.00  0.00     0.206 C 
ENDBRANCH   6  21
TORSDOF 4
ENDMDL
