MODEL 1
REMARK VINA RESULT:      -6.9      0.000      0.000
REMARK  8 active torsions:
REMARK  status: ('A' for Active; 'I' for Inactive)
REMARK    1  A    between atoms: C2_2  and  N1_3 
REMARK    2  A    between atoms: N1_3  and  C3_4 
REMARK    3  A    between atoms: C8_12  and  O1_13 
REMARK    4  A    between atoms: N4_16  and  O2_17 
REMARK    5  A    between atoms: O2_17  and  C11_18 
REMARK    6  A    between atoms: C11_18  and  C12_20 
REMARK    7  A    between atoms: C13_21  and  C14_22 
REMARK    8  A    between atoms: C14_22  and  N5_23 
ROOT
HETATM    1  C3  UNL     1      26.995   0.844  54.051  1.00  0.00     0.158 C 
HETATM    2  N2  UNL     1      26.237   0.607  55.109  1.00  0.00    -0.222 NA
HETATM    3  C4  UNL     1      25.858  -0.593  55.570  1.00  0.00     0.235 C 
HETATM    4  N3  UNL     1      24.800  -1.372  55.277  1.00  0.00    -0.247 NA
HETATM    5  C5  UNL     1      23.588  -0.875  54.977  1.00  0.00     0.167 C 
HETATM    6  S1  UNL     1      23.999  -0.528  53.363  1.00  0.00    -0.085 SA
HETATM    7  C6  UNL     1      24.329   0.996  52.699  1.00  0.00     0.013 C 
HETATM    8  C7  UNL     1      25.015   2.102  53.148  1.00  0.00    -0.005 C 
HETATM    9  C8  UNL     1      26.257   1.943  53.670  1.00  0.00     0.119 C 
HETATM   10  C9  UNL     1      24.495   3.493  53.105  1.00  0.00     0.064 C 
HETATM   11  C10 UNL     1      23.055   3.326  52.606  1.00  0.00     0.155 C 
HETATM   12  N4  UNL     1      23.083   2.569  51.422  1.00  0.00    -0.280 N 
HETATM   13  C17 UNL     1      23.860   1.414  51.352  1.00  0.00     0.197 C 
ENDROOT
BRANCH  12  14
HETATM   14  O2  UNL     1      22.146   2.776  50.492  1.00  0.00    -0.198 OA
BRANCH  14  15
HETATM   15  C11 UNL     1      22.495   2.903  49.156  1.00  0.00     0.304 C 
HETATM   16  O3  UNL     1      22.418   2.101  48.176  1.00  0.00    -0.258 OA
BRANCH  15  17
HETATM   17  C12 UNL     1      23.070   4.206  48.757  1.00  0.00     0.082 C 
HETATM   18  C13 UNL     1      24.243   4.638  49.192  1.00  0.00     0.009 C 
BRANCH  18  19
HETATM   19  C14 UNL     1      24.876   5.919  48.839  1.00  0.00     0.299 C 
BRANCH  19  20
HETATM   20  N5  UNL     1      25.476   6.474  50.032  1.00  0.00     0.083 N 
HETATM   21  C15 UNL     1      26.266   7.647  49.762  1.00  0.00     0.309 C 
HETATM   22  C16 UNL     1      24.431   6.749  51.016  1.00  0.00     0.309 C 
ENDBRANCH  19  20
ENDBRANCH  18  19
ENDBRANCH  15  17
ENDBRANCH  14  15
ENDBRANCH  12  14
BRANCH   9  23
HETATM   23  O1  UNL     1      27.176   2.928  53.981  1.00  0.00    -0.357 OA
HETATM   24  H9  UNL     1      26.999   3.913  53.973  1.00  0.00     0.218 HD
ENDBRANCH   9  23
BRANCH   1  25
HETATM   25  N1  UNL     1      28.131   0.305  53.415  1.00  0.00    -0.373 N 
HETATM   26  H6  UNL     1      27.920  -0.032  52.459  1.00  0.00     0.161 HD
BRANCH  25  27
HETATM   27  C2  UNL     1      29.453   0.212  53.985  1.00  0.00     0.117 C 
HETATM   28  C1  UNL     1      29.979  -1.179  53.714  1.00  0.00     0.026 C 
ENDBRANCH  25  27
ENDBRANCH   1  25
TORSDOF 8
ENDMDL
MODEL 2
REMARK VINA RESULT:      -6.8      2.616      7.136
REMARK  8 active torsions:
REMARK  status: ('A' for Active; 'I' for Inactive)
REMARK    1  A    between atoms: C2_2  and  N1_3 
REMARK    2  A    between atoms: N1_3  and  C3_4 
REMARK    3  A    between atoms: C8_12  and  O1_13 
REMARK    4  A    between atoms: N4_16  and  O2_17 
REMARK    5  A    between atoms: O2_17  and  C11_18 
REMARK    6  A    between atoms: C11_18  and  C12_20 
REMARK    7  A    between atoms: C13_21  and  C14_22 
REMARK    8  A    between atoms: C14_22  and  N5_23 
ROOT
HETATM    1  C3  UNL     1      25.613   6.921  49.812  1.00  0.00     0.158 C 
HETATM    2  N2  UNL     1      24.685   6.906  48.870  1.00  0.00    -0.222 NA
HETATM    3  C4  UNL     1      23.669   7.769  48.732  1.00  0.00     0.235 C 
HETATM    4  N3  UNL     1      22.422   7.773  49.240  1.00  0.00    -0.247 NA
HETATM    5  C5  UNL     1      21.713   6.651  49.445  1.00  0.00     0.167 C 
HETATM    6  S1  UNL     1      22.496   6.281  50.909  1.00  0.00    -0.085 SA
HETATM    7  C6  UNL     1      23.671   5.087  51.164  1.00  0.00     0.013 C 
HETATM    8  C7  UNL     1      24.751   4.643  50.435  1.00  0.00    -0.005 C 
HETATM    9  C8  UNL     1      25.627   5.549  49.931  1.00  0.00     0.119 C 
HETATM   10  C9  UNL     1      25.046   3.216  50.147  1.00  0.00     0.064 C 
HETATM   11  C10 UNL     1      23.831   2.474  50.715  1.00  0.00     0.155 C 
HETATM   12  N4  UNL     1      23.649   2.880  52.049  1.00  0.00    -0.280 N 
HETATM   13  C17 UNL     1      23.710   4.232  52.379  1.00  0.00     0.197 C 
ENDROOT
BRANCH  12  14
HETATM   14  O2  UNL     1      23.120   2.023  52.926  1.00  0.00    -0.198 OA
BRANCH  14  15
HETATM   15  C11 UNL     1      23.575   0.715  52.996  1.00  0.00     0.304 C 
HETATM   16  O3  UNL     1      23.003  -0.398  52.789  1.00  0.00    -0.258 OA
BRANCH  15  17
HETATM   17  C12 UNL     1      24.993   0.542  53.381  1.00  0.00     0.082 C 
HETATM   18  C13 UNL     1      25.936   0.200  52.518  1.00  0.00     0.009 C 
BRANCH  18  19
HETATM   19  C14 UNL     1      27.363   0.011  52.828  1.00  0.00     0.299 C 
BRANCH  19  20
HETATM   20  N5  UNL     1      27.706   0.871  53.938  1.00  0.00     0.083 N 
HETATM   21  C15 UNL     1      28.563   0.225  54.897  1.00  0.00     0.309 C 
HETATM   22  C16 UNL     1      28.308   2.101  53.428  1.00  0.00     0.309 C 
ENDBRANCH  19  20
ENDBRANCH  18  19
ENDBRANCH  15  17
ENDBRANCH  14  15
ENDBRANCH  12  14
BRANCH   9  23
HETATM   23  O1  UNL     1      26.861   5.304  49.359  1.00  0.00    -0.357 OA
HETATM   24  H9  UNL     1      27.113   4.481  48.847  1.00  0.00     0.218 HD
ENDBRANCH   9  23
BRANCH   1  25
HETATM   25  N1  UNL     1      26.386   7.858  50.528  1.00  0.00    -0.373 N 
HETATM   26  H6  UNL     1      26.186   7.834  51.543  1.00  0.00     0.161 HD
BRANCH  25  27
HETATM   27  C2  UNL     1      27.355   8.762  49.958  1.00  0.00     0.117 C 
HETATM   28  C1  UNL     1      26.601   9.895  49.299  1.00  0.00     0.026 C 
ENDBRANCH  25  27
ENDBRANCH   1  25
TORSDOF 8
ENDMDL
MODEL 3
REMARK VINA RESULT:      -6.8      1.643      1.918
REMARK  8 active torsions:
REMARK  status: ('A' for Active; 'I' for Inactive)
REMARK    1  A    between atoms: C2_2  and  N1_3 
REMARK    2  A    between atoms: N1_3  and  C3_4 
REMARK    3  A    between atoms: C8_12  and  O1_13 
REMARK    4  A    between atoms: N4_16  and  O2_17 
REMARK    5  A    between atoms: O2_17  and  C11_18 
REMARK    6  A    between atoms: C11_18  and  C12_20 
REMARK    7  A    between atoms: C13_21  and  C14_22 
REMARK    8  A    between atoms: C14_22  and  N5_23 
ROOT
HETATM    1  C3  UNL     1      25.676  -0.483  54.277  1.00  0.00     0.158 C 
HETATM    2  N2  UNL     1      24.776  -0.392  55.242  1.00  0.00    -0.222 NA
HETATM    3  C4  UNL     1      23.892  -1.333  55.604  1.00  0.00     0.235 C 
HETATM    4  N3  UNL     1      22.647  -1.605  55.171  1.00  0.00    -0.247 NA
HETATM    5  C5  UNL     1      21.785  -0.652  54.778  1.00  0.00     0.167 C 
HETATM    6  S1  UNL     1      22.476  -0.497  53.232  1.00  0.00    -0.085 SA
HETATM    7  C6  UNL     1      23.470   0.760  52.680  1.00  0.00     0.013 C 
HETATM    8  C7  UNL     1      24.494   1.483  53.248  1.00  0.00    -0.005 C 
HETATM    9  C8  UNL     1      25.498   0.824  53.881  1.00  0.00     0.119 C 
HETATM   10  C9  UNL     1      24.596   2.965  53.224  1.00  0.00     0.064 C 
HETATM   11  C10 UNL     1      23.278   3.408  52.579  1.00  0.00     0.155 C 
HETATM   12  N4  UNL     1      23.124   2.713  51.368  1.00  0.00    -0.280 N 
HETATM   13  C17 UNL     1      23.363   1.341  51.316  1.00  0.00     0.197 C 
ENDROOT
BRANCH  12  14
HETATM   14  O2  UNL     1      22.462   3.292  50.362  1.00  0.00    -0.198 OA
BRANCH  14  15
HETATM   15  C11 UNL     1      23.029   4.343  49.657  1.00  0.00     0.304 C 
HETATM   16  O3  UNL     1      22.597   5.496  49.352  1.00  0.00    -0.258 OA
BRANCH  15  17
HETATM   17  C12 UNL     1      24.400   4.117  49.148  1.00  0.00     0.082 C 
HETATM   18  C13 UNL     1      25.420   4.899  49.461  1.00  0.00     0.009 C 
BRANCH  18  19
HETATM   19  C14 UNL     1      26.807   4.737  48.994  1.00  0.00     0.299 C 
BRANCH  19  20
HETATM   20  N5  UNL     1      27.383   6.051  48.812  1.00  0.00     0.083 N 
HETATM   21  C15 UNL     1      28.638   6.014  48.108  1.00  0.00     0.309 C 
HETATM   22  C16 UNL     1      26.416   6.912  48.135  1.00  0.00     0.309 C 
ENDBRANCH  19  20
ENDBRANCH  18  19
ENDBRANCH  15  17
ENDBRANCH  14  15
ENDBRANCH  12  14
BRANCH   9  23
HETATM   23  O1  UNL     1      26.699   1.342  54.328  1.00  0.00    -0.357 OA
HETATM   24  H9  UNL     1      27.292   1.966  53.817  1.00  0.00     0.218 HD
ENDBRANCH   9  23
BRANCH   1  25
HETATM   25  N1  UNL     1      26.554  -1.439  53.729  1.00  0.00    -0.373 N 
HETATM   26  H6  UNL     1      26.424  -2.375  54.150  1.00  0.00     0.161 HD
BRANCH  25  27
HETATM   27  C2  UNL     1      27.535  -1.191  52.701  1.00  0.00     0.117 C 
HETATM   28  C1  UNL     1      28.900  -1.197  53.351  1.00  0.00     0.026 C 
ENDBRANCH  25  27
ENDBRANCH   1  25
TORSDOF 8
ENDMDL
MODEL 4
REMARK VINA RESULT:      -6.8      2.400      4.472
REMARK  8 active torsions:
REMARK  status: ('A' for Active; 'I' for Inactive)
REMARK    1  A    between atoms: C2_2  and  N1_3 
REMARK    2  A    between atoms: N1_3  and  C3_4 
REMARK    3  A    between atoms: C8_12  and  O1_13 
REMARK    4  A    between atoms: N4_16  and  O2_17 
REMARK    5  A    between atoms: O2_17  and  C11_18 
REMARK    6  A    between atoms: C11_18  and  C12_20 
REMARK    7  A    between atoms: C13_21  and  C14_22 
REMARK    8  A    between atoms: C14_22  and  N5_23 
ROOT
HETATM    1  C3  UNL     1      26.942   0.813  53.899  1.00  0.00     0.158 C 
HETATM    2  N2  UNL     1      26.277   0.581  55.019  1.00  0.00    -0.222 NA
HETATM    3  C4  UNL     1      25.957  -0.617  55.527  1.00  0.00     0.235 C 
HETATM    4  N3  UNL     1      24.890  -1.415  55.334  1.00  0.00    -0.247 NA
HETATM    5  C5  UNL     1      23.650  -0.941  55.128  1.00  0.00     0.167 C 
HETATM    6  S1  UNL     1      23.922  -0.613  53.481  1.00  0.00    -0.085 SA
HETATM    7  C6  UNL     1      24.171   0.905  52.770  1.00  0.00     0.013 C 
HETATM    8  C7  UNL     1      24.875   2.028  53.145  1.00  0.00    -0.005 C 
HETATM    9  C8  UNL     1      26.158   1.895  53.565  1.00  0.00     0.119 C 
HETATM   10  C9  UNL     1      24.331   3.410  53.125  1.00  0.00     0.064 C 
HETATM   11  C10 UNL     1      22.857   3.215  52.750  1.00  0.00     0.155 C 
HETATM   12  N4  UNL     1      22.800   2.440  51.578  1.00  0.00    -0.280 N 
HETATM   13  C17 UNL     1      23.586   1.295  51.461  1.00  0.00     0.197 C 
ENDROOT
BRANCH  12  14
HETATM   14  O2  UNL     1      21.787   2.619  50.726  1.00  0.00    -0.198 OA
BRANCH  14  15
HETATM   15  C11 UNL     1      21.376   1.589  49.893  1.00  0.00     0.304 C 
HETATM   16  O3  UNL     1      21.908   1.056  48.872  1.00  0.00    -0.258 OA
BRANCH  15  17
HETATM   17  C12 UNL     1      20.076   0.967  50.224  1.00  0.00     0.082 C 
HETATM   18  C13 UNL     1      19.812   0.439  51.408  1.00  0.00     0.009 C 
BRANCH  18  19
HETATM   19  C14 UNL     1      18.545  -0.195  51.808  1.00  0.00     0.299 C 
BRANCH  19  20
HETATM   20  N5  UNL     1      18.669  -0.632  53.181  1.00  0.00     0.083 N 
HETATM   21  C15 UNL     1      17.979  -1.870  53.435  1.00  0.00     0.309 C 
HETATM   22  C16 UNL     1      20.083  -0.727  53.533  1.00  0.00     0.309 C 
ENDBRANCH  19  20
ENDBRANCH  18  19
ENDBRANCH  15  17
ENDBRANCH  14  15
ENDBRANCH  12  14
BRANCH   9  23
HETATM   23  O1  UNL     1      27.083   2.898  53.784  1.00  0.00    -0.357 OA
HETATM   24  H9  UNL     1      27.496   3.476  53.078  1.00  0.00     0.218 HD
ENDBRANCH   9  23
BRANCH   1  25
HETATM   25  N1  UNL     1      28.030   0.280  53.179  1.00  0.00    -0.373 N 
HETATM   26  H6  UNL     1      28.477   0.986  52.568  1.00  0.00     0.161 HD
BRANCH  25  27
HETATM   27  C2  UNL     1      28.504  -1.081  53.250  1.00  0.00     0.117 C 
HETATM   28  C1  UNL     1      29.916  -1.052  53.788  1.00  0.00     0.026 C 
ENDBRANCH  25  27
ENDBRANCH   1  25
TORSDOF 8
ENDMDL
MODEL 5
REMARK VINA RESULT:      -6.5      3.066      7.606
REMARK  8 active torsions:
REMARK  status: ('A' for Active; 'I' for Inactive)
REMARK    1  A    between atoms: C2_2  and  N1_3 
REMARK    2  A    between atoms: N1_3  and  C3_4 
REMARK    3  A    between atoms: C8_12  and  O1_13 
REMARK    4  A    between atoms: N4_16  and  O2_17 
REMARK    5  A    between atoms: O2_17  and  C11_18 
REMARK    6  A    between atoms: C11_18  and  C12_20 
REMARK    7  A    between atoms: C13_21  and  C14_22 
REMARK    8  A    between atoms: C14_22  and  N5_23 
ROOT
HETATM    1  C3  UNL     1      27.693   7.223  48.643  1.00  0.00     0.158 C 
HETATM    2  N2  UNL     1      27.152   7.164  47.438  1.00  0.00    -0.222 NA
HETATM    3  C4  UNL     1      26.526   8.157  46.791  1.00  0.00     0.235 C 
HETATM    4  N3  UNL     1      25.239   8.552  46.787  1.00  0.00    -0.247 NA
HETATM    5  C5  UNL     1      24.211   7.693  46.889  1.00  0.00     0.167 C 
HETATM    6  S1  UNL     1      24.344   7.551  48.579  1.00  0.00    -0.085 SA
HETATM    7  C6  UNL     1      24.981   6.242  49.447  1.00  0.00     0.013 C 
HETATM    8  C7  UNL     1      26.062   5.411  49.258  1.00  0.00    -0.005 C 
HETATM    9  C8  UNL     1      27.274   5.955  48.980  1.00  0.00     0.119 C 
HETATM   10  C9  UNL     1      26.011   3.929  49.338  1.00  0.00     0.064 C 
HETATM   11  C10 UNL     1      24.519   3.627  49.521  1.00  0.00     0.155 C 
HETATM   12  N4  UNL     1      24.045   4.387  50.604  1.00  0.00    -0.280 N 
HETATM   13  C17 UNL     1      24.383   5.735  50.709  1.00  0.00     0.197 C 
ENDROOT
BRANCH  12  14
HETATM   14  O2  UNL     1      23.041   3.912  51.345  1.00  0.00    -0.198 OA
BRANCH  14  15
HETATM   15  C11 UNL     1      23.212   2.772  52.116  1.00  0.00     0.304 C 
HETATM   16  O3  UNL     1      22.547   1.695  52.204  1.00  0.00    -0.258 OA
BRANCH  15  17
HETATM   17  C12 UNL     1      24.382   2.771  53.021  1.00  0.00     0.082 C 
HETATM   18  C13 UNL     1      25.229   1.758  53.100  1.00  0.00     0.009 C 
BRANCH  18  19
HETATM   19  C14 UNL     1      26.411   1.686  53.974  1.00  0.00     0.299 C 
BRANCH  19  20
HETATM   20  N5  UNL     1      27.416   0.881  53.316  1.00  0.00     0.083 N 
HETATM   21  C15 UNL     1      28.168   0.070  54.238  1.00  0.00     0.309 C 
HETATM   22  C16 UNL     1      26.782   0.066  52.283  1.00  0.00     0.309 C 
ENDBRANCH  19  20
ENDBRANCH  18  19
ENDBRANCH  15  17
ENDBRANCH  14  15
ENDBRANCH  12  14
BRANCH   9  23
HETATM   23  O1  UNL     1      28.501   5.319  48.960  1.00  0.00    -0.357 OA
HETATM   24  H9  UNL     1      28.943   4.928  48.151  1.00  0.00     0.218 HD
ENDBRANCH   9  23
BRANCH   1  25
HETATM   25  N1  UNL     1      28.431   8.127  49.434  1.00  0.00    -0.373 N 
HETATM   26  H6  UNL     1      28.105   8.140  50.417  1.00  0.00     0.161 HD
BRANCH  25  27
HETATM   27  C2  UNL     1      29.519   8.955  48.976  1.00  0.00     0.117 C 
HETATM   28  C1  UNL     1      30.781   8.122  49.010  1.00  0.00     0.026 C 
ENDBRANCH  25  27
ENDBRANCH   1  25
TORSDOF 8
ENDMDL
MODEL 6
REMARK VINA RESULT:      -6.4      6.658     10.318
REMARK  8 active torsions:
REMARK  status: ('A' for Active; 'I' for Inactive)
REMARK    1  A    between atoms: C2_2  and  N1_3 
REMARK    2  A    between atoms: N1_3  and  C3_4 
REMARK    3  A    between atoms: C8_12  and  O1_13 
REMARK    4  A    between atoms: N4_16  and  O2_17 
REMARK    5  A    between atoms: O2_17  and  C11_18 
REMARK    6  A    between atoms: C11_18  and  C12_20 
REMARK    7  A    between atoms: C13_21  and  C14_22 
REMARK    8  A    between atoms: C14_22  and  N5_23 
ROOT
HETATM    1  C3  UNL     1      26.507   8.536  49.966  1.00  0.00     0.158 C 
HETATM    2  N2  UNL     1      26.062   9.465  49.135  1.00  0.00    -0.222 NA
HETATM    3  C4  UNL     1      25.188   9.292  48.133  1.00  0.00     0.235 C 
HETATM    4  N3  UNL     1      25.362   8.950  46.843  1.00  0.00    -0.247 NA
HETATM    5  C5  UNL     1      26.428   9.336  46.122  1.00  0.00     0.167 C 
HETATM    6  S1  UNL     1      27.444   8.130  46.759  1.00  0.00    -0.085 SA
HETATM    7  C6  UNL     1      28.672   8.332  47.909  1.00  0.00     0.013 C 
HETATM    8  C7  UNL     1      28.786   9.083  49.058  1.00  0.00    -0.005 C 
HETATM    9  C8  UNL     1      27.786   9.045  49.975  1.00  0.00     0.119 C 
HETATM   10  C9  UNL     1      29.945   9.953  49.386  1.00  0.00     0.064 C 
HETATM   11  C10 UNL     1      30.813   9.891  48.125  1.00  0.00     0.155 C 
HETATM   12  N4  UNL     1      31.039   8.539  47.810  1.00  0.00    -0.280 N 
HETATM   13  C17 UNL     1      29.981   7.633  47.832  1.00  0.00     0.197 C 
ENDROOT
BRANCH  12  14
HETATM   14  O2  UNL     1      32.176   8.192  47.201  1.00  0.00    -0.198 OA
BRANCH  14  15
HETATM   15  C11 UNL     1      32.176   7.829  45.862  1.00  0.00     0.304 C 
HETATM   16  O3  UNL     1      31.722   8.401  44.825  1.00  0.00    -0.258 OA
BRANCH  15  17
HETATM   17  C12 UNL     1      32.821   6.537  45.541  1.00  0.00     0.082 C 
HETATM   18  C13 UNL     1      33.704   5.957  46.337  1.00  0.00     0.009 C 
BRANCH  18  19
HETATM   19  C14 UNL     1      34.384   4.676  46.085  1.00  0.00     0.299 C 
BRANCH  19  20
HETATM   20  N5  UNL     1      34.766   4.104  47.357  1.00  0.00     0.083 N 
HETATM   21  C15 UNL     1      34.841   5.086  48.407  1.00  0.00     0.309 C 
HETATM   22  C16 UNL     1      33.842   3.026  47.699  1.00  0.00     0.309 C 
ENDBRANCH  19  20
ENDBRANCH  18  19
ENDBRANCH  15  17
ENDBRANCH  14  15
ENDBRANCH  12  14
BRANCH   9  23
HETATM   23  O1  UNL     1      27.799   9.553  51.260  1.00  0.00    -0.357 OA
HETATM   24  H9  UNL     1      28.118   9.068  52.076  1.00  0.00     0.218 HD
ENDBRANCH   9  23
BRANCH   1  25
HETATM   25  N1  UNL     1      26.021   7.410  50.660  1.00  0.00    -0.373 N 
HETATM   26  H6  UNL     1      26.201   7.471  51.678  1.00  0.00     0.161 HD
BRANCH  25  27
HETATM   27  C2  UNL     1      25.345   6.281  50.069  1.00  0.00     0.117 C 
HETATM   28  C1  UNL     1      26.333   5.564  49.178  1.00  0.00     0.026 C 
ENDBRANCH  25  27
ENDBRANCH   1  25
TORSDOF 8
ENDMDL
MODEL 7
REMARK VINA RESULT:      -6.3      3.526      8.074
REMARK  8 active torsions:
REMARK  status: ('A' for Active; 'I' for Inactive)
REMARK    1  A    between atoms: C2_2  and  N1_3 
REMARK    2  A    between atoms: N1_3  and  C3_4 
REMARK    3  A    between atoms: C8_12  and  O1_13 
REMARK    4  A    between atoms: N4_16  and  O2_17 
REMARK    5  A    between atoms: O2_17  and  C11_18 
REMARK    6  A    between atoms: C11_18  and  C12_20 
REMARK    7  A    between atoms: C13_21  and  C14_22 
REMARK    8  A    between atoms: C14_22  and  N5_23 
ROOT
HETATM    1  C3  UNL     1      27.778   7.237  48.622  1.00  0.00     0.158 C 
HETATM    2  N2  UNL     1      27.173   7.179  47.447  1.00  0.00    -0.222 NA
HETATM    3  C4  UNL     1      26.423   8.137  46.884  1.00  0.00     0.235 C 
HETATM    4  N3  UNL     1      25.108   8.411  46.971  1.00  0.00    -0.247 NA
HETATM    5  C5  UNL     1      24.169   7.458  47.090  1.00  0.00     0.167 C 
HETATM    6  S1  UNL     1      24.415   7.258  48.761  1.00  0.00    -0.085 SA
HETATM    7  C6  UNL     1      25.218   5.978  49.529  1.00  0.00     0.013 C 
HETATM    8  C7  UNL     1      26.356   5.258  49.241  1.00  0.00    -0.005 C 
HETATM    9  C8  UNL     1      27.495   5.923  48.921  1.00  0.00     0.119 C 
HETATM   10  C9  UNL     1      26.442   3.775  49.252  1.00  0.00     0.064 C 
HETATM   11  C10 UNL     1      24.997   3.330  49.504  1.00  0.00     0.155 C 
HETATM   12  N4  UNL     1      24.523   3.997  50.647  1.00  0.00    -0.280 N 
HETATM   13  C17 UNL     1      24.744   5.365  50.797  1.00  0.00     0.197 C 
ENDROOT
BRANCH  12  14
HETATM   14  O2  UNL     1      23.611   3.401  51.420  1.00  0.00    -0.198 OA
BRANCH  14  15
HETATM   15  C11 UNL     1      23.990   2.754  52.586  1.00  0.00     0.304 C 
HETATM   16  O3  UNL     1      24.502   3.177  53.667  1.00  0.00    -0.258 OA
BRANCH  15  17
HETATM   17  C12 UNL     1      23.773   1.291  52.617  1.00  0.00     0.082 C 
HETATM   18  C13 UNL     1      22.603   0.744  52.905  1.00  0.00     0.009 C 
BRANCH  18  19
HETATM   19  C14 UNL     1      22.312  -0.698  52.955  1.00  0.00     0.299 C 
BRANCH  19  20
HETATM   20  N5  UNL     1      21.811  -1.017  54.273  1.00  0.00     0.083 N 
HETATM   21  C15 UNL     1      22.864  -1.303  55.213  1.00  0.00     0.309 C 
HETATM   22  C16 UNL     1      20.958   0.072  54.742  1.00  0.00     0.309 C 
ENDBRANCH  19  20
ENDBRANCH  18  19
ENDBRANCH  15  17
ENDBRANCH  14  15
ENDBRANCH  12  14
BRANCH   9  23
HETATM   23  O1  UNL     1      28.770   5.403  48.802  1.00  0.00    -0.357 OA
HETATM   24  H9  UNL     1      29.053   4.482  49.074  1.00  0.00     0.218 HD
ENDBRANCH   9  23
BRANCH   1  25
HETATM   25  N1  UNL     1      28.478   8.170  49.413  1.00  0.00    -0.373 N 
HETATM   26  H6  UNL     1      29.401   7.812  49.714  1.00  0.00     0.161 HD
BRANCH  25  27
HETATM   27  C2  UNL     1      28.007   9.482  49.784  1.00  0.00     0.117 C 
HETATM   28  C1  UNL     1      28.816  10.501  49.013  1.00  0.00     0.026 C 
ENDBRANCH  25  27
ENDBRANCH   1  25
TORSDOF 8
ENDMDL
MODEL 8
REMARK VINA RESULT:      -5.9      3.242      4.432
REMARK  8 active torsions:
REMARK  status: ('A' for Active; 'I' for Inactive)
REMARK    1  A    between atoms: C2_2  and  N1_3 
REMARK    2  A    between atoms: N1_3  and  C3_4 
REMARK    3  A    between atoms: C8_12  and  O1_13 
REMARK    4  A    between atoms: N4_16  and  O2_17 
REMARK    5  A    between atoms: O2_17  and  C11_18 
REMARK    6  A    between atoms: C11_18  and  C12_20 
REMARK    7  A    between atoms: C13_21  and  C14_22 
REMARK    8  A    between atoms: C14_22  and  N5_23 
ROOT
HETATM    1  C3  UNL     1      25.252   0.754  52.891  1.00  0.00     0.158 C 
HETATM    2  N2  UNL     1      24.264   0.412  53.701  1.00  0.00    -0.222 NA
HETATM    3  C4  UNL     1      23.477  -0.668  53.593  1.00  0.00     0.235 C 
HETATM    4  N3  UNL     1      22.321  -0.872  52.934  1.00  0.00    -0.247 NA
HETATM    5  C5  UNL     1      21.384   0.081  52.790  1.00  0.00     0.167 C 
HETATM    6  S1  UNL     1      22.188   0.843  51.500  1.00  0.00    -0.085 SA
HETATM    7  C6  UNL     1      23.060   2.295  51.555  1.00  0.00     0.013 C 
HETATM    8  C7  UNL     1      23.929   2.849  52.469  1.00  0.00    -0.005 C 
HETATM    9  C8  UNL     1      24.946   2.095  52.956  1.00  0.00     0.119 C 
HETATM   10  C9  UNL     1      23.844   4.243  52.977  1.00  0.00     0.064 C 
HETATM   11  C10 UNL     1      22.544   4.774  52.362  1.00  0.00     0.155 C 
HETATM   12  N4  UNL     1      22.590   4.553  50.974  1.00  0.00    -0.280 N 
HETATM   13  C17 UNL     1      23.005   3.318  50.479  1.00  0.00     0.197 C 
ENDROOT
BRANCH  12  14
HETATM   14  O2  UNL     1      21.954   5.397  50.157  1.00  0.00    -0.198 OA
BRANCH  14  15
HETATM   15  C11 UNL     1      20.776   5.018  49.530  1.00  0.00     0.304 C 
HETATM   16  O3  UNL     1      20.467   4.885  48.307  1.00  0.00    -0.258 OA
BRANCH  15  17
HETATM   17  C12 UNL     1      19.640   4.699  50.422  1.00  0.00     0.082 C 
HETATM   18  C13 UNL     1      19.210   3.464  50.625  1.00  0.00     0.009 C 
BRANCH  18  19
HETATM   19  C14 UNL     1      18.090   3.071  51.495  1.00  0.00     0.299 C 
BRANCH  19  20
HETATM   20  N5  UNL     1      16.874   3.640  50.957  1.00  0.00     0.083 N 
HETATM   21  C15 UNL     1      16.094   2.684  50.215  1.00  0.00     0.309 C 
HETATM   22  C16 UNL     1      16.097   4.235  52.042  1.00  0.00     0.309 C 
ENDBRANCH  19  20
ENDBRANCH  18  19
ENDBRANCH  15  17
ENDBRANCH  14  15
ENDBRANCH  12  14
BRANCH   9  23
HETATM   23  O1  UNL     1      26.026   2.518  53.708  1.00  0.00    -0.357 OA
HETATM   24  H9  UNL     1      26.835   2.990  53.354  1.00  0.00     0.218 HD
ENDBRANCH   9  23
BRANCH   1  25
HETATM   25  N1  UNL     1      26.291   0.140  52.162  1.00  0.00    -0.373 N 
HETATM   26  H6  UNL     1      26.424   0.573  51.231  1.00  0.00     0.161 HD
BRANCH  25  27
HETATM   27  C2  UNL     1      27.103  -0.962  52.617  1.00  0.00     0.117 C 
HETATM   28  C1  UNL     1      28.316  -0.388  53.313  1.00  0.00     0.026 C 
ENDBRANCH  25  27
ENDBRANCH   1  25
TORSDOF 8
ENDMDL
MODEL 9
REMARK VINA RESULT:      -5.9      4.125      7.652
REMARK  8 active torsions:
REMARK  status: ('A' for Active; 'I' for Inactive)
REMARK    1  A    between atoms: C2_2  and  N1_3 
REMARK    2  A    between atoms: N1_3  and  C3_4 
REMARK    3  A    between atoms: C8_12  and  O1_13 
REMARK    4  A    between atoms: N4_16  and  O2_17 
REMARK    5  A    between atoms: O2_17  and  C11_18 
REMARK    6  A    between atoms: C11_18  and  C12_20 
REMARK    7  A    between atoms: C13_21  and  C14_22 
REMARK    8  A    between atoms: C14_22  and  N5_23 
ROOT
HETATM    1  C3  UNL     1      17.703   0.796  51.215  1.00  0.00     0.158 C 
HETATM    2  N2  UNL     1      18.149  -0.417  51.496  1.00  0.00    -0.222 NA
HETATM    3  C4  UNL     1      18.106  -1.030  52.687  1.00  0.00     0.235 C 
HETATM    4  N3  UNL     1      18.965  -1.033  53.724  1.00  0.00    -0.247 NA
HETATM    5  C5  UNL     1      20.299  -0.978  53.568  1.00  0.00     0.167 C 
HETATM    6  S1  UNL     1      20.320   0.706  53.330  1.00  0.00    -0.085 SA
HETATM    7  C6  UNL     1      20.533   1.527  51.863  1.00  0.00     0.013 C 
HETATM    8  C7  UNL     1      20.079   1.317  50.580  1.00  0.00    -0.005 C 
HETATM    9  C8  UNL     1      18.759   1.075  50.376  1.00  0.00     0.119 C 
HETATM   10  C9  UNL     1      20.937   1.335  49.367  1.00  0.00     0.064 C 
HETATM   11  C10 UNL     1      22.355   1.488  49.929  1.00  0.00     0.155 C 
HETATM   12  N4  UNL     1      22.369   2.596  50.795  1.00  0.00    -0.280 N 
HETATM   13  C17 UNL     1      21.352   2.760  51.733  1.00  0.00     0.197 C 
ENDROOT
BRANCH  12  14
HETATM   14  O2  UNL     1      23.494   3.305  50.928  1.00  0.00    -0.198 OA
BRANCH  14  15
HETATM   15  C11 UNL     1      24.303   3.140  52.043  1.00  0.00     0.304 C 
HETATM   16  O3  UNL     1      24.239   3.610  53.219  1.00  0.00    -0.258 OA
BRANCH  15  17
HETATM   17  C12 UNL     1      25.474   2.253  51.868  1.00  0.00     0.082 C 
HETATM   18  C13 UNL     1      25.462   0.973  52.202  1.00  0.00     0.009 C 
BRANCH  18  19
HETATM   19  C14 UNL     1      26.586   0.032  52.058  1.00  0.00     0.299 C 
BRANCH  19  20
HETATM   20  N5  UNL     1      26.788  -0.634  53.325  1.00  0.00     0.083 N 
HETATM   21  C15 UNL     1      27.794   0.004  54.133  1.00  0.00     0.309 C 
HETATM   22  C16 UNL     1      25.513  -0.724  54.033  1.00  0.00     0.309 C 
ENDBRANCH  19  20
ENDBRANCH  18  19
ENDBRANCH  15  17
ENDBRANCH  14  15
ENDBRANCH  12  14
BRANCH   9  23
HETATM   23  O1  UNL     1      18.082   1.044  49.172  1.00  0.00    -0.357 OA
HETATM   24  H9  UNL     1      18.369   0.544  48.354  1.00  0.00     0.218 HD
ENDBRANCH   9  23
BRANCH   1  25
HETATM   25  N1  UNL     1      16.617   1.633  51.543  1.00  0.00    -0.373 N 
HETATM   26  H6  UNL     1      16.926   2.570  51.856  1.00  0.00     0.161 HD
BRANCH  25  27
HETATM   27  C2  UNL     1      15.222   1.272  51.467  1.00  0.00     0.117 C 
HETATM   28  C1  UNL     1      14.565   1.686  52.764  1.00  0.00     0.026 C 
ENDBRANCH  25  27
ENDBRANCH   1  25
TORSDOF 8
ENDMDL
