MODEL 1
REMARK VINA RESULT:      -9.4      0.000      0.000
REMARK  2 active torsions:
REMARK  status: ('A' for Active; 'I' for Inactive)
REMARK    1  A    between atoms: C8_10  and  C9_11 
REMARK    2  A    between atoms: C9_11  and  C10_12 
ROOT
HETATM    1  O1  UNL     1      22.688  -1.645  55.710  1.00  0.00    -0.267 OA
HETATM    2  C1  UNL     1      22.177  -1.140  54.685  1.00  0.00     0.256 A 
HETATM    3  N1  UNL     1      20.764  -1.267  54.623  1.00  0.00    -0.322 N 
HETATM    4  C2  UNL     1      20.330  -0.657  53.421  1.00  0.00     0.046 A 
HETATM    5  C3  UNL     1      19.079  -0.470  52.824  1.00  0.00     0.030 A 
HETATM    6  C4  UNL     1      18.842   0.161  51.626  1.00  0.00     0.002 A 
HETATM    7  C5  UNL     1      19.924   0.662  50.938  1.00  0.00     0.001 A 
HETATM    8  C6  UNL     1      21.179   0.509  51.476  1.00  0.00     0.014 A 
HETATM    9  C7  UNL     1      21.354  -0.134  52.682  1.00  0.00     0.006 A 
HETATM   10  C8  UNL     1      22.544  -0.431  53.470  1.00  0.00     0.043 A 
HETATM   11  H1  UNL     1      20.057  -1.698  55.259  1.00  0.00     0.169 HD
ENDROOT
BRANCH  10  12
HETATM   12  C9  UNL     1      23.773  -0.153  53.222  1.00  0.00     0.024 C 
BRANCH  12  13
HETATM   13  C10 UNL     1      25.097   0.295  53.348  1.00  0.00     0.071 A 
HETATM   14  C11 UNL     1      24.523   1.520  53.095  1.00  0.00     0.052 A 
HETATM   15  C12 UNL     1      25.848   1.820  53.245  1.00  0.00     0.068 A 
HETATM   16  C13 UNL     1      26.981   2.055  53.384  1.00  0.00    -0.168 C 
HETATM   17  C14 UNL     1      28.396   2.324  53.565  1.00  0.00     0.081 C 
HETATM   18  C15 UNL     1      29.068   0.934  53.642  1.00  0.00     0.013 C 
HETATM   19  C16 UNL     1      28.481   0.155  54.827  1.00  0.00     0.020 C 
HETATM   20  C17 UNL     1      26.979   0.189  54.831  1.00  0.00     0.115 C 
HETATM   21  N2  UNL     1      26.422  -0.229  53.591  1.00  0.00    -0.407 N 
HETATM   22  H16 UNL     1      26.420  -0.724  52.704  1.00  0.00     0.154 HD
ENDBRANCH  12  13
ENDBRANCH  10  12
TORSDOF 2
ENDMDL
MODEL 2
REMARK VINA RESULT:      -9.3      0.950      1.577
REMARK  2 active torsions:
REMARK  status: ('A' for Active; 'I' for Inactive)
REMARK    1  A    between atoms: C8_10  and  C9_11 
REMARK    2  A    between atoms: C9_11  and  C10_12 
ROOT
HETATM    1  O1  UNL     1      22.963  -1.663  55.843  1.00  0.00    -0.267 OA
HETATM    2  C1  UNL     1      22.541  -1.146  54.783  1.00  0.00     0.256 A 
HETATM    3  N1  UNL     1      21.125  -1.141  54.668  1.00  0.00    -0.322 N 
HETATM    4  C2  UNL     1      20.797  -0.533  53.433  1.00  0.00     0.046 A 
HETATM    5  C3  UNL     1      19.593  -0.249  52.780  1.00  0.00     0.030 A 
HETATM    6  C4  UNL     1      19.461   0.362  51.556  1.00  0.00     0.002 A 
HETATM    7  C5  UNL     1      20.611   0.735  50.898  1.00  0.00     0.001 A 
HETATM    8  C6  UNL     1      21.825   0.482  51.490  1.00  0.00     0.014 A 
HETATM    9  C7  UNL     1      21.893  -0.134  52.720  1.00  0.00     0.006 A 
HETATM   10  C8  UNL     1      23.019  -0.516  53.564  1.00  0.00     0.043 A 
HETATM   11  H1  UNL     1      20.357  -1.482  55.289  1.00  0.00     0.169 HD
ENDROOT
BRANCH  10  12
HETATM   12  C9  UNL     1      24.277  -0.364  53.358  1.00  0.00     0.024 C 
BRANCH  12  13
HETATM   13  C10 UNL     1      25.629  -0.023  53.517  1.00  0.00     0.071 A 
HETATM   14  C11 UNL     1      25.827  -1.259  52.943  1.00  0.00     0.052 A 
HETATM   15  C12 UNL     1      27.099  -0.802  53.151  1.00  0.00     0.068 A 
HETATM   16  C13 UNL     1      28.175  -0.392  53.331  1.00  0.00    -0.168 C 
HETATM   17  C14 UNL     1      29.505   0.144  53.561  1.00  0.00     0.081 C 
HETATM   18  C15 UNL     1      29.288   1.430  54.389  1.00  0.00     0.013 C 
HETATM   19  C16 UNL     1      28.414   2.405  53.588  1.00  0.00     0.020 C 
HETATM   20  C17 UNL     1      27.189   1.734  53.036  1.00  0.00     0.115 C 
HETATM   21  N2  UNL     1      26.444   1.051  54.037  1.00  0.00    -0.407 N 
HETATM   22  H16 UNL     1      26.131   0.869  54.985  1.00  0.00     0.154 HD
ENDBRANCH  12  13
ENDBRANCH  10  12
TORSDOF 2
ENDMDL
MODEL 3
REMARK VINA RESULT:      -8.8      2.988      4.368
REMARK  2 active torsions:
REMARK  status: ('A' for Active; 'I' for Inactive)
REMARK    1  A    between atoms: C8_10  and  C9_11 
REMARK    2  A    between atoms: C9_11  and  C10_12 
ROOT
HETATM    1  O1  UNL     1      27.046  -0.196  54.886  1.00  0.00    -0.267 OA
HETATM    2  C1  UNL     1      25.852  -0.203  54.510  1.00  0.00     0.256 A 
HETATM    3  N1  UNL     1      25.014  -1.066  55.265  1.00  0.00    -0.322 N 
HETATM    4  C2  UNL     1      23.707  -0.971  54.731  1.00  0.00     0.046 A 
HETATM    5  C3  UNL     1      22.483  -1.569  55.048  1.00  0.00     0.030 A 
HETATM    6  C4  UNL     1      21.287  -1.353  54.406  1.00  0.00     0.002 A 
HETATM    7  C5  UNL     1      21.275  -0.469  53.350  1.00  0.00     0.001 A 
HETATM    8  C6  UNL     1      22.448   0.150  52.992  1.00  0.00     0.014 A 
HETATM    9  C7  UNL     1      23.617  -0.108  53.675  1.00  0.00     0.006 A 
HETATM   10  C8  UNL     1      24.976   0.395  53.515  1.00  0.00     0.043 A 
HETATM   11  H1  UNL     1      25.188  -1.701  56.076  1.00  0.00     0.169 HD
ENDROOT
BRANCH  10  12
HETATM   12  C9  UNL     1      25.436   1.238  52.663  1.00  0.00     0.024 C 
BRANCH  12  13
HETATM   13  C10 UNL     1      25.566   2.341  51.806  1.00  0.00     0.071 A 
HETATM   14  C11 UNL     1      26.555   1.567  51.244  1.00  0.00     0.052 A 
HETATM   15  C12 UNL     1      26.573   2.701  50.480  1.00  0.00     0.068 A 
HETATM   16  C13 UNL     1      26.567   3.673  49.838  1.00  0.00    -0.168 C 
HETATM   17  C14 UNL     1      26.537   4.892  49.049  1.00  0.00     0.081 C 
HETATM   18  C15 UNL     1      25.577   5.841  49.802  1.00  0.00     0.013 C 
HETATM   19  C16 UNL     1      24.191   5.188  49.892  1.00  0.00     0.020 C 
HETATM   20  C17 UNL     1      24.270   3.770  50.380  1.00  0.00     0.115 C 
HETATM   21  N2  UNL     1      24.994   3.653  51.599  1.00  0.00    -0.407 N 
HETATM   22  H16 UNL     1      25.373   3.988  52.479  1.00  0.00     0.154 HD
ENDBRANCH  12  13
ENDBRANCH  10  12
TORSDOF 2
ENDMDL
MODEL 4
REMARK VINA RESULT:      -8.7      1.951      7.032
REMARK  2 active torsions:
REMARK  status: ('A' for Active; 'I' for Inactive)
REMARK    1  A    between atoms: C8_10  and  C9_11 
REMARK    2  A    between atoms: C9_11  and  C10_12 
ROOT
HETATM    1  O1  UNL     1      24.975   3.232  53.797  1.00  0.00    -0.267 OA
HETATM    2  C1  UNL     1      25.668   2.200  53.648  1.00  0.00     0.256 A 
HETATM    3  N1  UNL     1      27.060   2.408  53.834  1.00  0.00    -0.322 N 
HETATM    4  C2  UNL     1      27.710   1.167  53.635  1.00  0.00     0.046 A 
HETATM    5  C3  UNL     1      29.045   0.752  53.682  1.00  0.00     0.030 A 
HETATM    6  C4  UNL     1      29.503  -0.525  53.458  1.00  0.00     0.002 A 
HETATM    7  C5  UNL     1      28.576  -1.496  53.156  1.00  0.00     0.001 A 
HETATM    8  C6  UNL     1      27.248  -1.148  53.095  1.00  0.00     0.014 A 
HETATM    9  C7  UNL     1      26.849   0.150  53.331  1.00  0.00     0.006 A 
HETATM   10  C8  UNL     1      25.538   0.787  53.333  1.00  0.00     0.043 A 
HETATM   11  H1  UNL     1      27.631   3.250  54.071  1.00  0.00     0.169 HD
ENDROOT
BRANCH  10  12
HETATM   12  C9  UNL     1      24.384   0.272  53.108  1.00  0.00     0.024 C 
BRANCH  12  13
HETATM   13  C10 UNL     1      22.997   0.086  53.004  1.00  0.00     0.071 A 
HETATM   14  C11 UNL     1      23.190  -0.676  54.134  1.00  0.00     0.052 A 
HETATM   15  C12 UNL     1      21.843  -0.771  53.919  1.00  0.00     0.068 A 
HETATM   16  C13 UNL     1      20.697  -0.834  53.721  1.00  0.00    -0.168 C 
HETATM   17  C14 UNL     1      19.270  -0.893  53.458  1.00  0.00     0.081 C 
HETATM   18  C15 UNL     1      19.083  -0.215  52.081  1.00  0.00     0.013 C 
HETATM   19  C16 UNL     1      19.587   1.232  52.159  1.00  0.00     0.020 C 
HETATM   20  C17 UNL     1      20.951   1.318  52.781  1.00  0.00     0.115 C 
HETATM   21  N2  UNL     1      21.893   0.459  52.149  1.00  0.00    -0.407 N 
HETATM   22  H16 UNL     1      22.265  -0.088  51.380  1.00  0.00     0.154 HD
ENDBRANCH  12  13
ENDBRANCH  10  12
TORSDOF 2
ENDMDL
MODEL 5
REMARK VINA RESULT:      -8.4      4.597      6.225
REMARK  2 active torsions:
REMARK  status: ('A' for Active; 'I' for Inactive)
REMARK    1  A    between atoms: C8_10  and  C9_11 
REMARK    2  A    between atoms: C9_11  and  C10_12 
ROOT
HETATM    1  O1  UNL     1      22.392   3.451  52.075  1.00  0.00    -0.267 OA
HETATM    2  C1  UNL     1      23.360   2.657  52.113  1.00  0.00     0.256 A 
HETATM    3  N1  UNL     1      23.176   1.568  53.006  1.00  0.00    -0.322 N 
HETATM    4  C2  UNL     1      24.338   0.763  52.945  1.00  0.00     0.046 A 
HETATM    5  C3  UNL     1      24.736  -0.418  53.581  1.00  0.00     0.030 A 
HETATM    6  C4  UNL     1      25.928  -1.076  53.393  1.00  0.00     0.002 A 
HETATM    7  C5  UNL     1      26.827  -0.535  52.502  1.00  0.00     0.001 A 
HETATM    8  C6  UNL     1      26.492   0.626  51.846  1.00  0.00     0.014 A 
HETATM    9  C7  UNL     1      25.280   1.239  52.076  1.00  0.00     0.006 A 
HETATM   10  C8  UNL     1      24.676   2.449  51.533  1.00  0.00     0.043 A 
HETATM   11  H1  UNL     1      22.396   1.289  53.642  1.00  0.00     0.169 HD
ENDROOT
BRANCH  10  12
HETATM   12  C9  UNL     1      25.146   3.276  50.669  1.00  0.00     0.024 C 
BRANCH  12  13
HETATM   13  C10 UNL     1      25.855   4.327  50.069  1.00  0.00     0.071 A 
HETATM   14  C11 UNL     1      26.545   3.293  49.479  1.00  0.00     0.052 A 
HETATM   15  C12 UNL     1      27.148   4.407  48.964  1.00  0.00     0.068 A 
HETATM   16  C13 UNL     1      27.644   5.369  48.531  1.00  0.00    -0.168 C 
HETATM   17  C14 UNL     1      28.242   6.582  48.002  1.00  0.00     0.081 C 
HETATM   18  C15 UNL     1      27.611   7.734  48.816  1.00  0.00     0.013 C 
HETATM   19  C16 UNL     1      26.090   7.718  48.618  1.00  0.00     0.020 C 
HETATM   20  C17 UNL     1      25.514   6.346  48.819  1.00  0.00     0.115 C 
HETATM   21  N2  UNL     1      25.894   5.772  50.064  1.00  0.00    -0.407 N 
HETATM   22  H16 UNL     1      26.204   5.796  51.030  1.00  0.00     0.154 HD
ENDBRANCH  12  13
ENDBRANCH  10  12
TORSDOF 2
ENDMDL
MODEL 6
REMARK VINA RESULT:      -8.1      2.172      2.829
REMARK  2 active torsions:
REMARK  status: ('A' for Active; 'I' for Inactive)
REMARK    1  A    between atoms: C8_10  and  C9_11 
REMARK    2  A    between atoms: C9_11  and  C10_12 
ROOT
HETATM    1  O1  UNL     1      22.867   2.746  50.255  1.00  0.00    -0.267 OA
HETATM    2  C1  UNL     1      22.648   1.871  51.124  1.00  0.00     0.256 A 
HETATM    3  N1  UNL     1      21.271   1.584  51.318  1.00  0.00    -0.322 N 
HETATM    4  C2  UNL     1      21.178   0.588  52.319  1.00  0.00     0.046 A 
HETATM    5  C3  UNL     1      20.110  -0.084  52.924  1.00  0.00     0.030 A 
HETATM    6  C4  UNL     1      20.209  -1.045  53.901  1.00  0.00     0.002 A 
HETATM    7  C5  UNL     1      21.468  -1.390  54.339  1.00  0.00     0.001 A 
HETATM    8  C6  UNL     1      22.557  -0.763  53.782  1.00  0.00     0.014 A 
HETATM    9  C7  UNL     1      22.394   0.193  52.803  1.00  0.00     0.006 A 
HETATM   10  C8  UNL     1      23.348   1.000  52.054  1.00  0.00     0.043 A 
HETATM   11  H1  UNL     1      20.396   1.953  50.884  1.00  0.00     0.169 HD
ENDROOT
BRANCH  10  12
HETATM   12  C9  UNL     1      24.630   1.017  52.124  1.00  0.00     0.024 C 
BRANCH  12  13
HETATM   13  C10 UNL     1      25.950   0.864  52.577  1.00  0.00     0.071 A 
HETATM   14  C11 UNL     1      25.606   1.915  53.396  1.00  0.00     0.052 A 
HETATM   15  C12 UNL     1      26.902   1.656  53.745  1.00  0.00     0.068 A 
HETATM   16  C13 UNL     1      28.006   1.414  54.033  1.00  0.00    -0.168 C 
HETATM   17  C14 UNL     1      29.379   1.090  54.378  1.00  0.00     0.081 C 
HETATM   18  C15 UNL     1      29.830   0.056  53.322  1.00  0.00     0.013 C 
HETATM   19  C16 UNL     1      28.918  -1.177  53.402  1.00  0.00     0.020 C 
HETATM   20  C17 UNL     1      27.465  -0.799  53.410  1.00  0.00     0.115 C 
HETATM   21  N2  UNL     1      27.117   0.050  52.322  1.00  0.00    -0.407 N 
HETATM   22  H16 UNL     1      27.228   0.448  51.395  1.00  0.00     0.154 HD
ENDBRANCH  12  13
ENDBRANCH  10  12
TORSDOF 2
ENDMDL
MODEL 7
REMARK VINA RESULT:      -8.1      1.384      6.635
REMARK  2 active torsions:
REMARK  status: ('A' for Active; 'I' for Inactive)
REMARK    1  A    between atoms: C8_10  and  C9_11 
REMARK    2  A    between atoms: C9_11  and  C10_12 
ROOT
HETATM    1  O1  UNL     1      24.949  -1.514  55.876  1.00  0.00    -0.267 OA
HETATM    2  C1  UNL     1      25.128  -0.734  54.913  1.00  0.00     0.256 A 
HETATM    3  N1  UNL     1      26.414  -0.131  54.891  1.00  0.00    -0.322 N 
HETATM    4  C2  UNL     1      26.470   0.717  53.760  1.00  0.00     0.046 A 
HETATM    5  C3  UNL     1      27.453   1.556  53.223  1.00  0.00     0.030 A 
HETATM    6  C4  UNL     1      27.331   2.322  52.089  1.00  0.00     0.002 A 
HETATM    7  C5  UNL     1      26.137   2.272  51.405  1.00  0.00     0.001 A 
HETATM    8  C6  UNL     1      25.133   1.466  51.885  1.00  0.00     0.014 A 
HETATM    9  C7  UNL     1      25.316   0.719  53.028  1.00  0.00     0.006 A 
HETATM   10  C8  UNL     1      24.443  -0.201  53.747  1.00  0.00     0.043 A 
HETATM   11  H1  UNL     1      27.247  -0.202  55.517  1.00  0.00     0.169 HD
ENDROOT
BRANCH  10  12
HETATM   12  C9  UNL     1      23.240  -0.558  53.478  1.00  0.00     0.024 C 
BRANCH  12  13
HETATM   13  C10 UNL     1      21.881  -0.533  53.128  1.00  0.00     0.071 A 
HETATM   14  C11 UNL     1      21.745  -1.236  54.303  1.00  0.00     0.052 A 
HETATM   15  C12 UNL     1      20.460  -1.135  53.848  1.00  0.00     0.068 A 
HETATM   16  C13 UNL     1      19.371  -1.032  53.445  1.00  0.00    -0.168 C 
HETATM   17  C14 UNL     1      18.022  -0.886  52.926  1.00  0.00     0.081 C 
HETATM   18  C15 UNL     1      18.194  -0.284  51.513  1.00  0.00     0.013 C 
HETATM   19  C16 UNL     1      18.909   1.070  51.625  1.00  0.00     0.020 C 
HETATM   20  C17 UNL     1      20.138   0.984  52.484  1.00  0.00     0.115 C 
HETATM   21  N2  UNL     1      21.021  -0.052  52.070  1.00  0.00    -0.407 N 
HETATM   22  H16 UNL     1      21.427  -0.702  51.405  1.00  0.00     0.154 HD
ENDBRANCH  12  13
ENDBRANCH  10  12
TORSDOF 2
ENDMDL
MODEL 8
REMARK VINA RESULT:      -7.7      2.263      6.481
REMARK  2 active torsions:
REMARK  status: ('A' for Active; 'I' for Inactive)
REMARK    1  A    between atoms: C8_10  and  C9_11 
REMARK    2  A    between atoms: C9_11  and  C10_12 
ROOT
HETATM    1  O1  UNL     1      23.652  -1.204  54.756  1.00  0.00    -0.267 OA
HETATM    2  C1  UNL     1      24.620  -0.494  54.398  1.00  0.00     0.256 A 
HETATM    3  N1  UNL     1      25.815  -0.737  55.125  1.00  0.00    -0.322 N 
HETATM    4  C2  UNL     1      26.811   0.129  54.616  1.00  0.00     0.046 A 
HETATM    5  C3  UNL     1      28.159   0.345  54.924  1.00  0.00     0.030 A 
HETATM    6  C4  UNL     1      28.993   1.249  54.309  1.00  0.00     0.002 A 
HETATM    7  C5  UNL     1      28.470   2.021  53.297  1.00  0.00     0.001 A 
HETATM    8  C6  UNL     1      27.151   1.854  52.951  1.00  0.00     0.014 A 
HETATM    9  C7  UNL     1      26.364   0.930  53.603  1.00  0.00     0.006 A 
HETATM   10  C8  UNL     1      24.965   0.550  53.446  1.00  0.00     0.043 A 
HETATM   11  H1  UNL     1      26.056  -1.391  55.903  1.00  0.00     0.169 HD
ENDROOT
BRANCH  10  12
HETATM   12  C9  UNL     1      24.087   1.001  52.625  1.00  0.00     0.024 C 
BRANCH  12  13
HETATM   13  C10 UNL     1      23.407   1.349  51.448  1.00  0.00     0.071 A 
HETATM   14  C11 UNL     1      22.415   0.568  51.997  1.00  0.00     0.052 A 
HETATM   15  C12 UNL     1      21.868   0.986  50.816  1.00  0.00     0.068 A 
HETATM   16  C13 UNL     1      21.417   1.358  49.808  1.00  0.00    -0.168 C 
HETATM   17  C14 UNL     1      20.875   1.839  48.549  1.00  0.00     0.081 C 
HETATM   18  C15 UNL     1      22.056   2.539  47.840  1.00  0.00     0.013 C 
HETATM   19  C16 UNL     1      22.561   3.692  48.719  1.00  0.00     0.020 C 
HETATM   20  C17 UNL     1      22.779   3.259  50.140  1.00  0.00     0.115 C 
HETATM   21  N2  UNL     1      23.614   2.111  50.237  1.00  0.00    -0.407 N 
HETATM   22  H16 UNL     1      24.329   1.465  49.918  1.00  0.00     0.154 HD
ENDBRANCH  12  13
ENDBRANCH  10  12
TORSDOF 2
ENDMDL
MODEL 9
REMARK VINA RESULT:      -7.6      5.576      8.071
REMARK  2 active torsions:
REMARK  status: ('A' for Active; 'I' for Inactive)
REMARK    1  A    between atoms: C8_10  and  C9_11 
REMARK    2  A    between atoms: C9_11  and  C10_12 
ROOT
HETATM    1  O1  UNL     1      23.554   6.715  49.271  1.00  0.00    -0.267 OA
HETATM    2  C1  UNL     1      24.752   6.443  49.026  1.00  0.00     0.256 A 
HETATM    3  N1  UNL     1      25.441   7.463  48.316  1.00  0.00    -0.322 N 
HETATM    4  C2  UNL     1      26.769   7.020  48.111  1.00  0.00     0.046 A 
HETATM    5  C3  UNL     1      27.892   7.576  47.489  1.00  0.00     0.030 A 
HETATM    6  C4  UNL     1      29.131   6.989  47.383  1.00  0.00     0.002 A 
HETATM    7  C5  UNL     1      29.299   5.739  47.934  1.00  0.00     0.001 A 
HETATM    8  C6  UNL     1      28.230   5.142  48.559  1.00  0.00     0.014 A 
HETATM    9  C7  UNL     1      27.012   5.781  48.634  1.00  0.00     0.006 A 
HETATM   10  C8  UNL     1      25.737   5.392  49.223  1.00  0.00     0.043 A 
HETATM   11  H1  UNL     1      25.153   8.399  47.953  1.00  0.00     0.169 HD
ENDROOT
BRANCH  10  12
HETATM   12  C9  UNL     1      25.423   4.314  49.845  1.00  0.00     0.024 C 
BRANCH  12  13
HETATM   13  C10 UNL     1      25.364   3.286  50.799  1.00  0.00     0.071 A 
HETATM   14  C11 UNL     1      24.149   3.039  50.201  1.00  0.00     0.052 A 
HETATM   15  C12 UNL     1      24.221   2.080  51.173  1.00  0.00     0.068 A 
HETATM   16  C13 UNL     1      24.304   1.267  52.004  1.00  0.00    -0.168 C 
HETATM   17  C14 UNL     1      24.435   0.259  53.041  1.00  0.00     0.081 C 
HETATM   18  C15 UNL     1      25.693   0.662  53.843  1.00  0.00     0.013 C 
HETATM   19  C16 UNL     1      26.908   0.671  52.905  1.00  0.00     0.020 C 
HETATM   20  C17 UNL     1      26.632   1.432  51.640  1.00  0.00     0.115 C 
HETATM   21  N2  UNL     1      26.143   2.744  51.889  1.00  0.00    -0.407 N 
HETATM   22  H16 UNL     1      26.014   3.588  52.439  1.00  0.00     0.154 HD
ENDBRANCH  12  13
ENDBRANCH  10  12
TORSDOF 2
ENDMDL
