MODEL 1
REMARK VINA RESULT:      -7.5      0.000      0.000
REMARK  6 active torsions:
REMARK  status: ('A' for Active; 'I' for Inactive)
REMARK    1  A    between atoms: C3_3  and  C4_4 
REMARK    2  A    between atoms: C7_7  and  N1_8 
REMARK    3  A    between atoms: N1_8  and  C8_9 
REMARK    4  A    between atoms: C9_10  and  C10_11 
REMARK    5  A    between atoms: C11_12  and  C12_14 
REMARK    6  A    between atoms: C12_14  and  O1_15 
ROOT
HETATM    1  C1  UNL     1      19.589  -0.106  52.105  1.00  0.00     0.112 C 
HETATM    2  C2  UNL     1      20.974  -0.113  52.581  1.00  0.00    -0.104 C 
HETATM    3  C3  UNL     1      22.112  -0.129  52.975  1.00  0.00    -0.047 C 
ENDROOT
BRANCH   3   4
HETATM    4  C4  UNL     1      23.472  -0.171  53.439  1.00  0.00     0.110 A 
HETATM    5  C5  UNL     1      24.519   0.347  52.674  1.00  0.00     0.058 A 
HETATM    6  C6  UNL     1      25.774   0.242  53.236  1.00  0.00     0.043 A 
HETATM    7  C7  UNL     1      26.818   0.764  52.465  1.00  0.00     0.141 A 
HETATM    8  C14 UNL     1      26.048  -0.324  54.464  1.00  0.00     0.089 A 
HETATM    9  N2  UNL     1      28.062   0.690  52.960  1.00  0.00    -0.224 NA
HETATM   10  C13 UNL     1      28.318   0.130  54.168  1.00  0.00     0.236 A 
HETATM   11  N3  UNL     1      27.321  -0.386  54.941  1.00  0.00    -0.240 NA
HETATM   12  C15 UNL     1      24.951  -0.817  55.161  1.00  0.00     0.150 A 
HETATM   13  N4  UNL     1      23.715  -0.729  54.639  1.00  0.00    -0.250 NA
BRANCH   7  14
HETATM   14  N1  UNL     1      26.687   1.367  51.205  1.00  0.00    -0.350 N 
HETATM   15  H5  UNL     1      26.677   0.979  50.250  1.00  0.00     0.166 HD
BRANCH  14  16
HETATM   16  C8  UNL     1      26.525   2.756  50.955  1.00  0.00     0.090 C 
HETATM   17  C9  UNL     1      26.384   3.270  49.746  1.00  0.00     0.020 C 
BRANCH  17  18
HETATM   18  C10 UNL     1      26.230   4.699  49.637  1.00  0.00     0.041 C 
HETATM   19  C11 UNL     1      27.086   5.296  48.846  1.00  0.00     0.117 C 
HETATM   20  F1  UNL     1      27.843   4.266  48.400  1.00  0.00    -0.209 F 
BRANCH  19  21
HETATM   21  C12 UNL     1      27.392   6.658  48.367  1.00  0.00     0.234 C 
BRANCH  21  22
HETATM   22  O1  UNL     1      27.626   7.527  49.441  1.00  0.00    -0.394 OA
HETATM   23  H11 UNL     1      26.806   7.704  49.964  1.00  0.00     0.209 HD
ENDBRANCH  21  22
ENDBRANCH  19  21
ENDBRANCH  17  18
ENDBRANCH  14  16
ENDBRANCH   7  14
ENDBRANCH   3   4
TORSDOF 6
ENDMDL
MODEL 2
REMARK VINA RESULT:      -7.2      1.934      4.489
REMARK  6 active torsions:
REMARK  status: ('A' for Active; 'I' for Inactive)
REMARK    1  A    between atoms: C3_3  and  C4_4 
REMARK    2  A    between atoms: C7_7  and  N1_8 
REMARK    3  A    between atoms: N1_8  and  C8_9 
REMARK    4  A    between atoms: C9_10  and  C10_11 
REMARK    5  A    between atoms: C11_12  and  C12_14 
REMARK    6  A    between atoms: C12_14  and  O1_15 
ROOT
HETATM    1  C1  UNL     1      29.700  -0.301  53.490  1.00  0.00     0.112 C 
HETATM    2  C2  UNL     1      28.256  -0.419  53.700  1.00  0.00    -0.104 C 
HETATM    3  C3  UNL     1      27.069  -0.513  53.882  1.00  0.00    -0.047 C 
ENDROOT
BRANCH   3   4
HETATM    4  C4  UNL     1      25.653  -0.608  54.116  1.00  0.00     0.110 A 
HETATM    5  C5  UNL     1      24.728  -0.121  53.190  1.00  0.00     0.058 A 
HETATM    6  C6  UNL     1      23.403  -0.274  53.537  1.00  0.00     0.043 A 
HETATM    7  C7  UNL     1      22.481   0.216  52.606  1.00  0.00     0.141 A 
HETATM    8  C14 UNL     1      22.952  -0.859  54.703  1.00  0.00     0.089 A 
HETATM    9  N2  UNL     1      21.177   0.094  52.890  1.00  0.00    -0.224 NA
HETATM   10  C13 UNL     1      20.745  -0.483  54.039  1.00  0.00     0.236 A 
HETATM   11  N3  UNL     1      21.621  -0.969  54.964  1.00  0.00    -0.240 NA
HETATM   12  C15 UNL     1      23.936  -1.318  55.570  1.00  0.00     0.150 A 
HETATM   13  N4  UNL     1      25.237  -1.182  55.260  1.00  0.00    -0.250 NA
BRANCH   7  14
HETATM   14  N1  UNL     1      22.796   0.831  51.385  1.00  0.00    -0.350 N 
HETATM   15  H5  UNL     1      22.853   0.468  50.422  1.00  0.00     0.166 HD
BRANCH  14  16
HETATM   16  C8  UNL     1      23.131   2.199  51.201  1.00  0.00     0.090 C 
HETATM   17  C9  UNL     1      24.179   2.608  50.508  1.00  0.00     0.020 C 
BRANCH  17  18
HETATM   18  C10 UNL     1      24.402   4.028  50.401  1.00  0.00     0.041 C 
HETATM   19  C11 UNL     1      25.493   4.377  49.766  1.00  0.00     0.117 C 
HETATM   20  F1  UNL     1      26.033   3.183  49.428  1.00  0.00    -0.209 F 
BRANCH  19  21
HETATM   21  C12 UNL     1      26.199   5.610  49.366  1.00  0.00     0.234 C 
BRANCH  21  22
HETATM   22  O1  UNL     1      27.578   5.390  49.263  1.00  0.00    -0.394 OA
HETATM   23  H11 UNL     1      27.868   4.592  49.770  1.00  0.00     0.209 HD
ENDBRANCH  21  22
ENDBRANCH  19  21
ENDBRANCH  17  18
ENDBRANCH  14  16
ENDBRANCH   7  14
ENDBRANCH   3   4
TORSDOF 6
ENDMDL
MODEL 3
REMARK VINA RESULT:      -7.0      2.534      2.845
REMARK  6 active torsions:
REMARK  status: ('A' for Active; 'I' for Inactive)
REMARK    1  A    between atoms: C3_3  and  C4_4 
REMARK    2  A    between atoms: C7_7  and  N1_8 
REMARK    3  A    between atoms: N1_8  and  C8_9 
REMARK    4  A    between atoms: C9_10  and  C10_11 
REMARK    5  A    between atoms: C11_12  and  C12_14 
REMARK    6  A    between atoms: C12_14  and  O1_15 
ROOT
HETATM    1  C1  UNL     1      17.710  -1.509  53.304  1.00  0.00     0.112 C 
HETATM    2  C2  UNL     1      19.136  -1.378  53.606  1.00  0.00    -0.104 C 
HETATM    3  C3  UNL     1      20.309  -1.259  53.854  1.00  0.00    -0.047 C 
ENDROOT
BRANCH   3   4
HETATM    4  C4  UNL     1      21.705  -1.097  54.158  1.00  0.00     0.110 A 
HETATM    5  C5  UNL     1      22.543  -0.330  53.347  1.00  0.00     0.058 A 
HETATM    6  C6  UNL     1      23.859  -0.257  53.752  1.00  0.00     0.043 A 
HETATM    7  C7  UNL     1      24.693   0.513  52.935  1.00  0.00     0.141 A 
HETATM    8  C14 UNL     1      24.379  -0.874  54.871  1.00  0.00     0.089 A 
HETATM    9  N2  UNL     1      25.984   0.620  53.279  1.00  0.00    -0.224 NA
HETATM   10  C13 UNL     1      26.484   0.008  54.382  1.00  0.00     0.236 A 
HETATM   11  N3  UNL     1      25.694  -0.748  55.196  1.00  0.00    -0.240 NA
HETATM   12  C15 UNL     1      23.479  -1.618  55.625  1.00  0.00     0.150 A 
HETATM   13  N4  UNL     1      22.190  -1.709  55.255  1.00  0.00    -0.250 NA
BRANCH   7  14
HETATM   14  N1  UNL     1      24.303   1.194  51.772  1.00  0.00    -0.350 N 
HETATM   15  H5  UNL     1      24.417   0.977  50.771  1.00  0.00     0.166 HD
BRANCH  14  16
HETATM   16  C8  UNL     1      23.607   2.432  51.722  1.00  0.00     0.090 C 
HETATM   17  C9  UNL     1      24.091   3.562  52.207  1.00  0.00     0.020 C 
BRANCH  17  18
HETATM   18  C10 UNL     1      23.278   4.746  52.090  1.00  0.00     0.041 C 
HETATM   19  C11 UNL     1      23.761   5.683  51.312  1.00  0.00     0.117 C 
HETATM   20  F1  UNL     1      24.925   5.138  50.884  1.00  0.00    -0.209 F 
BRANCH  19  21
HETATM   21  C12 UNL     1      23.392   7.029  50.834  1.00  0.00     0.234 C 
BRANCH  21  22
HETATM   22  O1  UNL     1      24.149   8.016  51.478  1.00  0.00    -0.394 OA
HETATM   23  H11 UNL     1      25.054   8.107  51.090  1.00  0.00     0.209 HD
ENDBRANCH  21  22
ENDBRANCH  19  21
ENDBRANCH  17  18
ENDBRANCH  14  16
ENDBRANCH   7  14
ENDBRANCH   3   4
TORSDOF 6
ENDMDL
MODEL 4
REMARK VINA RESULT:      -7.0      1.686      1.850
REMARK  6 active torsions:
REMARK  status: ('A' for Active; 'I' for Inactive)
REMARK    1  A    between atoms: C3_3  and  C4_4 
REMARK    2  A    between atoms: C7_7  and  N1_8 
REMARK    3  A    between atoms: N1_8  and  C8_9 
REMARK    4  A    between atoms: C9_10  and  C10_11 
REMARK    5  A    between atoms: C11_12  and  C12_14 
REMARK    6  A    between atoms: C12_14  and  O1_15 
ROOT
HETATM    1  C1  UNL     1      19.597   0.451  51.025  1.00  0.00     0.112 C 
HETATM    2  C2  UNL     1      20.885   0.319  51.708  1.00  0.00    -0.104 C 
HETATM    3  C3  UNL     1      21.946   0.200  52.266  1.00  0.00    -0.047 C 
ENDROOT
BRANCH   3   4
HETATM    4  C4  UNL     1      23.219   0.044  52.916  1.00  0.00     0.110 A 
HETATM    5  C5  UNL     1      24.397   0.513  52.333  1.00  0.00     0.058 A 
HETATM    6  C6  UNL     1      25.548   0.298  53.061  1.00  0.00     0.043 A 
HETATM    7  C7  UNL     1      26.724   0.771  52.471  1.00  0.00     0.141 A 
HETATM    8  C14 UNL     1      25.603  -0.331  54.288  1.00  0.00     0.089 A 
HETATM    9  N2  UNL     1      27.876   0.590  53.134  1.00  0.00    -0.224 NA
HETATM   10  C13 UNL     1      27.918  -0.031  54.339  1.00  0.00     0.236 A 
HETATM   11  N3  UNL     1      26.787  -0.502  54.937  1.00  0.00    -0.240 NA
HETATM   12  C15 UNL     1      24.387  -0.769  54.799  1.00  0.00     0.150 A 
HETATM   13  N4  UNL     1      23.248  -0.574  54.112  1.00  0.00    -0.250 NA
BRANCH   7  14
HETATM   14  N1  UNL     1      26.817   1.427  51.234  1.00  0.00    -0.350 N 
HETATM   15  H5  UNL     1      27.012   1.084  50.282  1.00  0.00     0.166 HD
BRANCH  14  16
HETATM   16  C8  UNL     1      26.647   2.819  51.012  1.00  0.00     0.090 C 
HETATM   17  C9  UNL     1      25.744   3.324  50.190  1.00  0.00     0.020 C 
BRANCH  17  18
HETATM   18  C10 UNL     1      25.681   4.758  50.059  1.00  0.00     0.041 C 
HETATM   19  C11 UNL     1      24.619   5.321  50.581  1.00  0.00     0.117 C 
HETATM   20  F1  UNL     1      23.940   4.263  51.081  1.00  0.00    -0.209 F 
BRANCH  19  21
HETATM   21  C12 UNL     1      24.048   6.672  50.746  1.00  0.00     0.234 C 
BRANCH  21  22
HETATM   22  O1  UNL     1      24.408   7.222  51.984  1.00  0.00    -0.394 OA
HETATM   23  H11 UNL     1      24.724   6.534  52.621  1.00  0.00     0.209 HD
ENDBRANCH  21  22
ENDBRANCH  19  21
ENDBRANCH  17  18
ENDBRANCH  14  16
ENDBRANCH   7  14
ENDBRANCH   3   4
TORSDOF 6
ENDMDL
MODEL 5
REMARK VINA RESULT:      -6.7      3.736      7.334
REMARK  6 active torsions:
REMARK  status: ('A' for Active; 'I' for Inactive)
REMARK    1  A    between atoms: C3_3  and  C4_4 
REMARK    2  A    between atoms: C7_7  and  N1_8 
REMARK    3  A    between atoms: N1_8  and  C8_9 
REMARK    4  A    between atoms: C9_10  and  C10_11 
REMARK    5  A    between atoms: C11_12  and  C12_14 
REMARK    6  A    between atoms: C12_14  and  O1_15 
ROOT
HETATM    1  C1  UNL     1      28.818   6.560  47.854  1.00  0.00     0.112 C 
HETATM    2  C2  UNL     1      27.617   5.957  48.435  1.00  0.00    -0.104 C 
HETATM    3  C3  UNL     1      26.623   5.465  48.906  1.00  0.00    -0.047 C 
ENDROOT
BRANCH   3   4
HETATM    4  C4  UNL     1      25.428   4.876  49.446  1.00  0.00     0.110 A 
HETATM    5  C5  UNL     1      25.454   4.120  50.619  1.00  0.00     0.058 A 
HETATM    6  C6  UNL     1      24.239   3.611  51.027  1.00  0.00     0.043 A 
HETATM    7  C7  UNL     1      24.273   2.856  52.203  1.00  0.00     0.141 A 
HETATM    8  C14 UNL     1      23.041   3.798  50.367  1.00  0.00     0.089 A 
HETATM    9  N2  UNL     1      23.120   2.335  52.648  1.00  0.00    -0.224 NA
HETATM   10  C13 UNL     1      21.949   2.525  51.991  1.00  0.00     0.236 A 
HETATM   11  N3  UNL     1      21.887   3.256  50.843  1.00  0.00    -0.240 NA
HETATM   12  C15 UNL     1      23.101   4.561  49.208  1.00  0.00     0.150 A 
HETATM   13  N4  UNL     1      24.271   5.070  48.785  1.00  0.00    -0.250 NA
BRANCH   7  14
HETATM   14  N1  UNL     1      25.414   2.587  52.974  1.00  0.00    -0.350 N 
HETATM   15  H5  UNL     1      26.071   3.202  53.476  1.00  0.00     0.166 HD
BRANCH  14  16
HETATM   16  C8  UNL     1      25.951   1.301  53.251  1.00  0.00     0.090 C 
HETATM   17  C9  UNL     1      27.153   1.106  53.764  1.00  0.00     0.020 C 
BRANCH  17  18
HETATM   18  C10 UNL     1      27.574  -0.253  53.994  1.00  0.00     0.041 C 
HETATM   19  C11 UNL     1      28.778  -0.546  53.570  1.00  0.00     0.117 C 
HETATM   20  F1  UNL     1      29.197   0.627  53.041  1.00  0.00    -0.209 F 
BRANCH  19  21
HETATM   21  C12 UNL     1      29.692  -1.704  53.537  1.00  0.00     0.234 C 
BRANCH  21  22
HETATM   22  O1  UNL     1      28.981  -2.901  53.380  1.00  0.00    -0.394 OA
HETATM   23  H11 UNL     1      29.579  -3.676  53.239  1.00  0.00     0.209 HD
ENDBRANCH  21  22
ENDBRANCH  19  21
ENDBRANCH  17  18
ENDBRANCH  14  16
ENDBRANCH   7  14
ENDBRANCH   3   4
TORSDOF 6
ENDMDL
MODEL 6
REMARK VINA RESULT:      -6.4      2.530      4.951
REMARK  6 active torsions:
REMARK  status: ('A' for Active; 'I' for Inactive)
REMARK    1  A    between atoms: C3_3  and  C4_4 
REMARK    2  A    between atoms: C7_7  and  N1_8 
REMARK    3  A    between atoms: N1_8  and  C8_9 
REMARK    4  A    between atoms: C9_10  and  C10_11 
REMARK    5  A    between atoms: C11_12  and  C12_14 
REMARK    6  A    between atoms: C12_14  and  O1_15 
ROOT
HETATM    1  C1  UNL     1      27.408  -0.141  54.502  1.00  0.00     0.112 C 
HETATM    2  C2  UNL     1      25.984  -0.130  54.162  1.00  0.00    -0.104 C 
HETATM    3  C3  UNL     1      24.812  -0.130  53.879  1.00  0.00    -0.047 C 
ENDROOT
BRANCH   3   4
HETATM    4  C4  UNL     1      23.414  -0.153  53.548  1.00  0.00     0.110 A 
HETATM    5  C5  UNL     1      22.951   0.297  52.310  1.00  0.00     0.058 A 
HETATM    6  C6  UNL     1      21.587   0.221  52.121  1.00  0.00     0.043 A 
HETATM    7  C7  UNL     1      21.131   0.673  50.879  1.00  0.00     0.141 A 
HETATM    8  C14 UNL     1      20.685  -0.257  53.049  1.00  0.00     0.089 A 
HETATM    9  N2  UNL     1      19.813   0.622  50.638  1.00  0.00    -0.224 NA
HETATM   10  C13 UNL     1      18.935   0.151  51.559  1.00  0.00     0.236 A 
HETATM   11  N3  UNL     1      19.352  -0.296  52.777  1.00  0.00    -0.240 NA
HETATM   12  C15 UNL     1      21.226  -0.685  54.255  1.00  0.00     0.150 A 
HETATM   13  N4  UNL     1      22.552  -0.623  54.469  1.00  0.00    -0.250 NA
BRANCH   7  14
HETATM   14  N1  UNL     1      21.931   1.181  49.845  1.00  0.00    -0.350 N 
HETATM   15  H5  UNL     1      22.324   0.747  48.996  1.00  0.00     0.166 HD
BRANCH  14  16
HETATM   16  C8  UNL     1      22.412   2.514  49.738  1.00  0.00     0.090 C 
HETATM   17  C9  UNL     1      23.687   2.842  49.848  1.00  0.00     0.020 C 
BRANCH  17  18
HETATM   18  C10 UNL     1      24.036   4.235  49.719  1.00  0.00     0.041 C 
HETATM   19  C11 UNL     1      25.284   4.471  49.398  1.00  0.00     0.117 C 
HETATM   20  F1  UNL     1      25.805   3.226  49.303  1.00  0.00    -0.209 F 
BRANCH  19  21
HETATM   21  C12 UNL     1      26.163   5.628  49.137  1.00  0.00     0.234 C 
BRANCH  21  22
HETATM   22  O1  UNL     1      26.223   6.475  50.252  1.00  0.00    -0.394 OA
HETATM   23  H11 UNL     1      25.581   6.212  50.956  1.00  0.00     0.209 HD
ENDBRANCH  21  22
ENDBRANCH  19  21
ENDBRANCH  17  18
ENDBRANCH  14  16
ENDBRANCH   7  14
ENDBRANCH   3   4
TORSDOF 6
ENDMDL
MODEL 7
REMARK VINA RESULT:      -6.3      3.945      7.053
REMARK  6 active torsions:
REMARK  status: ('A' for Active; 'I' for Inactive)
REMARK    1  A    between atoms: C3_3  and  C4_4 
REMARK    2  A    between atoms: C7_7  and  N1_8 
REMARK    3  A    between atoms: N1_8  and  C8_9 
REMARK    4  A    between atoms: C9_10  and  C10_11 
REMARK    5  A    between atoms: C11_12  and  C12_14 
REMARK    6  A    between atoms: C12_14  and  O1_15 
ROOT
HETATM    1  C1  UNL     1      27.447  -2.205  52.836  1.00  0.00     0.112 C 
HETATM    2  C2  UNL     1      26.920  -0.921  52.369  1.00  0.00    -0.104 C 
HETATM    3  C3  UNL     1      26.492   0.134  51.975  1.00  0.00    -0.047 C 
ENDROOT
BRANCH   3   4
HETATM    4  C4  UNL     1      25.982   1.385  51.484  1.00  0.00     0.110 A 
HETATM    5  C5  UNL     1      24.615   1.667  51.492  1.00  0.00     0.058 A 
HETATM    6  C6  UNL     1      24.260   2.902  50.991  1.00  0.00     0.043 A 
HETATM    7  C7  UNL     1      22.889   3.179  51.002  1.00  0.00     0.141 A 
HETATM    8  C14 UNL     1      25.144   3.842  50.501  1.00  0.00     0.089 A 
HETATM    9  N2  UNL     1      22.484   4.366  50.528  1.00  0.00    -0.224 NA
HETATM   10  C13 UNL     1      23.362   5.282  50.048  1.00  0.00     0.236 A 
HETATM   11  N3  UNL     1      24.704   5.039  50.025  1.00  0.00    -0.240 NA
HETATM   12  C15 UNL     1      26.486   3.483  50.529  1.00  0.00     0.150 A 
HETATM   13  N4  UNL     1      26.863   2.286  51.010  1.00  0.00    -0.250 NA
BRANCH   7  14
HETATM   14  N1  UNL     1      21.882   2.321  51.469  1.00  0.00    -0.350 N 
HETATM   15  H5  UNL     1      20.998   1.997  51.048  1.00  0.00     0.166 HD
BRANCH  14  16
HETATM   16  C8  UNL     1      21.863   1.661  52.727  1.00  0.00     0.090 C 
HETATM   17  C9  UNL     1      21.761   0.350  52.863  1.00  0.00     0.020 C 
BRANCH  17  18
HETATM   18  C10 UNL     1      21.754  -0.188  54.200  1.00  0.00     0.041 C 
HETATM   19  C11 UNL     1      22.821  -0.871  54.533  1.00  0.00     0.117 C 
HETATM   20  F1  UNL     1      23.577  -0.803  53.413  1.00  0.00    -0.209 F 
BRANCH  19  21
HETATM   21  C12 UNL     1      23.348  -1.608  55.699  1.00  0.00     0.234 C 
BRANCH  21  22
HETATM   22  O1  UNL     1      24.745  -1.525  55.757  1.00  0.00    -0.394 OA
HETATM   23  H11 UNL     1      25.184  -2.269  55.276  1.00  0.00     0.209 HD
ENDBRANCH  21  22
ENDBRANCH  19  21
ENDBRANCH  17  18
ENDBRANCH  14  16
ENDBRANCH   7  14
ENDBRANCH   3   4
TORSDOF 6
ENDMDL
MODEL 8
REMARK VINA RESULT:      -6.1      4.106      6.040
REMARK  6 active torsions:
REMARK  status: ('A' for Active; 'I' for Inactive)
REMARK    1  A    between atoms: C3_3  and  C4_4 
REMARK    2  A    between atoms: C7_7  and  N1_8 
REMARK    3  A    between atoms: N1_8  and  C8_9 
REMARK    4  A    between atoms: C9_10  and  C10_11 
REMARK    5  A    between atoms: C11_12  and  C12_14 
REMARK    6  A    between atoms: C12_14  and  O1_15 
ROOT
HETATM    1  C1  UNL     1      19.359   3.391  47.101  1.00  0.00     0.112 C 
HETATM    2  C2  UNL     1      19.554   2.631  48.337  1.00  0.00    -0.104 C 
HETATM    3  C3  UNL     1      19.712   1.998  49.350  1.00  0.00    -0.047 C 
ENDROOT
BRANCH   3   4
HETATM    4  C4  UNL     1      19.908   1.223  50.545  1.00  0.00     0.110 A 
HETATM    5  C5  UNL     1      21.135   1.209  51.211  1.00  0.00     0.058 A 
HETATM    6  C6  UNL     1      21.187   0.425  52.344  1.00  0.00     0.043 A 
HETATM    7  C7  UNL     1      22.419   0.415  53.007  1.00  0.00     0.141 A 
HETATM    8  C14 UNL     1      20.138  -0.321  52.840  1.00  0.00     0.089 A 
HETATM    9  N2  UNL     1      22.530  -0.330  54.115  1.00  0.00    -0.224 NA
HETATM   10  C13 UNL     1      21.491  -1.060  54.594  1.00  0.00     0.236 A 
HETATM   11  N3  UNL     1      20.280  -1.069  53.968  1.00  0.00    -0.240 NA
HETATM   12  C15 UNL     1      18.952  -0.253  52.119  1.00  0.00     0.150 A 
HETATM   13  N4  UNL     1      18.870   0.503  51.010  1.00  0.00    -0.250 NA
BRANCH   7  14
HETATM   14  N1  UNL     1      23.566   1.122  52.617  1.00  0.00    -0.350 N 
HETATM   15  H5  UNL     1      23.729   2.120  52.413  1.00  0.00     0.166 HD
BRANCH  14  16
HETATM   16  C8  UNL     1      24.857   0.569  52.404  1.00  0.00     0.090 C 
HETATM   17  C9  UNL     1      25.874   0.744  53.230  1.00  0.00     0.020 C 
BRANCH  17  18
HETATM   18  C10 UNL     1      27.130   0.125  52.892  1.00  0.00     0.041 C 
HETATM   19  C11 UNL     1      27.993   0.037  53.873  1.00  0.00     0.117 C 
HETATM   20  F1  UNL     1      27.325   0.602  54.905  1.00  0.00    -0.209 F 
BRANCH  19  21
HETATM   21  C12 UNL     1      29.358  -0.474  54.109  1.00  0.00     0.234 C 
BRANCH  21  22
HETATM   22  O1  UNL     1      30.302   0.261  53.380  1.00  0.00    -0.394 OA
HETATM   23  H11 UNL     1      30.297   0.027  52.419  1.00  0.00     0.209 HD
ENDBRANCH  21  22
ENDBRANCH  19  21
ENDBRANCH  17  18
ENDBRANCH  14  16
ENDBRANCH   7  14
ENDBRANCH   3   4
TORSDOF 6
ENDMDL
MODEL 9
REMARK VINA RESULT:      -6.0      4.270      6.090
REMARK  6 active torsions:
REMARK  status: ('A' for Active; 'I' for Inactive)
REMARK    1  A    between atoms: C3_3  and  C4_4 
REMARK    2  A    between atoms: C7_7  and  N1_8 
REMARK    3  A    between atoms: N1_8  and  C8_9 
REMARK    4  A    between atoms: C9_10  and  C10_11 
REMARK    5  A    between atoms: C11_12  and  C12_14 
REMARK    6  A    between atoms: C12_14  and  O1_15 
ROOT
HETATM    1  C1  UNL     1      21.205  -1.563  54.519  1.00  0.00     0.112 C 
HETATM    2  C2  UNL     1      21.199  -0.272  53.830  1.00  0.00    -0.104 C 
HETATM    3  C3  UNL     1      21.190   0.796  53.272  1.00  0.00    -0.047 C 
ENDROOT
BRANCH   3   4
HETATM    4  C4  UNL     1      21.187   2.080  52.626  1.00  0.00     0.110 A 
HETATM    5  C5  UNL     1      22.376   2.746  52.321  1.00  0.00     0.058 A 
HETATM    6  C6  UNL     1      22.231   3.970  51.703  1.00  0.00     0.043 A 
HETATM    7  C7  UNL     1      23.426   4.631  51.401  1.00  0.00     0.141 A 
HETATM    8  C14 UNL     1      21.024   4.555  51.379  1.00  0.00     0.089 A 
HETATM    9  N2  UNL     1      23.347   5.826  50.798  1.00  0.00    -0.224 NA
HETATM   10  C13 UNL     1      22.155   6.392  50.485  1.00  0.00     0.236 A 
HETATM   11  N3  UNL     1      20.975   5.770  50.768  1.00  0.00    -0.240 NA
HETATM   12  C15 UNL     1      19.889   3.828  51.715  1.00  0.00     0.150 A 
HETATM   13  N4  UNL     1      19.998   2.632  52.319  1.00  0.00    -0.250 NA
BRANCH   7  14
HETATM   14  N1  UNL     1      24.718   4.156  51.671  1.00  0.00    -0.350 N 
HETATM   15  H5  UNL     1      25.548   4.606  52.085  1.00  0.00     0.166 HD
BRANCH  14  16
HETATM   16  C8  UNL     1      25.198   2.845  51.411  1.00  0.00     0.090 C 
HETATM   17  C9  UNL     1      26.206   2.292  52.064  1.00  0.00     0.020 C 
BRANCH  17  18
HETATM   18  C10 UNL     1      26.590   0.953  51.697  1.00  0.00     0.041 C 
HETATM   19  C11 UNL     1      27.012   0.201  52.684  1.00  0.00     0.117 C 
HETATM   20  F1  UNL     1      26.917   1.032  53.748  1.00  0.00    -0.209 F 
BRANCH  19  21
HETATM   21  C12 UNL     1      27.503  -1.173  52.901  1.00  0.00     0.234 C 
BRANCH  21  22
HETATM   22  O1  UNL     1      28.345  -1.236  54.019  1.00  0.00    -0.394 OA
HETATM   23  H11 UNL     1      29.294  -1.349  53.766  1.00  0.00     0.209 HD
ENDBRANCH  21  22
ENDBRANCH  19  21
ENDBRANCH  17  18
ENDBRANCH  14  16
ENDBRANCH   7  14
ENDBRANCH   3   4
TORSDOF 6
ENDMDL
