MODEL 1
REMARK VINA RESULT:      -9.0      0.000      0.000
REMARK  4 active torsions:
REMARK  status: ('A' for Active; 'I' for Inactive)
REMARK    1  A    between atoms: C3_3  and  C4_4 
REMARK       I    between atoms: C4_4  and  N1_6 
REMARK    2  A    between atoms: N1_6  and  C5_7 
REMARK    3  A    between atoms: C8_10  and  N2_11 
REMARK    4  A    between atoms: N2_11  and  C9_12 
ROOT
HETATM    1  C5  UNL     1      24.561  -0.700  54.178  1.00  0.00     0.131 A 
HETATM    2  C6  UNL     1      23.896  -0.061  53.159  1.00  0.00     0.068 A 
HETATM    3  C7  UNL     1      22.547   0.082  53.051  1.00  0.00     0.044 A 
HETATM    4  C8  UNL     1      21.915   0.731  52.012  1.00  0.00     0.142 A 
HETATM    5  N3  UNL     1      20.586   0.734  52.138  1.00  0.00    -0.224 NA
HETATM    6  C15 UNL     1      19.879   0.197  53.125  1.00  0.00     0.236 A 
HETATM    7  N4  UNL     1      20.499  -0.428  54.124  1.00  0.00    -0.240 NA
HETATM    8  C16 UNL     1      21.842  -0.486  54.090  1.00  0.00     0.089 A 
HETATM    9  C17 UNL     1      22.467  -1.134  55.128  1.00  0.00     0.151 A 
HETATM   10  N5  UNL     1      23.818  -1.246  55.182  1.00  0.00    -0.241 NA
ENDROOT
BRANCH   4  11
HETATM   11  N2  UNL     1      22.675   1.307  50.972  1.00  0.00    -0.340 N 
HETATM   12  H8  UNL     1      22.891   0.782  50.104  1.00  0.00     0.167 HD
BRANCH  11  13
HETATM   13  C9  UNL     1      23.245   2.605  50.911  1.00  0.00     0.035 A 
HETATM   14  C10 UNL     1      22.662   3.684  51.537  1.00  0.00     0.029 A 
HETATM   15  C11 UNL     1      23.177   4.959  51.516  1.00  0.00     0.004 A 
HETATM   16  C12 UNL     1      24.345   5.216  50.840  1.00  0.00     0.019 A 
HETATM   17  C13 UNL     1      24.957   4.163  50.203  1.00  0.00     0.013 A 
HETATM   18 BR1  UNL     1      26.569   4.450  49.254  1.00  0.00    -0.051 Br
HETATM   19  C14 UNL     1      24.394   2.918  50.260  1.00  0.00     0.048 A 
ENDBRANCH  11  13
ENDBRANCH   4  11
BRANCH   1  20
HETATM   20  N1  UNL     1      25.968  -0.836  54.266  1.00  0.00    -0.308 N 
HETATM   21  C4  UNL     1      26.804   0.271  54.588  1.00  0.00     0.246 C 
HETATM   22  O1  UNL     1      26.449   1.455  54.827  1.00  0.00    -0.268 OA
HETATM   23  H6  UNL     1      26.414  -1.768  54.092  1.00  0.00     0.170 HD
BRANCH  21  24
HETATM   24  C3  UNL     1      28.246   0.050  54.659  1.00  0.00     0.070 C 
HETATM   25  C2  UNL     1      28.960  -0.606  53.788  1.00  0.00    -0.026 C 
HETATM   26  C1  UNL     1      30.432  -0.843  53.844  1.00  0.00     0.036 C 
ENDBRANCH  21  24
ENDBRANCH   1  20
TORSDOF 4
ENDMDL
MODEL 2
REMARK VINA RESULT:      -9.0      2.457      5.518
REMARK  4 active torsions:
REMARK  status: ('A' for Active; 'I' for Inactive)
REMARK    1  A    between atoms: C3_3  and  C4_4 
REMARK       I    between atoms: C4_4  and  N1_6 
REMARK    2  A    between atoms: N1_6  and  C5_7 
REMARK    3  A    between atoms: C8_10  and  N2_11 
REMARK    4  A    between atoms: N2_11  and  C9_12 
ROOT
HETATM    1  C5  UNL     1      24.241  -0.188  53.495  1.00  0.00     0.131 A 
HETATM    2  C6  UNL     1      24.862   0.717  52.667  1.00  0.00     0.068 A 
HETATM    3  C7  UNL     1      26.115   1.222  52.830  1.00  0.00     0.044 A 
HETATM    4  C8  UNL     1      26.704   2.130  51.977  1.00  0.00     0.142 A 
HETATM    5  N3  UNL     1      27.937   2.470  52.358  1.00  0.00    -0.224 NA
HETATM    6  C15 UNL     1      28.591   2.027  53.425  1.00  0.00     0.236 A 
HETATM    7  N4  UNL     1      28.014   1.150  54.244  1.00  0.00    -0.240 NA
HETATM    8  C16 UNL     1      26.767   0.743  53.946  1.00  0.00     0.089 A 
HETATM    9  C17 UNL     1      26.184  -0.162  54.801  1.00  0.00     0.151 A 
HETATM   10  N5  UNL     1      24.929  -0.631  54.586  1.00  0.00    -0.241 NA
ENDROOT
BRANCH   4  11
HETATM   11  N2  UNL     1      26.005   2.589  50.841  1.00  0.00    -0.340 N 
HETATM   12  H8  UNL     1      25.305   1.995  50.359  1.00  0.00     0.167 HD
BRANCH  11  13
HETATM   13  C9  UNL     1      26.111   3.845  50.188  1.00  0.00     0.035 A 
HETATM   14  C10 UNL     1      27.085   4.094  49.247  1.00  0.00     0.029 A 
HETATM   15  C11 UNL     1      27.227   5.288  48.581  1.00  0.00     0.004 A 
HETATM   16  C12 UNL     1      26.363   6.324  48.839  1.00  0.00     0.019 A 
HETATM   17  C13 UNL     1      25.376   6.113  49.773  1.00  0.00     0.013 A 
HETATM   18 BR1  UNL     1      24.153   7.501  50.175  1.00  0.00    -0.051 Br
HETATM   19  C14 UNL     1      25.288   4.903  50.402  1.00  0.00     0.048 A 
ENDBRANCH  11  13
ENDBRANCH   4  11
BRANCH   1  20
HETATM   20  N1  UNL     1      22.935  -0.699  53.302  1.00  0.00    -0.308 N 
HETATM   21  C4  UNL     1      22.158  -1.187  54.391  1.00  0.00     0.246 C 
HETATM   22  O1  UNL     1      22.487  -1.238  55.605  1.00  0.00    -0.268 OA
HETATM   23  H6  UNL     1      22.521  -0.722  52.340  1.00  0.00     0.170 HD
BRANCH  21  24
HETATM   24  C3  UNL     1      20.819  -1.699  54.110  1.00  0.00     0.070 C 
HETATM   25  C2  UNL     1      19.827  -1.008  53.622  1.00  0.00    -0.026 C 
HETATM   26  C1  UNL     1      18.453  -1.512  53.330  1.00  0.00     0.036 C 
ENDBRANCH  21  24
ENDBRANCH   1  20
TORSDOF 4
ENDMDL
MODEL 3
REMARK VINA RESULT:      -8.6      2.150      5.450
REMARK  4 active torsions:
REMARK  status: ('A' for Active; 'I' for Inactive)
REMARK    1  A    between atoms: C3_3  and  C4_4 
REMARK       I    between atoms: C4_4  and  N1_6 
REMARK    2  A    between atoms: N1_6  and  C5_7 
REMARK    3  A    between atoms: C8_10  and  N2_11 
REMARK    4  A    between atoms: N2_11  and  C9_12 
ROOT
HETATM    1  C5  UNL     1      22.199  -1.218  54.227  1.00  0.00     0.131 A 
HETATM    2  C6  UNL     1      23.083  -0.452  53.505  1.00  0.00     0.068 A 
HETATM    3  C7  UNL     1      24.372  -0.181  53.849  1.00  0.00     0.044 A 
HETATM    4  C8  UNL     1      25.230   0.593  53.098  1.00  0.00     0.142 A 
HETATM    5  N3  UNL     1      26.439   0.708  53.652  1.00  0.00    -0.224 NA
HETATM    6  C15 UNL     1      26.846   0.166  54.793  1.00  0.00     0.236 A 
HETATM    7  N4  UNL     1      26.010  -0.580  55.512  1.00  0.00    -0.240 NA
HETATM    8  C16 UNL     1      24.764  -0.757  55.038  1.00  0.00     0.089 A 
HETATM    9  C17 UNL     1      23.912  -1.530  55.791  1.00  0.00     0.151 A 
HETATM   10  N5  UNL     1      22.635  -1.765  55.397  1.00  0.00    -0.241 NA
ENDROOT
BRANCH   4  11
HETATM   11  N2  UNL     1      24.791   1.158  51.882  1.00  0.00    -0.340 N 
HETATM   12  H8  UNL     1      24.831   0.627  50.993  1.00  0.00     0.167 HD
BRANCH  11  13
HETATM   13  C9  UNL     1      24.255   2.452  51.653  1.00  0.00     0.035 A 
HETATM   14  C10 UNL     1      23.973   3.314  52.689  1.00  0.00     0.029 A 
HETATM   15  C11 UNL     1      23.461   4.579  52.523  1.00  0.00     0.004 A 
HETATM   16  C12 UNL     1      23.200   5.053  51.260  1.00  0.00     0.019 A 
HETATM   17  C13 UNL     1      23.470   4.220  50.199  1.00  0.00     0.013 A 
HETATM   18 BR1  UNL     1      23.134   4.812  48.433  1.00  0.00    -0.051 Br
HETATM   19  C14 UNL     1      23.978   2.973  50.431  1.00  0.00     0.048 A 
ENDBRANCH  11  13
ENDBRANCH   4  11
BRANCH   1  20
HETATM   20  N1  UNL     1      20.861  -1.485  53.847  1.00  0.00    -0.308 N 
HETATM   21  C4  UNL     1      19.970  -0.437  53.477  1.00  0.00     0.246 C 
HETATM   22  O1  UNL     1      20.214   0.797  53.432  1.00  0.00    -0.268 OA
HETATM   23  H6  UNL     1      20.509  -2.471  53.835  1.00  0.00     0.170 HD
BRANCH  21  24
HETATM   24  C3  UNL     1      18.605  -0.794  53.097  1.00  0.00     0.070 C 
HETATM   25  C2  UNL     1      18.011  -1.923  53.363  1.00  0.00    -0.026 C 
HETATM   26  C1  UNL     1      16.619  -2.304  52.984  1.00  0.00     0.036 C 
ENDBRANCH  21  24
ENDBRANCH   1  20
TORSDOF 4
ENDMDL
MODEL 4
REMARK VINA RESULT:      -8.3      2.926      6.711
REMARK  4 active torsions:
REMARK  status: ('A' for Active; 'I' for Inactive)
REMARK    1  A    between atoms: C3_3  and  C4_4 
REMARK       I    between atoms: C4_4  and  N1_6 
REMARK    2  A    between atoms: N1_6  and  C5_7 
REMARK    3  A    between atoms: C8_10  and  N2_11 
REMARK    4  A    between atoms: N2_11  and  C9_12 
ROOT
HETATM    1  C5  UNL     1      22.220   1.028  51.142  1.00  0.00     0.131 A 
HETATM    2  C6  UNL     1      23.390   1.594  51.591  1.00  0.00     0.068 A 
HETATM    3  C7  UNL     1      24.130   2.528  50.934  1.00  0.00     0.044 A 
HETATM    4  C8  UNL     1      25.300   3.073  51.416  1.00  0.00     0.142 A 
HETATM    5  N3  UNL     1      25.835   3.967  50.582  1.00  0.00    -0.224 NA
HETATM    6  C15 UNL     1      25.354   4.343  49.404  1.00  0.00     0.236 A 
HETATM    7  N4  UNL     1      24.223   3.811  48.945  1.00  0.00    -0.240 NA
HETATM    8  C16 UNL     1      23.604   2.897  49.714  1.00  0.00     0.089 A 
HETATM    9  C17 UNL     1      22.438   2.356  49.228  1.00  0.00     0.151 A 
HETATM   10  N5  UNL     1      21.742   1.426  49.929  1.00  0.00    -0.241 NA
ENDROOT
BRANCH   4  11
HETATM   11  N2  UNL     1      25.799   2.674  52.674  1.00  0.00    -0.340 N 
HETATM   12  H8  UNL     1      25.414   3.057  53.556  1.00  0.00     0.167 HD
BRANCH  11  13
HETATM   13  C9  UNL     1      26.839   1.750  52.957  1.00  0.00     0.035 A 
HETATM   14  C10 UNL     1      28.038   2.150  53.502  1.00  0.00     0.029 A 
HETATM   15  C11 UNL     1      29.073   1.297  53.802  1.00  0.00     0.004 A 
HETATM   16  C12 UNL     1      28.944  -0.049  53.559  1.00  0.00     0.019 A 
HETATM   17  C13 UNL     1      27.760  -0.488  53.015  1.00  0.00     0.013 A 
HETATM   18 BR1  UNL     1      27.518  -2.331  52.656  1.00  0.00    -0.051 Br
HETATM   19  C14 UNL     1      26.769   0.412  52.738  1.00  0.00     0.048 A 
ENDBRANCH  11  13
ENDBRANCH   4  11
BRANCH   1  20
HETATM   20  N1  UNL     1      21.469   0.056  51.847  1.00  0.00    -0.308 N 
HETATM   21  C4  UNL     1      20.446   0.429  52.765  1.00  0.00     0.246 C 
HETATM   22  O1  UNL     1      20.077   1.593  53.071  1.00  0.00    -0.268 OA
HETATM   23  H6  UNL     1      21.662  -0.962  51.697  1.00  0.00     0.170 HD
BRANCH  21  24
HETATM   24  C3  UNL     1      19.716  -0.633  53.454  1.00  0.00     0.070 C 
HETATM   25  C2  UNL     1      18.629  -1.211  53.026  1.00  0.00    -0.026 C 
HETATM   26  C1  UNL     1      17.870  -2.295  53.715  1.00  0.00     0.036 C 
ENDBRANCH  21  24
ENDBRANCH   1  20
TORSDOF 4
ENDMDL
MODEL 5
REMARK VINA RESULT:      -8.3      3.325      5.609
REMARK  4 active torsions:
REMARK  status: ('A' for Active; 'I' for Inactive)
REMARK    1  A    between atoms: C3_3  and  C4_4 
REMARK       I    between atoms: C4_4  and  N1_6 
REMARK    2  A    between atoms: N1_6  and  C5_7 
REMARK    3  A    between atoms: C8_10  and  N2_11 
REMARK    4  A    between atoms: N2_11  and  C9_12 
ROOT
HETATM    1  C5  UNL     1      26.632   2.367  51.808  1.00  0.00     0.131 A 
HETATM    2  C6  UNL     1      25.360   2.032  52.208  1.00  0.00     0.068 A 
HETATM    3  C7  UNL     1      25.020   0.969  52.987  1.00  0.00     0.044 A 
HETATM    4  C8  UNL     1      23.732   0.664  53.368  1.00  0.00     0.142 A 
HETATM    5  N3  UNL     1      23.663  -0.428  54.130  1.00  0.00    -0.224 NA
HETATM    6  C15 UNL     1      24.678  -1.190  54.522  1.00  0.00     0.236 A 
HETATM    7  N4  UNL     1      25.920  -0.888  54.149  1.00  0.00    -0.240 NA
HETATM    8  C16 UNL     1      26.095   0.199  53.377  1.00  0.00     0.089 A 
HETATM    9  C17 UNL     1      27.383   0.497  53.000  1.00  0.00     0.151 A 
HETATM   10  N5  UNL     1      27.661   1.573  52.220  1.00  0.00    -0.241 NA
ENDROOT
BRANCH   4  11
HETATM   11  N2  UNL     1      22.660   1.484  52.953  1.00  0.00    -0.340 N 
HETATM   12  H8  UNL     1      22.475   2.401  53.400  1.00  0.00     0.167 HD
BRANCH  11  13
HETATM   13  C9  UNL     1      21.706   1.238  51.932  1.00  0.00     0.035 A 
HETATM   14  C10 UNL     1      21.981   1.485  50.606  1.00  0.00     0.029 A 
HETATM   15  C11 UNL     1      21.097   1.258  49.578  1.00  0.00     0.004 A 
HETATM   16  C12 UNL     1      19.849   0.752  49.848  1.00  0.00     0.019 A 
HETATM   17  C13 UNL     1      19.537   0.492  51.161  1.00  0.00     0.013 A 
HETATM   18 BR1  UNL     1      17.833  -0.207  51.600  1.00  0.00    -0.051 Br
HETATM   19  C14 UNL     1      20.460   0.740  52.138  1.00  0.00     0.048 A 
ENDBRANCH  11  13
ENDBRANCH   4  11
BRANCH   1  20
HETATM   20  N1  UNL     1      26.959   3.480  50.996  1.00  0.00    -0.308 N 
HETATM   21  C4  UNL     1      26.219   3.784  49.818  1.00  0.00     0.246 C 
HETATM   22  O1  UNL     1      25.232   3.158  49.350  1.00  0.00    -0.268 OA
HETATM   23  H6  UNL     1      27.761   4.099  51.259  1.00  0.00     0.170 HD
BRANCH  21  24
HETATM   24  C3  UNL     1      26.618   4.950  49.033  1.00  0.00     0.070 C 
HETATM   25  C2  UNL     1      27.828   5.216  48.627  1.00  0.00    -0.026 C 
HETATM   26  C1  UNL     1      28.255   6.401  47.826  1.00  0.00     0.036 C 
ENDBRANCH  21  24
ENDBRANCH   1  20
TORSDOF 4
ENDMDL
MODEL 6
REMARK VINA RESULT:      -8.1      3.989      5.785
REMARK  4 active torsions:
REMARK  status: ('A' for Active; 'I' for Inactive)
REMARK    1  A    between atoms: C3_3  and  C4_4 
REMARK       I    between atoms: C4_4  and  N1_6 
REMARK    2  A    between atoms: N1_6  and  C5_7 
REMARK    3  A    between atoms: C8_10  and  N2_11 
REMARK    4  A    between atoms: N2_11  and  C9_12 
ROOT
HETATM    1  C5  UNL     1      26.128   2.312  51.787  1.00  0.00     0.131 A 
HETATM    2  C6  UNL     1      26.537   3.114  50.748  1.00  0.00     0.068 A 
HETATM    3  C7  UNL     1      25.818   4.124  50.186  1.00  0.00     0.044 A 
HETATM    4  C8  UNL     1      26.262   4.908  49.144  1.00  0.00     0.142 A 
HETATM    5  N3  UNL     1      25.370   5.829  48.774  1.00  0.00    -0.224 NA
HETATM    6  C15 UNL     1      24.170   6.031  49.304  1.00  0.00     0.236 A 
HETATM    7  N4  UNL     1      23.749   5.269  50.311  1.00  0.00    -0.240 NA
HETATM    8  C16 UNL     1      24.577   4.309  50.758  1.00  0.00     0.089 A 
HETATM    9  C17 UNL     1      24.129   3.529  51.798  1.00  0.00     0.151 A 
HETATM   10  N5  UNL     1      24.892   2.535  52.317  1.00  0.00    -0.241 NA
ENDROOT
BRANCH   4  11
HETATM   11  N2  UNL     1      27.543   4.692  48.593  1.00  0.00    -0.340 N 
HETATM   12  H8  UNL     1      27.905   3.736  48.422  1.00  0.00     0.167 HD
BRANCH  11  13
HETATM   13  C9  UNL     1      28.508   5.656  48.198  1.00  0.00     0.035 A 
HETATM   14  C10 UNL     1      28.149   6.934  47.833  1.00  0.00     0.029 A 
HETATM   15  C11 UNL     1      29.042   7.906  47.451  1.00  0.00     0.004 A 
HETATM   16  C12 UNL     1      30.387   7.628  47.418  1.00  0.00     0.019 A 
HETATM   17  C13 UNL     1      30.784   6.361  47.776  1.00  0.00     0.013 A 
HETATM   18 BR1  UNL     1      32.623   5.912  47.753  1.00  0.00    -0.051 Br
HETATM   19  C14 UNL     1      29.847   5.438  48.146  1.00  0.00     0.048 A 
ENDBRANCH  11  13
ENDBRANCH   4  11
BRANCH   1  20
HETATM   20  N1  UNL     1      26.897   1.266  52.353  1.00  0.00    -0.308 N 
HETATM   21  C4  UNL     1      27.744   1.489  53.475  1.00  0.00     0.246 C 
HETATM   22  O1  UNL     1      27.928   2.569  54.094  1.00  0.00    -0.268 OA
HETATM   23  H6  UNL     1      26.848   0.303  51.943  1.00  0.00     0.170 HD
BRANCH  21  24
HETATM   24  C3  UNL     1      28.506   0.358  54.001  1.00  0.00     0.070 C 
HETATM   25  C2  UNL     1      29.393  -0.334  53.343  1.00  0.00    -0.026 C 
HETATM   26  C1  UNL     1      30.179  -1.492  53.862  1.00  0.00     0.036 C 
ENDBRANCH  21  24
ENDBRANCH   1  20
TORSDOF 4
ENDMDL
MODEL 7
REMARK VINA RESULT:      -8.1      2.960      4.912
REMARK  4 active torsions:
REMARK  status: ('A' for Active; 'I' for Inactive)
REMARK    1  A    between atoms: C3_3  and  C4_4 
REMARK       I    between atoms: C4_4  and  N1_6 
REMARK    2  A    between atoms: N1_6  and  C5_7 
REMARK    3  A    between atoms: C8_10  and  N2_11 
REMARK    4  A    between atoms: N2_11  and  C9_12 
ROOT
HETATM    1  C5  UNL     1      26.318   2.441  51.686  1.00  0.00     0.131 A 
HETATM    2  C6  UNL     1      24.980   2.216  51.908  1.00  0.00     0.068 A 
HETATM    3  C7  UNL     1      24.451   1.218  52.667  1.00  0.00     0.044 A 
HETATM    4  C8  UNL     1      23.102   1.024  52.867  1.00  0.00     0.142 A 
HETATM    5  N3  UNL     1      22.841  -0.024  53.651  1.00  0.00    -0.224 NA
HETATM    6  C15 UNL     1      23.728  -0.836  54.214  1.00  0.00     0.236 A 
HETATM    7  N4  UNL     1      25.030  -0.640  54.016  1.00  0.00    -0.240 NA
HETATM    8  C16 UNL     1      25.397   0.393  53.238  1.00  0.00     0.089 A 
HETATM    9  C17 UNL     1      26.744   0.582  53.043  1.00  0.00     0.151 A 
HETATM   10  N5  UNL     1      27.213   1.597  52.273  1.00  0.00    -0.241 NA
ENDROOT
BRANCH   4  11
HETATM   11  N2  UNL     1      22.167   1.897  52.270  1.00  0.00    -0.340 N 
HETATM   12  H8  UNL     1      21.584   2.538  52.840  1.00  0.00     0.167 HD
BRANCH  11  13
HETATM   13  C9  UNL     1      21.864   2.057  50.893  1.00  0.00     0.035 A 
HETATM   14  C10 UNL     1      21.644   0.977  50.067  1.00  0.00     0.029 A 
HETATM   15  C11 UNL     1      21.340   1.077  48.730  1.00  0.00     0.004 A 
HETATM   16  C12 UNL     1      21.239   2.313  48.140  1.00  0.00     0.019 A 
HETATM   17  C13 UNL     1      21.452   3.416  48.933  1.00  0.00     0.013 A 
HETATM   18 BR1  UNL     1      21.327   5.150  48.182  1.00  0.00    -0.051 Br
HETATM   19  C14 UNL     1      21.751   3.251  50.256  1.00  0.00     0.048 A 
ENDBRANCH  11  13
ENDBRANCH   4  11
BRANCH   1  20
HETATM   20  N1  UNL     1      26.842   3.489  50.891  1.00  0.00    -0.308 N 
HETATM   21  C4  UNL     1      26.200   3.903  49.689  1.00  0.00     0.246 C 
HETATM   22  O1  UNL     1      25.144   3.438  49.184  1.00  0.00    -0.268 OA
HETATM   23  H6  UNL     1      27.721   3.976  51.183  1.00  0.00     0.170 HD
BRANCH  21  24
HETATM   24  C3  UNL     1      26.803   4.991  48.923  1.00  0.00     0.070 C 
HETATM   25  C2  UNL     1      28.067   5.104  48.627  1.00  0.00    -0.026 C 
HETATM   26  C1  UNL     1      28.701   6.208  47.848  1.00  0.00     0.036 C 
ENDBRANCH  21  24
ENDBRANCH   1  20
TORSDOF 4
ENDMDL
MODEL 8
REMARK VINA RESULT:      -8.0      3.028      5.264
REMARK  4 active torsions:
REMARK  status: ('A' for Active; 'I' for Inactive)
REMARK    1  A    between atoms: C3_3  and  C4_4 
REMARK       I    between atoms: C4_4  and  N1_6 
REMARK    2  A    between atoms: N1_6  and  C5_7 
REMARK    3  A    between atoms: C8_10  and  N2_11 
REMARK    4  A    between atoms: N2_11  and  C9_12 
ROOT
HETATM    1  C5  UNL     1      26.253   2.489  51.226  1.00  0.00     0.131 A 
HETATM    2  C6  UNL     1      24.979   2.900  51.540  1.00  0.00     0.068 A 
HETATM    3  C7  UNL     1      24.314   3.945  50.976  1.00  0.00     0.044 A 
HETATM    4  C8  UNL     1      23.036   4.328  51.318  1.00  0.00     0.142 A 
HETATM    5  N3  UNL     1      22.609   5.382  50.620  1.00  0.00    -0.224 NA
HETATM    6  C15 UNL     1      23.281   6.042  49.684  1.00  0.00     0.236 A 
HETATM    7  N4  UNL     1      24.516   5.664  49.361  1.00  0.00    -0.240 NA
HETATM    8  C16 UNL     1      25.039   4.608  50.009  1.00  0.00     0.089 A 
HETATM    9  C17 UNL     1      26.314   4.231  49.665  1.00  0.00     0.151 A 
HETATM   10  N5  UNL     1      26.927   3.178  50.263  1.00  0.00    -0.241 NA
ENDROOT
BRANCH   4  11
HETATM   11  N2  UNL     1      22.325   3.616  52.308  1.00  0.00    -0.340 N 
HETATM   12  H8  UNL     1      22.302   3.936  53.293  1.00  0.00     0.167 HD
BRANCH  11  13
HETATM   13  C9  UNL     1      21.568   2.424  52.165  1.00  0.00     0.035 A 
HETATM   14  C10 UNL     1      20.670   2.254  51.136  1.00  0.00     0.029 A 
HETATM   15  C11 UNL     1      19.918   1.118  50.946  1.00  0.00     0.004 A 
HETATM   16  C12 UNL     1      20.042   0.062  51.816  1.00  0.00     0.019 A 
HETATM   17  C13 UNL     1      20.931   0.194  52.856  1.00  0.00     0.013 A 
HETATM   18 BR1  UNL     1      21.150  -1.226  54.090  1.00  0.00    -0.051 Br
HETATM   19  C14 UNL     1      21.649   1.349  52.991  1.00  0.00     0.048 A 
ENDBRANCH  11  13
ENDBRANCH   4  11
BRANCH   1  20
HETATM   20  N1  UNL     1      26.923   1.397  51.830  1.00  0.00    -0.308 N 
HETATM   21  C4  UNL     1      27.534   1.514  53.111  1.00  0.00     0.246 C 
HETATM   22  O1  UNL     1      27.572   2.532  53.851  1.00  0.00    -0.268 OA
HETATM   23  H6  UNL     1      26.976   0.478  51.331  1.00  0.00     0.170 HD
BRANCH  21  24
HETATM   24  C3  UNL     1      28.207   0.342  53.665  1.00  0.00     0.070 C 
HETATM   25  C2  UNL     1      29.408  -0.061  53.361  1.00  0.00    -0.026 C 
HETATM   26  C1  UNL     1      30.111  -1.256  53.916  1.00  0.00     0.036 C 
ENDBRANCH  21  24
ENDBRANCH   1  20
TORSDOF 4
ENDMDL
MODEL 9
REMARK VINA RESULT:      -8.0      2.957      5.982
REMARK  4 active torsions:
REMARK  status: ('A' for Active; 'I' for Inactive)
REMARK    1  A    between atoms: C3_3  and  C4_4 
REMARK       I    between atoms: C4_4  and  N1_6 
REMARK    2  A    between atoms: N1_6  and  C5_7 
REMARK    3  A    between atoms: C8_10  and  N2_11 
REMARK    4  A    between atoms: N2_11  and  C9_12 
ROOT
HETATM    1  C5  UNL     1      24.282   4.934  49.929  1.00  0.00     0.131 A 
HETATM    2  C6  UNL     1      24.075   3.716  50.533  1.00  0.00     0.068 A 
HETATM    3  C7  UNL     1      22.948   3.330  51.189  1.00  0.00     0.044 A 
HETATM    4  C8  UNL     1      22.778   2.098  51.783  1.00  0.00     0.142 A 
HETATM    5  N3  UNL     1      21.583   1.965  52.362  1.00  0.00    -0.224 NA
HETATM    6  C15 UNL     1      20.613   2.871  52.403  1.00  0.00     0.236 A 
HETATM    7  N4  UNL     1      20.787   4.058  51.826  1.00  0.00    -0.240 NA
HETATM    8  C16 UNL     1      21.961   4.292  51.214  1.00  0.00     0.089 A 
HETATM    9  C17 UNL     1      22.125   5.522  50.623  1.00  0.00     0.151 A 
HETATM   10  N5  UNL     1      23.275   5.852  49.982  1.00  0.00    -0.241 NA
ENDROOT
BRANCH   4  11
HETATM   11  N2  UNL     1      23.811   1.138  51.727  1.00  0.00    -0.340 N 
HETATM   12  H8  UNL     1      23.919   0.505  50.914  1.00  0.00     0.167 HD
BRANCH  11  13
HETATM   13  C9  UNL     1      24.819   0.871  52.690  1.00  0.00     0.035 A 
HETATM   14  C10 UNL     1      24.672  -0.113  53.641  1.00  0.00     0.029 A 
HETATM   15  C11 UNL     1      25.619  -0.418  54.590  1.00  0.00     0.004 A 
HETATM   16  C12 UNL     1      26.802   0.280  54.626  1.00  0.00     0.019 A 
HETATM   17  C13 UNL     1      26.986   1.271  53.691  1.00  0.00     0.013 A 
HETATM   18 BR1  UNL     1      28.594   2.269  53.686  1.00  0.00    -0.051 Br
HETATM   19  C14 UNL     1      26.005   1.526  52.774  1.00  0.00     0.048 A 
ENDBRANCH  11  13
ENDBRANCH   4  11
BRANCH   1  20
HETATM   20  N1  UNL     1      25.467   5.312  49.252  1.00  0.00    -0.308 N 
HETATM   21  C4  UNL     1      26.642   4.510  49.305  1.00  0.00     0.246 C 
HETATM   22  O1  UNL     1      26.799   3.420  49.916  1.00  0.00    -0.268 OA
HETATM   23  H6  UNL     1      25.490   6.200  48.698  1.00  0.00     0.170 HD
BRANCH  21  24
HETATM   24  C3  UNL     1      27.825   4.968  48.580  1.00  0.00     0.070 C 
HETATM   25  C2  UNL     1      28.078   6.200  48.239  1.00  0.00    -0.026 C 
HETATM   26  C1  UNL     1      29.279   6.687  47.498  1.00  0.00     0.036 C 
ENDBRANCH  21  24
ENDBRANCH   1  20
TORSDOF 4
ENDMDL
