MODEL 1
REMARK VINA RESULT:      -7.3      0.000      0.000
REMARK  7 active torsions:
REMARK  status: ('A' for Active; 'I' for Inactive)
REMARK    1  A    between atoms: C2_2  and  N1_3 
REMARK    2  A    between atoms: N1_3  and  C3_4 
REMARK    3  A    between atoms: C6_7  and  O1_8 
REMARK    4  A    between atoms: C6_7  and  C7_9 
REMARK    5  A    between atoms: C7_9  and  C8_10 
REMARK    6  A    between atoms: C8_10  and  C9_11 
REMARK    7  A    between atoms: C9_11  and  C10_12 
ROOT
HETATM    1  C3  UNL     1      23.184   2.682  52.079  1.00  0.00     0.255 C 
HETATM    2  C4  UNL     1      23.677   3.852  52.894  1.00  0.00     0.051 C 
HETATM    3  C5  UNL     1      22.614   4.919  52.608  1.00  0.00     0.068 A 
HETATM    4  C6  UNL     1      22.879   5.839  51.466  1.00  0.00     0.101 A 
HETATM    5  C16 UNL     1      22.077   4.655  51.280  1.00  0.00     0.128 A 
HETATM    6  O2  UNL     1      20.702   4.779  51.009  1.00  0.00    -0.353 OA
HETATM    7  C17 UNL     1      20.490   4.869  49.631  1.00  0.00     0.295 C 
HETATM    8  N2  UNL     1      21.497   4.119  48.889  1.00  0.00    -0.358 N 
HETATM    9  C18 UNL     1      22.198   3.104  49.645  1.00  0.00     0.017 C 
HETATM   10  C19 UNL     1      22.537   3.298  50.932  1.00  0.00     0.013 C 
HETATM   11  C20 UNL     1      22.460   1.914  48.795  1.00  0.00     0.059 C 
HETATM   12  C21 UNL     1      22.335   2.505  47.384  1.00  0.00     0.031 C 
HETATM   13  C22 UNL     1      22.099   3.995  47.579  1.00  0.00     0.082 C 
HETATM   14  C23 UNL     1      21.295   4.615  46.477  1.00  0.00     0.032 C 
ENDROOT
BRANCH   4  15
HETATM   15  O1  UNL     1      22.088   7.039  51.541  1.00  0.00    -0.386 OA
HETATM   16  H11 UNL     1      21.200   6.834  51.150  1.00  0.00     0.210 HD
ENDBRANCH   4  15
BRANCH   4  17
HETATM   17  C7  UNL     1      24.259   6.164  51.060  1.00  0.00     0.042 C 
BRANCH  17  18
HETATM   18  C8  UNL     1      24.358   6.179  49.552  1.00  0.00     0.008 C 
BRANCH  18  19
HETATM   19  C9  UNL     1      25.290   5.098  49.045  1.00  0.00     0.038 C 
BRANCH  19  20
HETATM   20  C10 UNL     1      26.585   5.661  48.585  1.00  0.00    -0.058 A 
HETATM   21  C11 UNL     1      26.681   6.958  48.082  1.00  0.00     0.007 A 
HETATM   22  C12 UNL     1      27.898   7.469  47.658  1.00  0.00     0.001 A 
HETATM   23  C13 UNL     1      29.046   6.701  47.724  1.00  0.00     0.000 A 
HETATM   24  C14 UNL     1      28.996   5.411  48.217  1.00  0.00     0.001 A 
HETATM   25  C15 UNL     1      27.765   4.940  48.629  1.00  0.00     0.007 A 
ENDBRANCH  19  20
ENDBRANCH  18  19
ENDBRANCH  17  18
ENDBRANCH   4  17
BRANCH   1  26
HETATM   26  N1  UNL     1      24.250   1.754  51.759  1.00  0.00     0.091 N 
HETATM   27  H6  UNL     1      24.147   0.845  52.227  1.00  0.00     0.316 HD
BRANCH  26  28
HETATM   28  C2  UNL     1      25.494   2.426  52.120  1.00  0.00     0.266 C 
HETATM   29  C1  UNL     1      26.551   2.286  51.076  1.00  0.00     0.037 C 
ENDBRANCH  26  28
ENDBRANCH   1  26
TORSDOF 7
ENDMDL
MODEL 2
REMARK VINA RESULT:      -7.2      2.972      3.682
REMARK  7 active torsions:
REMARK  status: ('A' for Active; 'I' for Inactive)
REMARK    1  A    between atoms: C2_2  and  N1_3 
REMARK    2  A    between atoms: N1_3  and  C3_4 
REMARK    3  A    between atoms: C6_7  and  O1_8 
REMARK    4  A    between atoms: C6_7  and  C7_9 
REMARK    5  A    between atoms: C7_9  and  C8_10 
REMARK    6  A    between atoms: C8_10  and  C9_11 
REMARK    7  A    between atoms: C9_11  and  C10_12 
ROOT
HETATM    1  C3  UNL     1      21.938   0.571  53.185  1.00  0.00     0.255 C 
HETATM    2  C4  UNL     1      23.163   1.334  52.743  1.00  0.00     0.051 C 
HETATM    3  C5  UNL     1      22.594   2.732  52.472  1.00  0.00     0.068 A 
HETATM    4  C6  UNL     1      22.143   3.012  51.079  1.00  0.00     0.101 A 
HETATM    5  C16 UNL     1      21.202   2.568  52.077  1.00  0.00     0.128 A 
HETATM    6  O2  UNL     1      20.203   3.446  52.534  1.00  0.00    -0.353 OA
HETATM    7  C17 UNL     1      19.064   3.338  51.732  1.00  0.00     0.295 C 
HETATM    8  N2  UNL     1      18.912   1.987  51.205  1.00  0.00    -0.358 N 
HETATM    9  C18 UNL     1      19.629   0.956  51.922  1.00  0.00     0.017 C 
HETATM   10  C19 UNL     1      20.853   1.180  52.435  1.00  0.00     0.013 C 
HETATM   11  C20 UNL     1      18.829  -0.295  51.970  1.00  0.00     0.059 C 
HETATM   12  C21 UNL     1      17.853  -0.084  50.804  1.00  0.00     0.031 C 
HETATM   13  C22 UNL     1      18.257   1.232  50.157  1.00  0.00     0.082 C 
HETATM   14  C23 UNL     1      17.111   1.951  49.513  1.00  0.00     0.032 C 
ENDROOT
BRANCH   4  15
HETATM   15  O1  UNL     1      22.046   4.423  50.813  1.00  0.00    -0.386 OA
HETATM   16  H11 UNL     1      22.319   4.900  51.640  1.00  0.00     0.210 HD
ENDBRANCH   4  15
BRANCH   4  17
HETATM   17  C7  UNL     1      22.757   2.319  49.931  1.00  0.00     0.042 C 
BRANCH  17  18
HETATM   18  C8  UNL     1      23.657   3.274  49.179  1.00  0.00     0.008 C 
BRANCH  18  19
HETATM   19  C9  UNL     1      25.063   3.272  49.742  1.00  0.00     0.038 C 
BRANCH  19  20
HETATM   20  C10 UNL     1      25.866   4.405  49.217  1.00  0.00    -0.058 A 
HETATM   21  C11 UNL     1      25.284   5.638  48.923  1.00  0.00     0.007 A 
HETATM   22  C12 UNL     1      26.048   6.686  48.433  1.00  0.00     0.001 A 
HETATM   23  C13 UNL     1      27.406   6.532  48.225  1.00  0.00     0.000 A 
HETATM   24  C14 UNL     1      28.023   5.327  48.505  1.00  0.00     0.001 A 
HETATM   25  C15 UNL     1      27.227   4.308  48.991  1.00  0.00     0.007 A 
ENDBRANCH  19  20
ENDBRANCH  18  19
ENDBRANCH  17  18
ENDBRANCH   4  17
BRANCH   1  26
HETATM   26  N1  UNL     1      22.091  -0.858  52.996  1.00  0.00     0.091 N 
HETATM   27  H6  UNL     1      21.549  -1.220  52.203  1.00  0.00     0.316 HD
BRANCH  26  28
HETATM   28  C2  UNL     1      21.704  -1.477  54.261  1.00  0.00     0.266 C 
HETATM   29  C1  UNL     1      22.743  -1.323  55.321  1.00  0.00     0.037 C 
ENDBRANCH  26  28
ENDBRANCH   1  26
TORSDOF 7
ENDMDL
MODEL 3
REMARK VINA RESULT:      -7.2      2.039      2.754
REMARK  7 active torsions:
REMARK  status: ('A' for Active; 'I' for Inactive)
REMARK    1  A    between atoms: C2_2  and  N1_3 
REMARK    2  A    between atoms: N1_3  and  C3_4 
REMARK    3  A    between atoms: C6_7  and  O1_8 
REMARK    4  A    between atoms: C6_7  and  C7_9 
REMARK    5  A    between atoms: C7_9  and  C8_10 
REMARK    6  A    between atoms: C8_10  and  C9_11 
REMARK    7  A    between atoms: C9_11  and  C10_12 
ROOT
HETATM    1  C3  UNL     1      23.293   1.116  53.324  1.00  0.00     0.255 C 
HETATM    2  C4  UNL     1      24.661   1.751  53.356  1.00  0.00     0.051 C 
HETATM    3  C5  UNL     1      24.347   3.217  53.035  1.00  0.00     0.068 A 
HETATM    4  C6  UNL     1      24.399   3.614  51.600  1.00  0.00     0.101 A 
HETATM    5  C16 UNL     1      23.148   3.235  52.208  1.00  0.00     0.128 A 
HETATM    6  O2  UNL     1      22.144   4.202  52.397  1.00  0.00    -0.353 OA
HETATM    7  C17 UNL     1      21.320   4.266  51.270  1.00  0.00     0.295 C 
HETATM    8  N2  UNL     1      21.218   2.968  50.612  1.00  0.00    -0.358 N 
HETATM    9  C18 UNL     1      21.563   1.828  51.432  1.00  0.00     0.017 C 
HETATM   10  C19 UNL     1      22.571   1.883  52.322  1.00  0.00     0.013 C 
HETATM   11  C20 UNL     1      20.675   0.678  51.121  1.00  0.00     0.059 C 
HETATM   12  C21 UNL     1      20.153   1.056  49.728  1.00  0.00     0.031 C 
HETATM   13  C22 UNL     1      20.868   2.345  49.353  1.00  0.00     0.082 C 
HETATM   14  C23 UNL     1      20.066   3.223  48.441  1.00  0.00     0.032 C 
ENDROOT
BRANCH   4  15
HETATM   15  O1  UNL     1      24.528   5.038  51.434  1.00  0.00    -0.386 OA
HETATM   16  H11 UNL     1      24.756   5.206  50.483  1.00  0.00     0.210 HD
ENDBRANCH   4  15
BRANCH   4  17
HETATM   17  C7  UNL     1      25.282   2.909  50.651  1.00  0.00     0.042 C 
BRANCH  17  18
HETATM   18  C8  UNL     1      25.598   3.811  49.480  1.00  0.00     0.008 C 
BRANCH  18  19
HETATM   19  C9  UNL     1      27.090   3.906  49.237  1.00  0.00     0.038 C 
BRANCH  19  20
HETATM   20  C10 UNL     1      27.466   5.208  48.631  1.00  0.00    -0.058 A 
HETATM   21  C11 UNL     1      26.528   6.221  48.437  1.00  0.00     0.007 A 
HETATM   22  C12 UNL     1      26.895   7.431  47.869  1.00  0.00     0.001 A 
HETATM   23  C13 UNL     1      28.202   7.661  47.482  1.00  0.00     0.000 A 
HETATM   24  C14 UNL     1      29.164   6.683  47.657  1.00  0.00     0.001 A 
HETATM   25  C15 UNL     1      28.757   5.493  48.226  1.00  0.00     0.007 A 
ENDBRANCH  19  20
ENDBRANCH  18  19
ENDBRANCH  17  18
ENDBRANCH   4  17
BRANCH   1  26
HETATM   26  N1  UNL     1      23.361  -0.310  53.076  1.00  0.00     0.091 N 
HETATM   27  H6  UNL     1      22.770  -0.612  52.292  1.00  0.00     0.316 HD
BRANCH  26  28
HETATM   28  C2  UNL     1      22.990  -0.958  54.331  1.00  0.00     0.266 C 
HETATM   29  C1  UNL     1      21.515  -0.981  54.556  1.00  0.00     0.037 C 
ENDBRANCH  26  28
ENDBRANCH   1  26
TORSDOF 7
ENDMDL
MODEL 4
REMARK VINA RESULT:      -7.1      3.079      5.190
REMARK  7 active torsions:
REMARK  status: ('A' for Active; 'I' for Inactive)
REMARK    1  A    between atoms: C2_2  and  N1_3 
REMARK    2  A    between atoms: N1_3  and  C3_4 
REMARK    3  A    between atoms: C6_7  and  O1_8 
REMARK    4  A    between atoms: C6_7  and  C7_9 
REMARK    5  A    between atoms: C7_9  and  C8_10 
REMARK    6  A    between atoms: C8_10  and  C9_11 
REMARK    7  A    between atoms: C9_11  and  C10_12 
ROOT
HETATM    1  C3  UNL     1      22.640   0.914  53.023  1.00  0.00     0.255 C 
HETATM    2  C4  UNL     1      23.992   1.284  53.582  1.00  0.00     0.051 C 
HETATM    3  C5  UNL     1      24.151   2.736  53.114  1.00  0.00     0.068 A 
HETATM    4  C6  UNL     1      24.838   2.947  51.808  1.00  0.00     0.101 A 
HETATM    5  C16 UNL     1      23.399   2.880  51.874  1.00  0.00     0.128 A 
HETATM    6  O2  UNL     1      22.634   4.030  51.612  1.00  0.00    -0.353 OA
HETATM    7  C17 UNL     1      22.345   4.114  50.248  1.00  0.00     0.295 C 
HETATM    8  N2  UNL     1      22.228   2.790  49.647  1.00  0.00    -0.358 N 
HETATM    9  C18 UNL     1      21.974   1.709  50.573  1.00  0.00     0.017 C 
HETATM   10  C19 UNL     1      22.546   1.680  51.791  1.00  0.00     0.013 C 
HETATM   11  C20 UNL     1      21.050   0.715  49.969  1.00  0.00     0.059 C 
HETATM   12  C21 UNL     1      21.202   1.019  48.472  1.00  0.00     0.031 C 
HETATM   13  C22 UNL     1      22.266   2.101  48.375  1.00  0.00     0.082 C 
HETATM   14  C23 UNL     1      22.089   3.000  47.189  1.00  0.00     0.032 C 
ENDROOT
BRANCH   4  15
HETATM   15  O1  UNL     1      25.325   4.293  51.662  1.00  0.00    -0.386 OA
HETATM   16  H11 UNL     1      24.593   4.904  51.938  1.00  0.00     0.210 HD
ENDBRANCH   4  15
BRANCH   4  17
HETATM   17  C7  UNL     1      25.844   1.986  51.319  1.00  0.00     0.042 C 
BRANCH  17  18
HETATM   18  C8  UNL     1      27.223   2.420  51.760  1.00  0.00     0.008 C 
BRANCH  18  19
HETATM   19  C9  UNL     1      27.518   1.979  53.179  1.00  0.00     0.038 C 
BRANCH  19  20
HETATM   20  C10 UNL     1      28.108   0.617  53.219  1.00  0.00    -0.058 A 
HETATM   21  C11 UNL     1      29.434   0.406  53.594  1.00  0.00     0.007 A 
HETATM   22  C12 UNL     1      29.970  -0.872  53.626  1.00  0.00     0.001 A 
HETATM   23  C13 UNL     1      29.198  -1.968  53.287  1.00  0.00     0.000 A 
HETATM   24  C14 UNL     1      27.879  -1.804  52.910  1.00  0.00     0.001 A 
HETATM   25  C15 UNL     1      27.384  -0.515  52.891  1.00  0.00     0.007 A 
ENDBRANCH  19  20
ENDBRANCH  18  19
ENDBRANCH  17  18
ENDBRANCH   4  17
BRANCH   1  26
HETATM   26  N1  UNL     1      22.489  -0.519  52.870  1.00  0.00     0.091 N 
HETATM   27  H6  UNL     1      22.192  -0.795  51.927  1.00  0.00     0.316 HD
BRANCH  26  28
HETATM   28  C2  UNL     1      21.539  -0.938  53.897  1.00  0.00     0.266 C 
HETATM   29  C1  UNL     1      20.736   0.197  54.438  1.00  0.00     0.037 C 
ENDBRANCH  26  28
ENDBRANCH   1  26
TORSDOF 7
ENDMDL
MODEL 5
REMARK VINA RESULT:      -7.0      2.553      6.297
REMARK  7 active torsions:
REMARK  status: ('A' for Active; 'I' for Inactive)
REMARK    1  A    between atoms: C2_2  and  N1_3 
REMARK    2  A    between atoms: N1_3  and  C3_4 
REMARK    3  A    between atoms: C6_7  and  O1_8 
REMARK    4  A    between atoms: C6_7  and  C7_9 
REMARK    5  A    between atoms: C7_9  and  C8_10 
REMARK    6  A    between atoms: C8_10  and  C9_11 
REMARK    7  A    between atoms: C9_11  and  C10_12 
ROOT
HETATM    1  C3  UNL     1      22.372   3.258  49.290  1.00  0.00     0.255 C 
HETATM    2  C4  UNL     1      22.671   2.150  50.269  1.00  0.00     0.051 C 
HETATM    3  C5  UNL     1      22.915   2.922  51.570  1.00  0.00     0.068 A 
HETATM    4  C6  UNL     1      24.323   3.311  51.864  1.00  0.00     0.101 A 
HETATM    5  C16 UNL     1      23.431   4.235  51.208  1.00  0.00     0.128 A 
HETATM    6  O2  UNL     1      23.013   5.397  51.881  1.00  0.00    -0.353 OA
HETATM    7  C17 UNL     1      23.910   6.441  51.642  1.00  0.00     0.295 C 
HETATM    8  N2  UNL     1      24.519   6.326  50.322  1.00  0.00    -0.358 N 
HETATM    9  C18 UNL     1      23.800   5.501  49.376  1.00  0.00     0.017 C 
HETATM   10  C19 UNL     1      23.177   4.373  49.762  1.00  0.00     0.013 C 
HETATM   11  C20 UNL     1      23.884   6.083  48.011  1.00  0.00     0.059 C 
HETATM   12  C21 UNL     1      25.114   6.993  48.137  1.00  0.00     0.031 C 
HETATM   13  C22 UNL     1      25.655   6.768  49.541  1.00  0.00     0.082 C 
HETATM   14  C23 UNL     1      26.353   7.968  50.104  1.00  0.00     0.032 C 
ENDROOT
BRANCH   4  15
HETATM   15  O1  UNL     1      24.522   3.623  53.255  1.00  0.00    -0.386 OA
HETATM   16  H11 UNL     1      24.842   4.561  53.305  1.00  0.00     0.210 HD
ENDBRANCH   4  15
BRANCH   4  17
HETATM   17  C7  UNL     1      25.452   2.508  51.357  1.00  0.00     0.042 C 
BRANCH  17  18
HETATM   18  C8  UNL     1      26.073   1.726  52.491  1.00  0.00     0.008 C 
BRANCH  18  19
HETATM   19  C9  UNL     1      25.826   0.238  52.342  1.00  0.00     0.038 C 
BRANCH  19  20
HETATM   20  C10 UNL     1      24.833  -0.254  53.330  1.00  0.00    -0.058 A 
HETATM   21  C11 UNL     1      25.224  -0.741  54.578  1.00  0.00     0.007 A 
HETATM   22  C12 UNL     1      24.285  -1.197  55.489  1.00  0.00     0.001 A 
HETATM   23  C13 UNL     1      22.937  -1.179  55.181  1.00  0.00     0.000 A 
HETATM   24  C14 UNL     1      22.507  -0.704  53.957  1.00  0.00     0.001 A 
HETATM   25  C15 UNL     1      23.473  -0.259  53.078  1.00  0.00     0.007 A 
ENDBRANCH  19  20
ENDBRANCH  18  19
ENDBRANCH  17  18
ENDBRANCH   4  17
BRANCH   1  26
HETATM   26  N1  UNL     1      22.622   2.856  47.920  1.00  0.00     0.091 N 
HETATM   27  H6  UNL     1      23.541   3.156  47.573  1.00  0.00     0.316 HD
BRANCH  26  28
HETATM   28  C2  UNL     1      21.524   3.405  47.129  1.00  0.00     0.266 C 
HETATM   29  C1  UNL     1      21.908   3.669  45.712  1.00  0.00     0.037 C 
ENDBRANCH  26  28
ENDBRANCH   1  26
TORSDOF 7
ENDMDL
MODEL 6
REMARK VINA RESULT:      -6.9      7.551     10.641
REMARK  7 active torsions:
REMARK  status: ('A' for Active; 'I' for Inactive)
REMARK    1  A    between atoms: C2_2  and  N1_3 
REMARK    2  A    between atoms: N1_3  and  C3_4 
REMARK    3  A    between atoms: C6_7  and  O1_8 
REMARK    4  A    between atoms: C6_7  and  C7_9 
REMARK    5  A    between atoms: C7_9  and  C8_10 
REMARK    6  A    between atoms: C8_10  and  C9_11 
REMARK    7  A    between atoms: C9_11  and  C10_12 
ROOT
HETATM    1  C3  UNL     1      32.476   7.354  49.137  1.00  0.00     0.255 C 
HETATM    2  C4  UNL     1      33.242   6.365  48.294  1.00  0.00     0.051 C 
HETATM    3  C5  UNL     1      34.166   7.279  47.479  1.00  0.00     0.068 A 
HETATM    4  C6  UNL     1      33.657   7.735  46.155  1.00  0.00     0.101 A 
HETATM    5  C16 UNL     1      33.488   8.559  47.325  1.00  0.00     0.128 A 
HETATM    6  O2  UNL     1      34.187   9.775  47.430  1.00  0.00    -0.353 OA
HETATM    7  C17 UNL     1      33.438  10.811  46.866  1.00  0.00     0.295 C 
HETATM    8  N2  UNL     1      32.007  10.572  47.013  1.00  0.00    -0.358 N 
HETATM    9  C18 UNL     1      31.637   9.631  48.047  1.00  0.00     0.017 C 
HETATM   10  C19 UNL     1      32.376   8.534  48.294  1.00  0.00     0.013 C 
HETATM   11  C20 UNL     1      30.385  10.065  48.719  1.00  0.00     0.059 C 
HETATM   12  C21 UNL     1      29.785  11.016  47.674  1.00  0.00     0.031 C 
HETATM   13  C22 UNL     1      30.719  10.958  46.475  1.00  0.00     0.082 C 
HETATM   14  C23 UNL     1      30.745  12.230  45.683  1.00  0.00     0.032 C 
ENDROOT
BRANCH   4  15
HETATM   15  O1  UNL     1      34.716   8.199  45.297  1.00  0.00    -0.386 OA
HETATM   16  H11 UNL     1      35.564   8.125  45.807  1.00  0.00     0.210 HD
ENDBRANCH   4  15
BRANCH   4  17
HETATM   17  C7  UNL     1      32.704   6.913  45.386  1.00  0.00     0.042 C 
BRANCH  17  18
HETATM   18  C8  UNL     1      33.401   6.304  44.191  1.00  0.00     0.008 C 
BRANCH  18  19
HETATM   19  C9  UNL     1      33.122   4.819  44.082  1.00  0.00     0.038 C 
BRANCH  19  20
HETATM   20  C10 UNL     1      33.460   4.103  45.338  1.00  0.00    -0.058 A 
HETATM   21  C11 UNL     1      34.775   4.004  45.791  1.00  0.00     0.007 A 
HETATM   22  C12 UNL     1      35.074   3.332  46.966  1.00  0.00     0.001 A 
HETATM   23  C13 UNL     1      34.072   2.745  47.717  1.00  0.00     0.000 A 
HETATM   24  C14 UNL     1      32.755   2.820  47.304  1.00  0.00     0.001 A 
HETATM   25  C15 UNL     1      32.500   3.498  46.128  1.00  0.00     0.007 A 
ENDBRANCH  19  20
ENDBRANCH  18  19
ENDBRANCH  17  18
ENDBRANCH   4  17
BRANCH   1  26
HETATM   26  N1  UNL     1      31.210   6.814  49.593  1.00  0.00     0.091 N 
HETATM   27  H6  UNL     1      31.282   6.325  50.493  1.00  0.00     0.316 HD
BRANCH  26  28
HETATM   28  C2  UNL     1      30.734   5.942  48.523  1.00  0.00     0.266 C 
HETATM   29  C1  UNL     1      29.347   6.274  48.082  1.00  0.00     0.037 C 
ENDBRANCH  26  28
ENDBRANCH   1  26
TORSDOF 7
ENDMDL
MODEL 7
REMARK VINA RESULT:      -6.9      2.361      6.530
REMARK  7 active torsions:
REMARK  status: ('A' for Active; 'I' for Inactive)
REMARK    1  A    between atoms: C2_2  and  N1_3 
REMARK    2  A    between atoms: N1_3  and  C3_4 
REMARK    3  A    between atoms: C6_7  and  O1_8 
REMARK    4  A    between atoms: C6_7  and  C7_9 
REMARK    5  A    between atoms: C7_9  and  C8_10 
REMARK    6  A    between atoms: C8_10  and  C9_11 
REMARK    7  A    between atoms: C9_11  and  C10_12 
ROOT
HETATM    1  C3  UNL     1      22.579   5.876  49.419  1.00  0.00     0.255 C 
HETATM    2  C4  UNL     1      21.114   5.566  49.602  1.00  0.00     0.051 C 
HETATM    3  C5  UNL     1      21.048   5.172  51.083  1.00  0.00     0.068 A 
HETATM    4  C6  UNL     1      21.206   3.724  51.398  1.00  0.00     0.101 A 
HETATM    5  C16 UNL     1      22.343   4.610  51.443  1.00  0.00     0.128 A 
HETATM    6  O2  UNL     1      22.950   4.904  52.677  1.00  0.00    -0.353 OA
HETATM    7  C17 UNL     1      23.950   3.969  52.956  1.00  0.00     0.295 C 
HETATM    8  N2  UNL     1      24.573   3.477  51.732  1.00  0.00    -0.358 N 
HETATM    9  C18 UNL     1      24.403   4.318  50.568  1.00  0.00     0.017 C 
HETATM   10  C19 UNL     1      23.250   4.972  50.338  1.00  0.00     0.013 C 
HETATM   11  C20 UNL     1      25.635   4.310  49.738  1.00  0.00     0.059 C 
HETATM   12  C21 UNL     1      26.323   3.022  50.214  1.00  0.00     0.031 C 
HETATM   13  C22 UNL     1      25.364   2.384  51.208  1.00  0.00     0.082 C 
HETATM   14  C23 UNL     1      26.057   1.573  52.260  1.00  0.00     0.032 C 
ENDROOT
BRANCH   4  15
HETATM   15  O1  UNL     1      20.706   3.396  52.707  1.00  0.00    -0.386 OA
HETATM   16  H11 UNL     1      21.187   3.968  53.360  1.00  0.00     0.210 HD
ENDBRANCH   4  15
BRANCH   4  17
HETATM   17  C7  UNL     1      20.806   2.690  50.427  1.00  0.00     0.042 C 
BRANCH  17  18
HETATM   18  C8  UNL     1      21.749   1.512  50.515  1.00  0.00     0.008 C 
BRANCH  18  19
HETATM   19  C9  UNL     1      21.043   0.270  51.020  1.00  0.00     0.038 C 
BRANCH  19  20
HETATM   20  C10 UNL     1      21.539  -0.137  52.359  1.00  0.00    -0.058 A 
HETATM   21  C11 UNL     1      20.666  -0.537  53.370  1.00  0.00     0.007 A 
HETATM   22  C12 UNL     1      21.146  -0.915  54.615  1.00  0.00     0.001 A 
HETATM   23  C13 UNL     1      22.503  -0.901  54.881  1.00  0.00     0.000 A 
HETATM   24  C14 UNL     1      23.402  -0.512  53.907  1.00  0.00     0.001 A 
HETATM   25  C15 UNL     1      22.884  -0.144  52.681  1.00  0.00     0.007 A 
ENDBRANCH  19  20
ENDBRANCH  18  19
ENDBRANCH  17  18
ENDBRANCH   4  17
BRANCH   1  26
HETATM   26  N1  UNL     1      22.990   5.762  48.034  1.00  0.00     0.091 N 
HETATM   27  H6  UNL     1      22.735   6.581  47.469  1.00  0.00     0.316 HD
BRANCH  26  28
HETATM   28  C2  UNL     1      22.383   4.532  47.531  1.00  0.00     0.266 C 
HETATM   29  C1  UNL     1      22.004   4.621  46.091  1.00  0.00     0.037 C 
ENDBRANCH  26  28
ENDBRANCH   1  26
TORSDOF 7
ENDMDL
MODEL 8
REMARK VINA RESULT:      -6.9      2.864      6.610
REMARK  7 active torsions:
REMARK  status: ('A' for Active; 'I' for Inactive)
REMARK    1  A    between atoms: C2_2  and  N1_3 
REMARK    2  A    between atoms: N1_3  and  C3_4 
REMARK    3  A    between atoms: C6_7  and  O1_8 
REMARK    4  A    between atoms: C6_7  and  C7_9 
REMARK    5  A    between atoms: C7_9  and  C8_10 
REMARK    6  A    between atoms: C8_10  and  C9_11 
REMARK    7  A    between atoms: C9_11  and  C10_12 
ROOT
HETATM    1  C3  UNL     1      23.329   3.933  52.752  1.00  0.00     0.255 C 
HETATM    2  C4  UNL     1      22.095   3.828  51.891  1.00  0.00     0.051 C 
HETATM    3  C5  UNL     1      21.594   2.415  52.211  1.00  0.00     0.068 A 
HETATM    4  C6  UNL     1      22.080   1.317  51.328  1.00  0.00     0.101 A 
HETATM    5  C16 UNL     1      22.755   1.611  52.567  1.00  0.00     0.128 A 
HETATM    6  O2  UNL     1      22.707   0.685  53.625  1.00  0.00    -0.353 OA
HETATM    7  C17 UNL     1      23.767  -0.220  53.521  1.00  0.00     0.295 C 
HETATM    8  N2  UNL     1      24.937   0.402  52.911  1.00  0.00    -0.358 N 
HETATM    9  C18 UNL     1      24.966   1.847  52.954  1.00  0.00     0.017 C 
HETATM   10  C19 UNL     1      23.847   2.576  52.794  1.00  0.00     0.013 C 
HETATM   11  C20 UNL     1      26.353   2.331  53.178  1.00  0.00     0.059 C 
HETATM   12  C21 UNL     1      27.181   1.114  52.743  1.00  0.00     0.031 C 
HETATM   13  C22 UNL     1      26.178   0.090  52.233  1.00  0.00     0.082 C 
HETATM   14  C23 UNL     1      26.634  -1.326  52.415  1.00  0.00     0.032 C 
ENDROOT
BRANCH   4  15
HETATM   15  O1  UNL     1      21.249   0.144  51.413  1.00  0.00    -0.386 OA
HETATM   16  H11 UNL     1      20.430   0.397  51.913  1.00  0.00     0.210 HD
ENDBRANCH   4  15
BRANCH   4  17
HETATM   17  C7  UNL     1      22.446   1.580  49.924  1.00  0.00     0.042 C 
BRANCH  17  18
HETATM   18  C8  UNL     1      21.389   1.012  49.004  1.00  0.00     0.008 C 
BRANCH  18  19
HETATM   19  C9  UNL     1      20.688   2.103  48.221  1.00  0.00     0.038 C 
BRANCH  19  20
HETATM   20  C10 UNL     1      19.700   2.830  49.056  1.00  0.00    -0.058 A 
HETATM   21  C11 UNL     1      19.692   4.222  49.135  1.00  0.00     0.007 A 
HETATM   22  C12 UNL     1      18.762   4.886  49.920  1.00  0.00     0.001 A 
HETATM   23  C13 UNL     1      17.819   4.179  50.644  1.00  0.00     0.000 A 
HETATM   24  C14 UNL     1      17.790   2.799  50.593  1.00  0.00     0.001 A 
HETATM   25  C15 UNL     1      18.733   2.176  49.800  1.00  0.00     0.007 A 
ENDBRANCH  19  20
ENDBRANCH  18  19
ENDBRANCH  17  18
ENDBRANCH   4  17
BRANCH   1  26
HETATM   26  N1  UNL     1      24.255   4.931  52.255  1.00  0.00     0.091 N 
HETATM   27  H6  UNL     1      24.092   5.865  52.649  1.00  0.00     0.316 HD
BRANCH  26  28
HETATM   28  C2  UNL     1      24.129   4.912  50.800  1.00  0.00     0.266 C 
HETATM   29  C1  UNL     1      25.398   4.527  50.115  1.00  0.00     0.037 C 
ENDBRANCH  26  28
ENDBRANCH   1  26
TORSDOF 7
ENDMDL
MODEL 9
REMARK VINA RESULT:      -6.8      2.784      4.213
REMARK  7 active torsions:
REMARK  status: ('A' for Active; 'I' for Inactive)
REMARK    1  A    between atoms: C2_2  and  N1_3 
REMARK    2  A    between atoms: N1_3  and  C3_4 
REMARK    3  A    between atoms: C6_7  and  O1_8 
REMARK    4  A    between atoms: C6_7  and  C7_9 
REMARK    5  A    between atoms: C7_9  and  C8_10 
REMARK    6  A    between atoms: C8_10  and  C9_11 
REMARK    7  A    between atoms: C9_11  and  C10_12 
ROOT
HETATM    1  C3  UNL     1      23.677   1.021  52.107  1.00  0.00     0.255 C 
HETATM    2  C4  UNL     1      22.467   0.730  52.961  1.00  0.00     0.051 C 
HETATM    3  C5  UNL     1      21.390   0.435  51.910  1.00  0.00     0.068 A 
HETATM    4  C6  UNL     1      20.564   1.590  51.456  1.00  0.00     0.101 A 
HETATM    5  C16 UNL     1      21.732   1.190  50.712  1.00  0.00     0.128 A 
HETATM    6  O2  UNL     1      21.584   0.632  49.429  1.00  0.00    -0.353 OA
HETATM    7  C17 UNL     1      21.588   1.641  48.462  1.00  0.00     0.295 C 
HETATM    8  N2  UNL     1      22.421   2.766  48.872  1.00  0.00    -0.358 N 
HETATM    9  C18 UNL     1      23.400   2.473  49.896  1.00  0.00     0.017 C 
HETATM   10  C19 UNL     1      23.125   1.632  50.909  1.00  0.00     0.013 C 
HETATM   11  C20 UNL     1      24.657   3.224  49.641  1.00  0.00     0.059 C 
HETATM   12  C21 UNL     1      24.165   4.349  48.720  1.00  0.00     0.031 C 
HETATM   13  C22 UNL     1      22.658   4.171  48.615  1.00  0.00     0.082 C 
HETATM   14  C23 UNL     1      22.095   4.656  47.314  1.00  0.00     0.032 C 
ENDROOT
BRANCH   4  15
HETATM   15  O1  UNL     1      19.337   1.168  50.834  1.00  0.00    -0.386 OA
HETATM   16  H11 UNL     1      19.370   0.179  50.753  1.00  0.00     0.210 HD
ENDBRANCH   4  15
BRANCH   4  17
HETATM   17  C7  UNL     1      20.313   2.738  52.348  1.00  0.00     0.042 C 
BRANCH  17  18
HETATM   18  C8  UNL     1      20.724   4.019  51.660  1.00  0.00     0.008 C 
BRANCH  18  19
HETATM   19  C9  UNL     1      21.887   4.683  52.369  1.00  0.00     0.038 C 
BRANCH  19  20
HETATM   20  C10 UNL     1      22.390   5.860  51.616  1.00  0.00    -0.058 A 
HETATM   21  C11 UNL     1      23.738   6.215  51.630  1.00  0.00     0.007 A 
HETATM   22  C12 UNL     1      24.192   7.316  50.921  1.00  0.00     0.001 A 
HETATM   23  C13 UNL     1      23.314   8.089  50.183  1.00  0.00     0.000 A 
HETATM   24  C14 UNL     1      21.970   7.772  50.141  1.00  0.00     0.001 A 
HETATM   25  C15 UNL     1      21.559   6.668  50.861  1.00  0.00     0.007 A 
ENDBRANCH  19  20
ENDBRANCH  18  19
ENDBRANCH  17  18
ENDBRANCH   4  17
BRANCH   1  26
HETATM   26  N1  UNL     1      24.659   1.821  52.811  1.00  0.00     0.091 N 
HETATM   27  H6  UNL     1      24.576   2.825  52.614  1.00  0.00     0.316 HD
BRANCH  26  28
HETATM   28  C2  UNL     1      25.964   1.287  52.431  1.00  0.00     0.266 C 
HETATM   29  C1  UNL     1      26.057  -0.192  52.610  1.00  0.00     0.037 C 
ENDBRANCH  26  28
ENDBRANCH   1  26
TORSDOF 7
ENDMDL
