MODEL 1
REMARK VINA RESULT:      -9.5      0.000      0.000
REMARK  3 active torsions:
REMARK  status: ('A' for Active; 'I' for Inactive)
REMARK    1  A    between atoms: O1_2  and  C2_3 
REMARK    2  A    between atoms: C7_8  and  C8_9 
REMARK    3  A    between atoms: C24_27  and  C25_28 
ROOT
HETATM    1  C8  UNL     1      25.985  -0.096  52.934  1.00  0.00    -0.021 A 
HETATM    2  C9  UNL     1      24.917  -0.470  53.719  1.00  0.00     0.013 A 
HETATM    3  C10 UNL     1      23.697   0.019  53.355  1.00  0.00     0.016 A 
HETATM    4  C11 UNL     1      23.425   0.845  52.288  1.00  0.00     0.008 A 
HETATM    5  C12 UNL     1      24.558   1.166  51.561  1.00  0.00     0.047 A 
HETATM    6  C13 UNL     1      25.833   0.725  51.843  1.00  0.00     0.042 A 
HETATM    7  N1  UNL     1      24.123   2.018  50.514  1.00  0.00    -0.322 N 
HETATM    8  C14 UNL     1      22.724   2.208  50.615  1.00  0.00     0.259 A 
HETATM    9  O2  UNL     1      22.201   2.937  49.758  1.00  0.00    -0.267 OA
HETATM   10  C15 UNL     1      22.237   1.469  51.743  1.00  0.00     0.067 A 
HETATM   11  C16 UNL     1      21.026   1.359  52.144  1.00  0.00     0.026 C 
HETATM   12  C17 UNL     1      20.220   0.611  53.268  1.00  0.00     0.071 C 
HETATM   13  C18 UNL     1      19.212   0.011  52.304  1.00  0.00     0.003 A 
HETATM   14  C19 UNL     1      18.720   1.111  51.832  1.00  0.00     0.043 A 
HETATM   15  C20 UNL     1      17.367   1.904  51.501  1.00  0.00     0.039 C 
HETATM   16  C21 UNL     1      18.095   2.049  50.139  1.00  0.00     0.018 C 
HETATM   17  C22 UNL     1      18.581   0.587  50.038  1.00  0.00     0.010 C 
HETATM   18  C23 UNL     1      18.140  -0.330  51.229  1.00  0.00     0.042 A 
HETATM   19  C24 UNL     1      19.174   3.006  50.801  1.00  0.00     0.150 C 
HETATM   20  N2  UNL     1      19.842   2.032  51.629  1.00  0.00    -0.361 N 
HETATM   21  H11 UNL     1      24.783   2.428  49.787  1.00  0.00     0.169 HD
ENDROOT
BRANCH  19  22
HETATM   22  C25 UNL     1      18.494   3.999  51.578  1.00  0.00     0.256 C 
HETATM   23  O3  UNL     1      18.173   4.921  50.814  1.00  0.00    -0.305 OA
ENDBRANCH  19  22
BRANCH   1  24
HETATM   24  C7  UNL     1      27.331  -0.560  53.230  1.00  0.00     0.007 A 
HETATM   25  C2  UNL     1      28.346   0.176  53.854  1.00  0.00     0.079 A 
HETATM   26  C3  UNL     1      29.562  -0.451  54.044  1.00  0.00     0.037 A 
HETATM   27  C4  UNL     1      29.774  -1.740  53.641  1.00  0.00     0.003 A 
HETATM   28  C5  UNL     1      28.794  -2.491  53.023  1.00  0.00     0.001 A 
HETATM   29  C6  UNL     1      27.579  -1.868  52.833  1.00  0.00     0.015 A 
BRANCH  25  30
HETATM   30  O1  UNL     1      27.927   1.446  54.177  1.00  0.00    -0.355 OA
HETATM   31  C1  UNL     1      28.393   2.634  53.619  1.00  0.00     0.210 C 
ENDBRANCH  25  30
ENDBRANCH   1  24
TORSDOF 3
ENDMDL
MODEL 2
REMARK VINA RESULT:      -9.4      6.418     10.336
REMARK  3 active torsions:
REMARK  status: ('A' for Active; 'I' for Inactive)
REMARK    1  A    between atoms: O1_2  and  C2_3 
REMARK    2  A    between atoms: C7_8  and  C8_9 
REMARK    3  A    between atoms: C24_27  and  C25_28 
ROOT
HETATM    1  C8  UNL     1      24.967   3.821  49.515  1.00  0.00    -0.021 A 
HETATM    2  C9  UNL     1      26.269   3.378  49.442  1.00  0.00     0.013 A 
HETATM    3  C10 UNL     1      27.196   4.285  49.022  1.00  0.00     0.016 A 
HETATM    4  C11 UNL     1      26.965   5.594  48.665  1.00  0.00     0.008 A 
HETATM    5  C12 UNL     1      25.630   5.947  48.769  1.00  0.00     0.047 A 
HETATM    6  C13 UNL     1      24.618   5.108  49.182  1.00  0.00     0.042 A 
HETATM    7  N1  UNL     1      25.551   7.303  48.363  1.00  0.00    -0.322 N 
HETATM    8  C14 UNL     1      26.843   7.765  48.014  1.00  0.00     0.259 A 
HETATM    9  O2  UNL     1      26.927   8.943  47.637  1.00  0.00    -0.267 OA
HETATM   10  C15 UNL     1      27.780   6.694  48.196  1.00  0.00     0.067 A 
HETATM   11  C16 UNL     1      29.049   6.726  48.020  1.00  0.00     0.026 C 
HETATM   12  C17 UNL     1      30.285   5.767  48.181  1.00  0.00     0.071 C 
HETATM   13  C18 UNL     1      31.085   6.753  49.013  1.00  0.00     0.003 A 
HETATM   14  C19 UNL     1      31.167   7.712  48.148  1.00  0.00     0.043 A 
HETATM   15  C20 UNL     1      32.160   8.741  47.425  1.00  0.00     0.039 C 
HETATM   16  C21 UNL     1      31.063   9.728  47.901  1.00  0.00     0.018 C 
HETATM   17  C22 UNL     1      30.905   9.148  49.324  1.00  0.00     0.010 C 
HETATM   18  C23 UNL     1      31.856   7.947  49.647  1.00  0.00     0.042 A 
HETATM   19  C24 UNL     1      30.032   9.104  46.869  1.00  0.00     0.150 C 
HETATM   20  N2  UNL     1      29.859   7.816  47.496  1.00  0.00    -0.361 N 
HETATM   21  H11 UNL     1      24.639   7.850  48.340  1.00  0.00     0.169 HD
ENDROOT
BRANCH  19  22
HETATM   22  C25 UNL     1      30.666   9.000  45.589  1.00  0.00     0.256 C 
HETATM   23  O3  UNL     1      29.875   8.437  44.820  1.00  0.00    -0.305 OA
ENDBRANCH  19  22
BRANCH   1  24
HETATM   24  C7  UNL     1      23.897   2.937  49.951  1.00  0.00     0.007 A 
HETATM   25  C2  UNL     1      23.643   2.524  51.265  1.00  0.00     0.079 A 
HETATM   26  C3  UNL     1      22.572   1.678  51.470  1.00  0.00     0.037 A 
HETATM   27  C4  UNL     1      21.785   1.255  50.435  1.00  0.00     0.003 A 
HETATM   28  C5  UNL     1      22.009   1.644  49.130  1.00  0.00     0.001 A 
HETATM   29  C6  UNL     1      23.078   2.490  48.922  1.00  0.00     0.015 A 
BRANCH  25  30
HETATM   30  O1  UNL     1      24.549   3.061  52.151  1.00  0.00    -0.355 OA
HETATM   31  C1  UNL     1      25.148   2.399  53.220  1.00  0.00     0.210 C 
ENDBRANCH  25  30
ENDBRANCH   1  24
TORSDOF 3
ENDMDL
MODEL 3
REMARK VINA RESULT:      -9.2      6.602     10.188
REMARK  3 active torsions:
REMARK  status: ('A' for Active; 'I' for Inactive)
REMARK    1  A    between atoms: O1_2  and  C2_3 
REMARK    2  A    between atoms: C7_8  and  C8_9 
REMARK    3  A    between atoms: C24_27  and  C25_28 
ROOT
HETATM    1  C8  UNL     1      24.893   4.127  50.203  1.00  0.00    -0.021 A 
HETATM    2  C9  UNL     1      25.943   3.916  49.336  1.00  0.00     0.013 A 
HETATM    3  C10 UNL     1      26.661   5.018  48.976  1.00  0.00     0.016 A 
HETATM    4  C11 UNL     1      26.446   6.313  49.388  1.00  0.00     0.008 A 
HETATM    5  C12 UNL     1      25.373   6.425  50.254  1.00  0.00     0.047 A 
HETATM    6  C13 UNL     1      24.584   5.378  50.680  1.00  0.00     0.042 A 
HETATM    7  N1  UNL     1      25.273   7.802  50.578  1.00  0.00    -0.322 N 
HETATM    8  C14 UNL     1      26.291   8.518  49.904  1.00  0.00     0.259 A 
HETATM    9  O2  UNL     1      26.326   9.743  50.095  1.00  0.00    -0.267 OA
HETATM   10  C15 UNL     1      27.068   7.595  49.128  1.00  0.00     0.067 A 
HETATM   11  C16 UNL     1      28.096   7.849  48.407  1.00  0.00     0.026 C 
HETATM   12  C17 UNL     1      29.136   7.070  47.522  1.00  0.00     0.071 C 
HETATM   13  C18 UNL     1      30.346   7.675  48.212  1.00  0.00     0.003 A 
HETATM   14  C19 UNL     1      30.123   8.919  47.935  1.00  0.00     0.043 A 
HETATM   15  C20 UNL     1      30.770  10.269  47.365  1.00  0.00     0.039 C 
HETATM   16  C21 UNL     1      30.156  10.810  48.683  1.00  0.00     0.018 C 
HETATM   17  C22 UNL     1      30.621   9.648  49.588  1.00  0.00     0.010 C 
HETATM   18  C23 UNL     1      31.461   8.548  48.856  1.00  0.00     0.042 A 
HETATM   19  C24 UNL     1      28.692  10.588  48.109  1.00  0.00     0.150 C 
HETATM   20  N2  UNL     1      28.684   9.145  48.103  1.00  0.00    -0.361 N 
HETATM   21  H11 UNL     1      24.531   8.192  51.234  1.00  0.00     0.169 HD
ENDROOT
BRANCH  19  22
HETATM   22  C25 UNL     1      28.628  11.134  46.787  1.00  0.00     0.256 C 
HETATM   23  O3  UNL     1      27.529  10.826  46.304  1.00  0.00    -0.305 OA
ENDBRANCH  19  22
BRANCH   1  24
HETATM   24  C7  UNL     1      24.061   3.023  50.654  1.00  0.00     0.007 A 
HETATM   25  C2  UNL     1      23.006   2.433  49.946  1.00  0.00     0.079 A 
HETATM   26  C3  UNL     1      22.336   1.390  50.554  1.00  0.00     0.037 A 
HETATM   27  C4  UNL     1      22.683   0.945  51.800  1.00  0.00     0.003 A 
HETATM   28  C5  UNL     1      23.717   1.505  52.523  1.00  0.00     0.001 A 
HETATM   29  C6  UNL     1      24.388   2.547  51.918  1.00  0.00     0.015 A 
BRANCH  25  30
HETATM   30  O1  UNL     1      22.822   3.029  48.719  1.00  0.00    -0.355 OA
HETATM   31  C1  UNL     1      22.366   2.405  47.561  1.00  0.00     0.210 C 
ENDBRANCH  25  30
ENDBRANCH   1  24
TORSDOF 3
ENDMDL
MODEL 4
REMARK VINA RESULT:      -9.0      5.065      7.713
REMARK  3 active torsions:
REMARK  status: ('A' for Active; 'I' for Inactive)
REMARK    1  A    between atoms: O1_2  and  C2_3 
REMARK    2  A    between atoms: C7_8  and  C8_9 
REMARK    3  A    between atoms: C24_27  and  C25_28 
ROOT
HETATM    1  C8  UNL     1      23.677   2.200  52.072  1.00  0.00    -0.021 A 
HETATM    2  C9  UNL     1      23.199   3.471  52.302  1.00  0.00     0.013 A 
HETATM    3  C10 UNL     1      23.827   4.483  51.640  1.00  0.00     0.016 A 
HETATM    4  C11 UNL     1      24.887   4.367  50.769  1.00  0.00     0.008 A 
HETATM    5  C12 UNL     1      25.297   3.055  50.603  1.00  0.00     0.047 A 
HETATM    6  C13 UNL     1      24.731   1.962  51.224  1.00  0.00     0.042 A 
HETATM    7  N1  UNL     1      26.388   3.098  49.698  1.00  0.00    -0.322 N 
HETATM    8  C14 UNL     1      26.631   4.440  49.319  1.00  0.00     0.259 A 
HETATM    9  O2  UNL     1      27.564   4.630  48.524  1.00  0.00    -0.267 OA
HETATM   10  C15 UNL     1      25.686   5.287  49.987  1.00  0.00     0.067 A 
HETATM   11  C16 UNL     1      25.559   6.557  49.879  1.00  0.00     0.026 C 
HETATM   12  C17 UNL     1      24.625   7.698  50.424  1.00  0.00     0.071 C 
HETATM   13  C18 UNL     1      24.318   8.259  49.047  1.00  0.00     0.003 A 
HETATM   14  C19 UNL     1      25.522   8.575  48.695  1.00  0.00     0.043 A 
HETATM   15  C20 UNL     1      26.447   9.732  48.085  1.00  0.00     0.039 C 
HETATM   16  C21 UNL     1      26.853   8.558  47.157  1.00  0.00     0.018 C 
HETATM   17  C22 UNL     1      25.426   8.024  46.906  1.00  0.00     0.010 C 
HETATM   18  C23 UNL     1      24.291   8.846  47.606  1.00  0.00     0.042 A 
HETATM   19  C24 UNL     1      27.572   7.829  48.371  1.00  0.00     0.150 C 
HETATM   20  N2  UNL     1      26.398   7.486  49.137  1.00  0.00    -0.361 N 
HETATM   21  H11 UNL     1      26.912   2.228  49.379  1.00  0.00     0.169 HD
ENDROOT
BRANCH  19  22
HETATM   22  C25 UNL     1      28.402   8.778  49.051  1.00  0.00     0.256 C 
HETATM   23  O3  UNL     1      29.575   8.391  48.953  1.00  0.00    -0.305 OA
ENDBRANCH  19  22
BRANCH   1  24
HETATM   24  C7  UNL     1      23.081   1.045  52.725  1.00  0.00     0.007 A 
HETATM   25  C2  UNL     1      23.733   0.140  53.573  1.00  0.00     0.079 A 
HETATM   26  C3  UNL     1      22.983  -0.896  54.094  1.00  0.00     0.037 A 
HETATM   27  C4  UNL     1      21.656  -1.039  53.798  1.00  0.00     0.003 A 
HETATM   28  C5  UNL     1      20.986  -0.165  52.966  1.00  0.00     0.001 A 
HETATM   29  C6  UNL     1      21.731   0.871  52.445  1.00  0.00     0.015 A 
BRANCH  25  30
HETATM   30  O1  UNL     1      25.059   0.464  53.738  1.00  0.00    -0.355 OA
HETATM   31  C1  UNL     1      25.953  -0.144  54.616  1.00  0.00     0.210 C 
ENDBRANCH  25  30
ENDBRANCH   1  24
TORSDOF 3
ENDMDL
MODEL 5
REMARK VINA RESULT:      -8.9      5.415      8.012
REMARK  3 active torsions:
REMARK  status: ('A' for Active; 'I' for Inactive)
REMARK    1  A    between atoms: O1_2  and  C2_3 
REMARK    2  A    between atoms: C7_8  and  C8_9 
REMARK    3  A    between atoms: C24_27  and  C25_28 
ROOT
HETATM    1  C8  UNL     1      24.248   2.578  51.735  1.00  0.00    -0.021 A 
HETATM    2  C9  UNL     1      25.216   2.568  50.754  1.00  0.00     0.013 A 
HETATM    3  C10 UNL     1      25.519   3.771  50.189  1.00  0.00     0.016 A 
HETATM    4  C11 UNL     1      24.959   4.990  50.497  1.00  0.00     0.008 A 
HETATM    5  C12 UNL     1      23.999   4.901  51.490  1.00  0.00     0.047 A 
HETATM    6  C13 UNL     1      23.620   3.737  52.124  1.00  0.00     0.042 A 
HETATM    7  N1  UNL     1      23.515   6.218  51.686  1.00  0.00    -0.322 N 
HETATM    8  C14 UNL     1      24.188   7.102  50.808  1.00  0.00     0.259 A 
HETATM    9  O2  UNL     1      23.863   8.298  50.870  1.00  0.00    -0.267 OA
HETATM   10  C15 UNL     1      25.126   6.350  50.026  1.00  0.00     0.067 A 
HETATM   11  C16 UNL     1      25.945   6.793  49.147  1.00  0.00     0.026 C 
HETATM   12  C17 UNL     1      27.077   6.239  48.207  1.00  0.00     0.071 C 
HETATM   13  C18 UNL     1      28.107   7.261  48.657  1.00  0.00     0.003 A 
HETATM   14  C19 UNL     1      27.484   8.334  48.292  1.00  0.00     0.043 A 
HETATM   15  C20 UNL     1      27.621   9.724  47.506  1.00  0.00     0.039 C 
HETATM   16  C21 UNL     1      27.010  10.236  48.836  1.00  0.00     0.018 C 
HETATM   17  C22 UNL     1      27.902   9.397  49.778  1.00  0.00     0.010 C 
HETATM   18  C23 UNL     1      28.959   8.502  49.048  1.00  0.00     0.042 A 
HETATM   19  C24 UNL     1      25.635   9.518  48.498  1.00  0.00     0.150 C 
HETATM   20  N2  UNL     1      26.071   8.150  48.636  1.00  0.00    -0.361 N 
HETATM   21  H11 UNL     1      22.761   6.460  52.398  1.00  0.00     0.169 HD
ENDROOT
BRANCH  19  22
HETATM   22  C25 UNL     1      25.270   9.835  47.150  1.00  0.00     0.256 C 
HETATM   23  O3  UNL     1      24.079  10.179  47.153  1.00  0.00    -0.305 OA
ENDBRANCH  19  22
BRANCH   1  24
HETATM   24  C7  UNL     1      23.847   1.351  52.405  1.00  0.00     0.007 A 
HETATM   25  C2  UNL     1      24.574   0.663  53.385  1.00  0.00     0.079 A 
HETATM   26  C3  UNL     1      24.015  -0.490  53.899  1.00  0.00     0.037 A 
HETATM   27  C4  UNL     1      22.799  -0.949  53.472  1.00  0.00     0.003 A 
HETATM   28  C5  UNL     1      22.060  -0.293  52.508  1.00  0.00     0.001 A 
HETATM   29  C6  UNL     1      22.615   0.859  51.993  1.00  0.00     0.015 A 
BRANCH  25  30
HETATM   30  O1  UNL     1      25.765   1.290  53.668  1.00  0.00    -0.355 OA
HETATM   31  C1  UNL     1      26.885   0.706  54.254  1.00  0.00     0.210 C 
ENDBRANCH  25  30
ENDBRANCH   1  24
TORSDOF 3
ENDMDL
MODEL 6
REMARK VINA RESULT:      -8.7      6.431      9.412
REMARK  3 active torsions:
REMARK  status: ('A' for Active; 'I' for Inactive)
REMARK    1  A    between atoms: O1_2  and  C2_3 
REMARK    2  A    between atoms: C7_8  and  C8_9 
REMARK    3  A    between atoms: C24_27  and  C25_28 
ROOT
HETATM    1  C8  UNL     1      24.018   3.565  50.007  1.00  0.00    -0.021 A 
HETATM    2  C9  UNL     1      23.500   4.809  49.722  1.00  0.00     0.013 A 
HETATM    3  C10 UNL     1      24.378   5.735  49.244  1.00  0.00     0.016 A 
HETATM    4  C11 UNL     1      25.724   5.557  49.019  1.00  0.00     0.008 A 
HETATM    5  C12 UNL     1      26.152   4.279  49.335  1.00  0.00     0.047 A 
HETATM    6  C13 UNL     1      25.347   3.272  49.823  1.00  0.00     0.042 A 
HETATM    7  N1  UNL     1      27.542   4.253  49.062  1.00  0.00    -0.322 N 
HETATM    8  C14 UNL     1      27.950   5.520  48.580  1.00  0.00     0.259 A 
HETATM    9  O2  UNL     1      29.151   5.645  48.297  1.00  0.00    -0.267 OA
HETATM   10  C15 UNL     1      26.808   6.387  48.536  1.00  0.00     0.067 A 
HETATM   11  C16 UNL     1      26.760   7.599  48.126  1.00  0.00     0.026 C 
HETATM   12  C17 UNL     1      25.689   8.733  47.923  1.00  0.00     0.071 C 
HETATM   13  C18 UNL     1      26.085   9.004  46.482  1.00  0.00     0.003 A 
HETATM   14  C19 UNL     1      27.313   9.356  46.683  1.00  0.00     0.043 A 
HETATM   15  C20 UNL     1      28.428  10.461  46.359  1.00  0.00     0.039 C 
HETATM   16  C21 UNL     1      29.218   9.178  45.992  1.00  0.00     0.018 C 
HETATM   17  C22 UNL     1      28.080   8.482  45.213  1.00  0.00     0.010 C 
HETATM   18  C23 UNL     1      26.756   9.313  45.113  1.00  0.00     0.042 A 
HETATM   19  C24 UNL     1      29.261   8.750  47.521  1.00  0.00     0.150 C 
HETATM   20  N2  UNL     1      27.861   8.449  47.695  1.00  0.00    -0.361 N 
HETATM   21  H11 UNL     1      28.148   3.391  49.211  1.00  0.00     0.169 HD
ENDROOT
BRANCH  19  22
HETATM   22  C25 UNL     1      29.672   9.877  48.303  1.00  0.00     0.256 C 
HETATM   23  O3  UNL     1      29.657   9.535  49.494  1.00  0.00    -0.305 OA
ENDBRANCH  19  22
BRANCH   1  24
HETATM   24  C7  UNL     1      23.171   2.500  50.522  1.00  0.00     0.007 A 
HETATM   25  C2  UNL     1      23.073   2.086  51.857  1.00  0.00     0.079 A 
HETATM   26  C3  UNL     1      22.205   1.050  52.139  1.00  0.00     0.037 A 
HETATM   27  C4  UNL     1      21.467   0.446  51.159  1.00  0.00     0.003 A 
HETATM   28  C5  UNL     1      21.542   0.831  49.835  1.00  0.00     0.001 A 
HETATM   29  C6  UNL     1      22.408   1.865  49.550  1.00  0.00     0.015 A 
BRANCH  25  30
HETATM   30  O1  UNL     1      23.897   2.821  52.678  1.00  0.00    -0.355 OA
HETATM   31  C1  UNL     1      24.964   2.331  53.426  1.00  0.00     0.210 C 
ENDBRANCH  25  30
ENDBRANCH   1  24
TORSDOF 3
ENDMDL
MODEL 7
REMARK VINA RESULT:      -8.3      6.122      7.805
REMARK  3 active torsions:
REMARK  status: ('A' for Active; 'I' for Inactive)
REMARK    1  A    between atoms: O1_2  and  C2_3 
REMARK    2  A    between atoms: C7_8  and  C8_9 
REMARK    3  A    between atoms: C24_27  and  C25_28 
ROOT
HETATM    1  C8  UNL     1      29.197   7.004  47.931  1.00  0.00    -0.021 A 
HETATM    2  C9  UNL     1      28.919   5.656  47.987  1.00  0.00     0.013 A 
HETATM    3  C10 UNL     1      27.712   5.309  48.518  1.00  0.00     0.016 A 
HETATM    4  C11 UNL     1      26.748   6.163  49.002  1.00  0.00     0.008 A 
HETATM    5  C12 UNL     1      27.117   7.493  48.905  1.00  0.00     0.047 A 
HETATM    6  C13 UNL     1      28.310   7.949  48.386  1.00  0.00     0.042 A 
HETATM    7  N1  UNL     1      26.039   8.239  49.446  1.00  0.00    -0.322 N 
HETATM    8  C14 UNL     1      25.020   7.352  49.868  1.00  0.00     0.259 A 
HETATM    9  O2  UNL     1      24.008   7.869  50.365  1.00  0.00    -0.267 OA
HETATM   10  C15 UNL     1      25.438   6.007  49.599  1.00  0.00     0.067 A 
HETATM   11  C16 UNL     1      24.780   4.927  49.805  1.00  0.00     0.026 C 
HETATM   12  C17 UNL     1      24.953   3.381  49.576  1.00  0.00     0.071 C 
HETATM   13  C18 UNL     1      23.619   3.224  48.867  1.00  0.00     0.003 A 
HETATM   14  C19 UNL     1      22.844   3.613  49.826  1.00  0.00     0.043 A 
HETATM   15  C20 UNL     1      21.530   3.261  50.673  1.00  0.00     0.039 C 
HETATM   16  C21 UNL     1      21.199   4.722  50.276  1.00  0.00     0.018 C 
HETATM   17  C22 UNL     1      21.635   4.610  48.798  1.00  0.00     0.010 C 
HETATM   18  C23 UNL     1      22.143   3.190  48.375  1.00  0.00     0.042 A 
HETATM   19  C24 UNL     1      22.362   5.257  51.215  1.00  0.00     0.150 C 
HETATM   20  N2  UNL     1      23.488   4.769  50.457  1.00  0.00    -0.361 N 
HETATM   21  H11 UNL     1      26.040   9.302  49.504  1.00  0.00     0.169 HD
ENDROOT
BRANCH  19  22
HETATM   22  C25 UNL     1      22.253   4.616  52.492  1.00  0.00     0.256 C 
HETATM   23  O3  UNL     1      23.299   4.842  53.117  1.00  0.00    -0.305 OA
ENDBRANCH  19  22
BRANCH   1  24
HETATM   24  C7  UNL     1      30.455   7.488  47.383  1.00  0.00     0.007 A 
HETATM   25  C2  UNL     1      31.670   7.607  48.069  1.00  0.00     0.079 A 
HETATM   26  C3  UNL     1      32.754   8.091  47.364  1.00  0.00     0.037 A 
HETATM   27  C4  UNL     1      32.652   8.442  46.046  1.00  0.00     0.003 A 
HETATM   28  C5  UNL     1      31.469   8.336  45.342  1.00  0.00     0.001 A 
HETATM   29  C6  UNL     1      30.385   7.853  46.044  1.00  0.00     0.015 A 
BRANCH  25  30
HETATM   30  O1  UNL     1      31.555   7.203  49.379  1.00  0.00    -0.355 OA
HETATM   31  C1  UNL     1      31.996   5.993  49.909  1.00  0.00     0.210 C 
ENDBRANCH  25  30
ENDBRANCH   1  24
TORSDOF 3
ENDMDL
MODEL 8
REMARK VINA RESULT:      -8.2      6.584      8.536
REMARK  3 active torsions:
REMARK  status: ('A' for Active; 'I' for Inactive)
REMARK    1  A    between atoms: O1_2  and  C2_3 
REMARK    2  A    between atoms: C7_8  and  C8_9 
REMARK    3  A    between atoms: C24_27  and  C25_28 
ROOT
HETATM    1  C8  UNL     1      27.985   7.901  47.276  1.00  0.00    -0.021 A 
HETATM    2  C9  UNL     1      26.671   8.257  47.482  1.00  0.00     0.013 A 
HETATM    3  C10 UNL     1      25.889   7.343  48.124  1.00  0.00     0.016 A 
HETATM    4  C11 UNL     1      26.276   6.106  48.585  1.00  0.00     0.008 A 
HETATM    5  C12 UNL     1      27.610   5.838  48.333  1.00  0.00     0.047 A 
HETATM    6  C13 UNL     1      28.484   6.691  47.693  1.00  0.00     0.042 A 
HETATM    7  N1  UNL     1      27.854   4.541  48.852  1.00  0.00    -0.322 N 
HETATM    8  C14 UNL     1      26.661   4.030  49.418  1.00  0.00     0.259 A 
HETATM    9  O2  UNL     1      26.725   2.895  49.914  1.00  0.00    -0.267 OA
HETATM   10  C15 UNL     1      25.623   5.008  49.267  1.00  0.00     0.067 A 
HETATM   11  C16 UNL     1      24.412   4.935  49.679  1.00  0.00     0.026 C 
HETATM   12  C17 UNL     1      23.120   5.830  49.702  1.00  0.00     0.071 C 
HETATM   13  C18 UNL     1      22.894   5.663  51.194  1.00  0.00     0.003 A 
HETATM   14  C19 UNL     1      22.745   4.378  51.223  1.00  0.00     0.043 A 
HETATM   15  C20 UNL     1      21.827   3.179  51.759  1.00  0.00     0.039 C 
HETATM   16  C21 UNL     1      23.215   2.683  52.244  1.00  0.00     0.018 C 
HETATM   17  C22 UNL     1      23.708   4.039  52.795  1.00  0.00     0.010 C 
HETATM   18  C23 UNL     1      22.675   5.209  52.666  1.00  0.00     0.042 A 
HETATM   19  C24 UNL     1      23.666   2.434  50.742  1.00  0.00     0.150 C 
HETATM   20  N2  UNL     1      23.743   3.809  50.313  1.00  0.00    -0.361 N 
HETATM   21  H11 UNL     1      28.804   4.064  48.802  1.00  0.00     0.169 HD
ENDROOT
BRANCH  19  22
HETATM   22  C25 UNL     1      22.631   1.714  50.063  1.00  0.00     0.256 C 
HETATM   23  O3  UNL     1      22.782   1.894  48.847  1.00  0.00    -0.305 OA
ENDBRANCH  19  22
BRANCH   1  24
HETATM   24  C7  UNL     1      28.909   8.800  46.602  1.00  0.00     0.007 A 
HETATM   25  C2  UNL     1      29.678   9.805  47.202  1.00  0.00     0.079 A 
HETATM   26  C3  UNL     1      30.498  10.554  46.381  1.00  0.00     0.037 A 
HETATM   27  C4  UNL     1      30.560  10.330  45.034  1.00  0.00     0.003 A 
HETATM   28  C5  UNL     1      29.814   9.347  44.413  1.00  0.00     0.001 A 
HETATM   29  C6  UNL     1      28.996   8.598  45.231  1.00  0.00     0.015 A 
BRANCH  25  30
HETATM   30  O1  UNL     1      29.467   9.865  48.560  1.00  0.00    -0.355 OA
HETATM   31  C1  UNL     1      30.418   9.639  49.553  1.00  0.00     0.210 C 
ENDBRANCH  25  30
ENDBRANCH   1  24
TORSDOF 3
ENDMDL
MODEL 9
REMARK VINA RESULT:      -8.2      5.617      7.734
REMARK  3 active torsions:
REMARK  status: ('A' for Active; 'I' for Inactive)
REMARK    1  A    between atoms: O1_2  and  C2_3 
REMARK    2  A    between atoms: C7_8  and  C8_9 
REMARK    3  A    between atoms: C24_27  and  C25_28 
ROOT
HETATM    1  C8  UNL     1      26.696   7.833  49.195  1.00  0.00    -0.021 A 
HETATM    2  C9  UNL     1      26.654   6.700  48.412  1.00  0.00     0.013 A 
HETATM    3  C10 UNL     1      25.825   5.703  48.833  1.00  0.00     0.016 A 
HETATM    4  C11 UNL     1      25.030   5.711  49.956  1.00  0.00     0.008 A 
HETATM    5  C12 UNL     1      25.140   6.887  50.678  1.00  0.00     0.047 A 
HETATM    6  C13 UNL     1      25.946   7.953  50.340  1.00  0.00     0.042 A 
HETATM    7  N1  UNL     1      24.281   6.742  51.796  1.00  0.00    -0.322 N 
HETATM    8  C14 UNL     1      23.652   5.475  51.744  1.00  0.00     0.259 A 
HETATM    9  O2  UNL     1      22.865   5.208  52.665  1.00  0.00    -0.267 OA
HETATM   10  C15 UNL     1      24.107   4.781  50.574  1.00  0.00     0.067 A 
HETATM   11  C16 UNL     1      23.745   3.625  50.158  1.00  0.00     0.026 C 
HETATM   12  C17 UNL     1      24.023   2.672  48.939  1.00  0.00     0.071 C 
HETATM   13  C18 UNL     1      22.553   2.468  48.619  1.00  0.00     0.003 A 
HETATM   14  C19 UNL     1      22.185   1.933  49.738  1.00  0.00     0.043 A 
HETATM   15  C20 UNL     1      21.387   0.715  50.408  1.00  0.00     0.039 C 
HETATM   16  C21 UNL     1      20.725   1.902  51.154  1.00  0.00     0.018 C 
HETATM   17  C22 UNL     1      20.538   2.810  49.919  1.00  0.00     0.010 C 
HETATM   18  C23 UNL     1      21.024   2.182  48.569  1.00  0.00     0.042 A 
HETATM   19  C24 UNL     1      22.082   2.192  51.926  1.00  0.00     0.150 C 
HETATM   20  N2  UNL     1      22.862   2.670  50.810  1.00  0.00    -0.361 N 
HETATM   21  H11 UNL     1      24.157   7.497  52.536  1.00  0.00     0.169 HD
ENDROOT
BRANCH  19  22
HETATM   22  C25 UNL     1      22.587   0.959  52.449  1.00  0.00     0.256 C 
HETATM   23  O3  UNL     1      23.616   1.215  53.091  1.00  0.00    -0.305 OA
ENDBRANCH  19  22
BRANCH   1  24
HETATM   24  C7  UNL     1      27.546   8.959  48.840  1.00  0.00     0.007 A 
HETATM   25  C2  UNL     1      27.189  10.048  48.035  1.00  0.00     0.079 A 
HETATM   26  C3  UNL     1      28.147  11.018  47.817  1.00  0.00     0.037 A 
HETATM   27  C4  UNL     1      29.398  10.925  48.361  1.00  0.00     0.003 A 
HETATM   28  C5  UNL     1      29.779   9.864  49.158  1.00  0.00     0.001 A 
HETATM   29  C6  UNL     1      28.825   8.895  49.378  1.00  0.00     0.015 A 
BRANCH  25  30
HETATM   30  O1  UNL     1      25.891   9.947  47.589  1.00  0.00    -0.355 OA
HETATM   31  C1  UNL     1      25.482   9.834  46.262  1.00  0.00     0.210 C 
ENDBRANCH  25  30
ENDBRANCH   1  24
TORSDOF 3
ENDMDL
