MODEL 1
REMARK VINA RESULT:      -6.8      0.000      0.000
REMARK  4 active torsions:
REMARK  status: ('A' for Active; 'I' for Inactive)
REMARK    1  A    between atoms: C3_3  and  C4_4 
REMARK    2  A    between atoms: C5_5  and  N1_6 
REMARK    3  A    between atoms: N1_6  and  C6_7 
REMARK    4  A    between atoms: C6_7  and  N2_8 
ROOT
HETATM    1  C1  UNL     1      29.954  -1.263  53.821  1.00  0.00     0.112 C 
HETATM    2  C2  UNL     1      28.832  -0.385  53.443  1.00  0.00    -0.106 C 
HETATM    3  C3  UNL     1      27.910   0.339  53.142  1.00  0.00    -0.078 C 
ENDROOT
BRANCH   3   4
HETATM    4  C4  UNL     1      26.816   1.167  52.789  1.00  0.00     0.081 C 
HETATM    5  C5  UNL     1      26.843   1.890  51.682  1.00  0.00     0.093 C 
BRANCH   5   6
HETATM    6  N1  UNL     1      25.871   2.781  51.136  1.00  0.00    -0.382 N 
HETATM    7  H6  UNL     1      25.200   3.138  51.848  1.00  0.00     0.160 HD
BRANCH   6   8
HETATM    8  C6  UNL     1      26.026   2.992  49.719  1.00  0.00     0.253 C 
BRANCH   8   9
HETATM    9  N2  UNL     1      26.333   4.417  49.489  1.00  0.00    -0.310 N 
HETATM   10  C7  UNL     1      27.508   5.071  48.865  1.00  0.00     0.082 A 
HETATM   11  C8  UNL     1      28.417   5.772  48.262  1.00  0.00     0.035 C 
HETATM   12  C15 UNL     1      26.427   5.807  49.369  1.00  0.00     0.158 A 
HETATM   13  C9  UNL     1      29.885   5.823  47.974  1.00  0.00     0.223 C 
HETATM   14  O1  UNL     1      30.421   6.966  48.428  1.00  0.00    -0.302 OA
HETATM   15  N3  UNL     1      30.953   7.237  49.572  1.00  0.00    -0.202 NA
HETATM   16  C10 UNL     1      31.309   8.715  49.534  1.00  0.00     0.144 C 
HETATM   17  H12 UNL     1      30.298   7.067  50.358  1.00  0.00     0.154 HD
HETATM   18  C11 UNL     1      30.011   9.429  49.311  1.00  0.00    -0.010 C 
HETATM   19  C12 UNL     1      28.712   9.257  49.257  1.00  0.00    -0.001 C 
HETATM   20  C13 UNL     1      27.289   8.984  49.218  1.00  0.00     0.019 C 
HETATM   21  C14 UNL     1      26.263   8.160  49.336  1.00  0.00     0.119 C 
HETATM   22  N4  UNL     1      25.809   6.886  49.609  1.00  0.00    -0.241 NA
ENDBRANCH   8   9
ENDBRANCH   6   8
ENDBRANCH   5   6
ENDBRANCH   3   4
TORSDOF 4
ENDMDL
MODEL 2
REMARK VINA RESULT:      -6.7      2.456      3.530
REMARK  4 active torsions:
REMARK  status: ('A' for Active; 'I' for Inactive)
REMARK    1  A    between atoms: C3_3  and  C4_4 
REMARK    2  A    between atoms: C5_5  and  N1_6 
REMARK    3  A    between atoms: N1_6  and  C6_7 
REMARK    4  A    between atoms: C6_7  and  N2_8 
ROOT
HETATM    1  C1  UNL     1      21.110  -0.205  54.562  1.00  0.00     0.112 C 
HETATM    2  C2  UNL     1      22.324   0.235  53.852  1.00  0.00    -0.106 C 
HETATM    3  C3  UNL     1      23.322   0.604  53.274  1.00  0.00    -0.078 C 
ENDROOT
BRANCH   3   4
HETATM    4  C4  UNL     1      24.476   1.046  52.580  1.00  0.00     0.081 C 
HETATM    5  C5  UNL     1      25.283   1.946  53.113  1.00  0.00     0.093 C 
BRANCH   5   6
HETATM    6  N1  UNL     1      26.482   2.529  52.602  1.00  0.00    -0.382 N 
HETATM    7  H6  UNL     1      26.982   3.114  53.304  1.00  0.00     0.160 HD
BRANCH   6   8
HETATM    8  C6  UNL     1      26.741   2.184  51.227  1.00  0.00     0.253 C 
BRANCH   8   9
HETATM    9  N2  UNL     1      26.273   3.291  50.372  1.00  0.00    -0.310 N 
HETATM   10  C7  UNL     1      27.016   4.209  49.475  1.00  0.00     0.082 A 
HETATM   11  C8  UNL     1      27.513   5.012  48.586  1.00  0.00     0.035 C 
HETATM   12  C15 UNL     1      25.626   4.289  49.637  1.00  0.00     0.158 A 
HETATM   13  C9  UNL     1      28.739   5.802  48.249  1.00  0.00     0.223 C 
HETATM   14  O1  UNL     1      28.447   7.105  48.121  1.00  0.00    -0.302 OA
HETATM   15  N3  UNL     1      28.459   8.050  49.001  1.00  0.00    -0.202 NA
HETATM   16  C10 UNL     1      27.956   9.297  48.290  1.00  0.00     0.144 C 
HETATM   17  H12 UNL     1      27.836   7.844  49.805  1.00  0.00     0.154 HD
HETATM   18  C11 UNL     1      26.575   8.955  47.821  1.00  0.00    -0.010 C 
HETATM   19  C12 UNL     1      25.632   8.048  47.901  1.00  0.00    -0.001 C 
HETATM   20  C13 UNL     1      24.640   7.001  48.044  1.00  0.00     0.019 C 
HETATM   21  C14 UNL     1      24.229   5.856  48.559  1.00  0.00     0.119 C 
HETATM   22  N4  UNL     1      24.487   4.786  49.392  1.00  0.00    -0.241 NA
ENDBRANCH   8   9
ENDBRANCH   6   8
ENDBRANCH   5   6
ENDBRANCH   3   4
TORSDOF 4
ENDMDL
MODEL 3
REMARK VINA RESULT:      -6.3      2.798      4.125
REMARK  4 active torsions:
REMARK  status: ('A' for Active; 'I' for Inactive)
REMARK    1  A    between atoms: C3_3  and  C4_4 
REMARK    2  A    between atoms: C5_5  and  N1_6 
REMARK    3  A    between atoms: N1_6  and  C6_7 
REMARK    4  A    between atoms: C6_7  and  N2_8 
ROOT
HETATM    1  C1  UNL     1      22.606  -1.174  54.695  1.00  0.00     0.112 C 
HETATM    2  C2  UNL     1      23.299  -0.307  53.725  1.00  0.00    -0.106 C 
HETATM    3  C3  UNL     1      23.863   0.412  52.931  1.00  0.00    -0.078 C 
ENDROOT
BRANCH   3   4
HETATM    4  C4  UNL     1      24.509   1.243  51.982  1.00  0.00     0.081 C 
HETATM    5  C5  UNL     1      25.559   1.970  52.324  1.00  0.00     0.093 C 
BRANCH   5   6
HETATM    6  N1  UNL     1      26.355   2.865  51.547  1.00  0.00    -0.382 N 
HETATM    7  H6  UNL     1      27.101   3.333  52.103  1.00  0.00     0.160 HD
BRANCH   6   8
HETATM    8  C6  UNL     1      25.954   2.929  50.165  1.00  0.00     0.253 C 
BRANCH   8   9
HETATM    9  N2  UNL     1      26.686   4.033  49.516  1.00  0.00    -0.310 N 
HETATM   10  C7  UNL     1      26.268   5.415  49.182  1.00  0.00     0.082 A 
HETATM   11  C8  UNL     1      26.077   6.671  48.921  1.00  0.00     0.035 C 
HETATM   12  C15 UNL     1      27.552   4.936  48.890  1.00  0.00     0.158 A 
HETATM   13  C9  UNL     1      25.029   7.655  48.502  1.00  0.00     0.223 C 
HETATM   14  O1  UNL     1      25.388   8.282  47.372  1.00  0.00    -0.302 OA
HETATM   15  N3  UNL     1      25.151   7.976  46.140  1.00  0.00    -0.202 NA
HETATM   16  C10 UNL     1      25.879   9.013  45.298  1.00  0.00     0.144 C 
HETATM   17  H12 UNL     1      25.505   7.033  45.896  1.00  0.00     0.154 HD
HETATM   18  C11 UNL     1      27.325   8.874  45.665  1.00  0.00    -0.010 C 
HETATM   19  C12 UNL     1      28.174   8.133  46.334  1.00  0.00    -0.001 C 
HETATM   20  C13 UNL     1      29.047   7.259  47.094  1.00  0.00     0.019 C 
HETATM   21  C14 UNL     1      29.252   6.185  47.835  1.00  0.00     0.119 C 
HETATM   22  N4  UNL     1      28.728   5.060  48.439  1.00  0.00    -0.241 NA
ENDBRANCH   8   9
ENDBRANCH   6   8
ENDBRANCH   5   6
ENDBRANCH   3   4
TORSDOF 4
ENDMDL
MODEL 4
REMARK VINA RESULT:      -6.3      2.311      2.895
REMARK  4 active torsions:
REMARK  status: ('A' for Active; 'I' for Inactive)
REMARK    1  A    between atoms: C3_3  and  C4_4 
REMARK    2  A    between atoms: C5_5  and  N1_6 
REMARK    3  A    between atoms: N1_6  and  C6_7 
REMARK    4  A    between atoms: C6_7  and  N2_8 
ROOT
HETATM    1  C1  UNL     1      27.980  -0.883  53.402  1.00  0.00     0.112 C 
HETATM    2  C2  UNL     1      26.872  -0.092  52.838  1.00  0.00    -0.106 C 
HETATM    3  C3  UNL     1      25.963   0.565  52.382  1.00  0.00    -0.078 C 
ENDROOT
BRANCH   3   4
HETATM    4  C4  UNL     1      24.882   1.317  51.858  1.00  0.00     0.081 C 
HETATM    5  C5  UNL     1      24.306   2.264  52.578  1.00  0.00     0.093 C 
BRANCH   5   6
HETATM    6  N1  UNL     1      23.219   3.134  52.259  1.00  0.00    -0.382 N 
HETATM    7  H6  UNL     1      22.403   2.634  51.849  1.00  0.00     0.160 HD
BRANCH   6   8
HETATM    8  C6  UNL     1      23.486   4.515  52.573  1.00  0.00     0.253 C 
BRANCH   8   9
HETATM    9  N2  UNL     1      23.846   5.217  51.326  1.00  0.00    -0.310 N 
HETATM   10  C7  UNL     1      24.922   4.957  50.340  1.00  0.00     0.082 A 
HETATM   11  C8  UNL     1      25.746   4.795  49.352  1.00  0.00     0.035 C 
HETATM   12  C15 UNL     1      24.016   6.016  50.192  1.00  0.00     0.158 A 
HETATM   13  C9  UNL     1      27.130   4.333  49.018  1.00  0.00     0.223 C 
HETATM   14  O1  UNL     1      27.826   5.307  48.413  1.00  0.00    -0.302 OA
HETATM   15  N3  UNL     1      28.588   6.220  48.916  1.00  0.00    -0.202 NA
HETATM   16  C10 UNL     1      29.037   7.087  47.749  1.00  0.00     0.144 C 
HETATM   17  H12 UNL     1      28.087   6.812  49.604  1.00  0.00     0.154 HD
HETATM   18  C11 UNL     1      27.776   7.639  47.159  1.00  0.00    -0.010 C 
HETATM   19  C12 UNL     1      26.483   7.740  47.348  1.00  0.00    -0.001 C 
HETATM   20  C13 UNL     1      25.063   7.809  47.633  1.00  0.00     0.019 C 
HETATM   21  C14 UNL     1      24.022   7.558  48.406  1.00  0.00     0.119 C 
HETATM   22  N4  UNL     1      23.537   7.015  49.579  1.00  0.00    -0.241 NA
ENDBRANCH   8   9
ENDBRANCH   6   8
ENDBRANCH   5   6
ENDBRANCH   3   4
TORSDOF 4
ENDMDL
MODEL 5
REMARK VINA RESULT:      -6.2      6.345      8.954
REMARK  4 active torsions:
REMARK  status: ('A' for Active; 'I' for Inactive)
REMARK    1  A    between atoms: C3_3  and  C4_4 
REMARK    2  A    between atoms: C5_5  and  N1_6 
REMARK    3  A    between atoms: N1_6  and  C6_7 
REMARK    4  A    between atoms: C6_7  and  N2_8 
ROOT
HETATM    1  C1  UNL     1      14.980  -3.142  52.186  1.00  0.00     0.112 C 
HETATM    2  C2  UNL     1      16.001  -2.099  52.389  1.00  0.00    -0.106 C 
HETATM    3  C3  UNL     1      16.847  -1.248  52.551  1.00  0.00    -0.078 C 
ENDROOT
BRANCH   3   4
HETATM    4  C4  UNL     1      17.838  -0.258  52.765  1.00  0.00     0.081 C 
HETATM    5  C5  UNL     1      18.919  -0.207  52.006  1.00  0.00     0.093 C 
BRANCH   5   6
HETATM    6  N1  UNL     1      20.030   0.688  52.040  1.00  0.00    -0.382 N 
HETATM    7  H6  UNL     1      20.009   1.394  51.275  1.00  0.00     0.160 HD
BRANCH   6   8
HETATM    8  C6  UNL     1      20.943   0.421  53.123  1.00  0.00     0.253 C 
BRANCH   8   9
HETATM    9  N2  UNL     1      22.299   0.818  52.701  1.00  0.00    -0.310 N 
HETATM   10  C7  UNL     1      23.617   0.182  52.937  1.00  0.00     0.082 A 
HETATM   11  C8  UNL     1      24.817  -0.308  52.979  1.00  0.00     0.035 C 
HETATM   12  C15 UNL     1      23.484   1.367  52.202  1.00  0.00     0.158 A 
HETATM   13  C9  UNL     1      25.752  -1.097  53.842  1.00  0.00     0.223 C 
HETATM   14  O1  UNL     1      26.871  -0.402  54.093  1.00  0.00    -0.302 OA
HETATM   15  N3  UNL     1      27.151   0.401  55.065  1.00  0.00    -0.202 NA
HETATM   16  C10 UNL     1      28.539   0.952  54.773  1.00  0.00     0.144 C 
HETATM   17  H12 UNL     1      26.480   1.189  55.126  1.00  0.00     0.154 HD
HETATM   18  C11 UNL     1      28.416   1.652  53.453  1.00  0.00    -0.010 C 
HETATM   19  C12 UNL     1      27.553   2.050  52.550  1.00  0.00    -0.001 C 
HETATM   20  C13 UNL     1      26.535   2.460  51.603  1.00  0.00     0.019 C 
HETATM   21  C14 UNL     1      25.272   2.561  51.230  1.00  0.00     0.119 C 
HETATM   22  N4  UNL     1      23.943   2.331  51.520  1.00  0.00    -0.241 NA
ENDBRANCH   8   9
ENDBRANCH   6   8
ENDBRANCH   5   6
ENDBRANCH   3   4
TORSDOF 4
ENDMDL
MODEL 6
REMARK VINA RESULT:      -6.2      5.772      8.652
REMARK  4 active torsions:
REMARK  status: ('A' for Active; 'I' for Inactive)
REMARK    1  A    between atoms: C3_3  and  C4_4 
REMARK    2  A    between atoms: C5_5  and  N1_6 
REMARK    3  A    between atoms: N1_6  and  C6_7 
REMARK    4  A    between atoms: C6_7  and  N2_8 
ROOT
HETATM    1  C1  UNL     1      17.623   4.561  50.995  1.00  0.00     0.112 C 
HETATM    2  C2  UNL     1      18.460   3.388  51.307  1.00  0.00    -0.106 C 
HETATM    3  C3  UNL     1      19.155   2.430  51.560  1.00  0.00    -0.078 C 
ENDROOT
BRANCH   3   4
HETATM    4  C4  UNL     1      19.960   1.297  51.836  1.00  0.00     0.081 C 
HETATM    5  C5  UNL     1      19.697   0.515  52.868  1.00  0.00     0.093 C 
BRANCH   5   6
HETATM    6  N1  UNL     1      20.363  -0.661  53.330  1.00  0.00    -0.382 N 
HETATM    7  H6  UNL     1      20.052  -1.525  52.839  1.00  0.00     0.160 HD
BRANCH   6   8
HETATM    8  C6  UNL     1      21.319  -0.398  54.376  1.00  0.00     0.253 C 
BRANCH   8   9
HETATM    9  N2  UNL     1      22.505   0.242  53.776  1.00  0.00    -0.310 N 
HETATM   10  C7  UNL     1      23.883  -0.263  53.570  1.00  0.00     0.082 A 
HETATM   11  C8  UNL     1      25.091  -0.600  53.238  1.00  0.00     0.035 C 
HETATM   12  C15 UNL     1      23.496   1.025  53.176  1.00  0.00     0.158 A 
HETATM   13  C9  UNL     1      26.257  -1.433  53.672  1.00  0.00     0.223 C 
HETATM   14  O1  UNL     1      27.352  -0.674  53.830  1.00  0.00    -0.302 OA
HETATM   15  N3  UNL     1      27.796  -0.064  54.879  1.00  0.00    -0.202 NA
HETATM   16  C10 UNL     1      29.032   0.702  54.432  1.00  0.00     0.144 C 
HETATM   17  H12 UNL     1      27.104   0.605  55.264  1.00  0.00     0.154 HD
HETATM   18  C11 UNL     1      28.550   1.643  53.369  1.00  0.00    -0.010 C 
HETATM   19  C12 UNL     1      27.473   2.112  52.791  1.00  0.00    -0.001 C 
HETATM   20  C13 UNL     1      26.232   2.584  52.206  1.00  0.00     0.019 C 
HETATM   21  C14 UNL     1      24.913   2.606  52.147  1.00  0.00     0.119 C 
HETATM   22  N4  UNL     1      23.710   2.158  52.655  1.00  0.00    -0.241 NA
ENDBRANCH   8   9
ENDBRANCH   6   8
ENDBRANCH   5   6
ENDBRANCH   3   4
TORSDOF 4
ENDMDL
MODEL 7
REMARK VINA RESULT:      -6.1      5.033      9.812
REMARK  4 active torsions:
REMARK  status: ('A' for Active; 'I' for Inactive)
REMARK    1  A    between atoms: C3_3  and  C4_4 
REMARK    2  A    between atoms: C5_5  and  N1_6 
REMARK    3  A    between atoms: N1_6  and  C6_7 
REMARK    4  A    between atoms: C6_7  and  N2_8 
ROOT
HETATM    1  C1  UNL     1      19.322   9.104  49.296  1.00  0.00     0.112 C 
HETATM    2  C2  UNL     1      20.298   8.156  49.861  1.00  0.00    -0.106 C 
HETATM    3  C3  UNL     1      21.105   7.376  50.317  1.00  0.00    -0.078 C 
ENDROOT
BRANCH   3   4
HETATM    4  C4  UNL     1      22.032   6.445  50.849  1.00  0.00     0.081 C 
HETATM    5  C5  UNL     1      23.318   6.740  50.927  1.00  0.00     0.093 C 
BRANCH   5   6
HETATM    6  N1  UNL     1      24.414   5.969  51.417  1.00  0.00    -0.382 N 
HETATM    7  H6  UNL     1      24.723   6.258  52.369  1.00  0.00     0.160 HD
BRANCH   6   8
HETATM    8  C6  UNL     1      24.859   4.959  50.490  1.00  0.00     0.253 C 
BRANCH   8   9
HETATM    9  N2  UNL     1      24.718   3.639  51.133  1.00  0.00    -0.310 N 
HETATM   10  C7  UNL     1      23.680   2.592  50.987  1.00  0.00     0.082 A 
HETATM   11  C8  UNL     1      22.906   1.555  50.890  1.00  0.00     0.035 C 
HETATM   12  C15 UNL     1      24.774   2.439  51.848  1.00  0.00     0.158 A 
HETATM   13  C9  UNL     1      21.485   1.147  50.657  1.00  0.00     0.223 C 
HETATM   14  O1  UNL     1      21.024   0.417  51.683  1.00  0.00    -0.302 OA
HETATM   15  N3  UNL     1      20.413   0.789  52.759  1.00  0.00    -0.202 NA
HETATM   16  C10 UNL     1      20.210  -0.471  53.587  1.00  0.00     0.144 C 
HETATM   17  H12 UNL     1      20.969   1.469  53.309  1.00  0.00     0.154 HD
HETATM   18  C11 UNL     1      21.588  -0.997  53.851  1.00  0.00    -0.010 C 
HETATM   19  C12 UNL     1      22.862  -0.713  53.733  1.00  0.00    -0.001 C 
HETATM   20  C13 UNL     1      24.249  -0.321  53.570  1.00  0.00     0.019 C 
HETATM   21  C14 UNL     1      25.172   0.550  53.204  1.00  0.00     0.119 C 
HETATM   22  N4  UNL     1      25.469   1.795  52.687  1.00  0.00    -0.241 NA
ENDBRANCH   8   9
ENDBRANCH   6   8
ENDBRANCH   5   6
ENDBRANCH   3   4
TORSDOF 4
ENDMDL
MODEL 8
REMARK VINA RESULT:      -6.1      2.592      3.858
REMARK  4 active torsions:
REMARK  status: ('A' for Active; 'I' for Inactive)
REMARK    1  A    between atoms: C3_3  and  C4_4 
REMARK    2  A    between atoms: C5_5  and  N1_6 
REMARK    3  A    between atoms: N1_6  and  C6_7 
REMARK    4  A    between atoms: C6_7  and  N2_8 
ROOT
HETATM    1  C1  UNL     1      25.355  -0.154  52.944  1.00  0.00     0.112 C 
HETATM    2  C2  UNL     1      24.463   1.015  52.842  1.00  0.00    -0.106 C 
HETATM    3  C3  UNL     1      23.735   1.978  52.750  1.00  0.00    -0.078 C 
ENDROOT
BRANCH   3   4
HETATM    4  C4  UNL     1      22.894   3.116  52.663  1.00  0.00     0.081 C 
HETATM    5  C5  UNL     1      23.385   4.295  52.323  1.00  0.00     0.093 C 
BRANCH   5   6
HETATM    6  N1  UNL     1      22.736   5.558  52.175  1.00  0.00    -0.382 N 
HETATM    7  H6  UNL     1      22.333   5.916  53.066  1.00  0.00     0.160 HD
BRANCH   6   8
HETATM    8  C6  UNL     1      22.776   6.062  50.825  1.00  0.00     0.253 C 
BRANCH   8   9
HETATM    9  N2  UNL     1      24.154   5.928  50.317  1.00  0.00    -0.310 N 
HETATM   10  C7  UNL     1      25.232   6.932  50.149  1.00  0.00     0.082 A 
HETATM   11  C8  UNL     1      26.291   7.672  50.039  1.00  0.00     0.035 C 
HETATM   12  C15 UNL     1      25.410   5.584  49.808  1.00  0.00     0.158 A 
HETATM   13  C9  UNL     1      26.743   9.067  49.736  1.00  0.00     0.223 C 
HETATM   14  O1  UNL     1      27.584   9.078  48.691  1.00  0.00    -0.302 OA
HETATM   15  N3  UNL     1      27.340   9.216  47.430  1.00  0.00    -0.202 NA
HETATM   16  C10 UNL     1      28.678   9.066  46.721  1.00  0.00     0.144 C 
HETATM   17  H12 UNL     1      26.687   8.493  47.076  1.00  0.00     0.154 HD
HETATM   18  C11 UNL     1      29.160   7.692  47.076  1.00  0.00    -0.010 C 
HETATM   19  C12 UNL     1      28.807   6.570  47.655  1.00  0.00    -0.001 C 
HETATM   20  C13 UNL     1      28.337   5.365  48.309  1.00  0.00     0.019 C 
HETATM   21  C14 UNL     1      27.394   4.668  48.918  1.00  0.00     0.119 C 
HETATM   22  N4  UNL     1      26.095   4.609  49.380  1.00  0.00    -0.241 NA
ENDBRANCH   8   9
ENDBRANCH   6   8
ENDBRANCH   5   6
ENDBRANCH   3   4
TORSDOF 4
ENDMDL
MODEL 9
REMARK VINA RESULT:      -6.1      3.228      8.261
REMARK  4 active torsions:
REMARK  status: ('A' for Active; 'I' for Inactive)
REMARK    1  A    between atoms: C3_3  and  C4_4 
REMARK    2  A    between atoms: C5_5  and  N1_6 
REMARK    3  A    between atoms: N1_6  and  C6_7 
REMARK    4  A    between atoms: C6_7  and  N2_8 
ROOT
HETATM    1  C1  UNL     1      30.571  12.603  49.137  1.00  0.00     0.112 C 
HETATM    2  C2  UNL     1      30.473  11.139  48.993  1.00  0.00    -0.106 C 
HETATM    3  C3  UNL     1      30.398   9.938  48.867  1.00  0.00    -0.078 C 
ENDROOT
BRANCH   3   4
HETATM    4  C4  UNL     1      30.285   8.533  48.713  1.00  0.00     0.081 C 
HETATM    5  C5  UNL     1      29.140   7.916  48.947  1.00  0.00     0.093 C 
BRANCH   5   6
HETATM    6  N1  UNL     1      28.801   6.532  48.859  1.00  0.00    -0.382 N 
HETATM    7  H6  UNL     1      29.555   5.905  49.208  1.00  0.00     0.160 HD
BRANCH   6   8
HETATM    8  C6  UNL     1      27.490   6.302  48.306  1.00  0.00     0.253 C 
BRANCH   8   9
HETATM    9  N2  UNL     1      26.866   5.180  49.032  1.00  0.00    -0.310 N 
HETATM   10  C7  UNL     1      25.462   4.706  49.070  1.00  0.00     0.082 A 
HETATM   11  C8  UNL     1      24.305   4.123  49.124  1.00  0.00     0.035 C 
HETATM   12  C15 UNL     1      26.480   4.077  49.800  1.00  0.00     0.158 A 
HETATM   13  C9  UNL     1      22.832   4.393  49.087  1.00  0.00     0.223 C 
HETATM   14  O1  UNL     1      22.237   3.940  50.201  1.00  0.00    -0.302 OA
HETATM   15  N3  UNL     1      22.002   4.540  51.320  1.00  0.00    -0.202 NA
HETATM   16  C10 UNL     1      21.375   3.498  52.235  1.00  0.00     0.144 C 
HETATM   17  H12 UNL     1      22.870   4.898  51.761  1.00  0.00     0.154 HD
HETATM   18  C11 UNL     1      22.399   2.412  52.358  1.00  0.00    -0.010 C 
HETATM   19  C12 UNL     1      23.639   2.099  52.072  1.00  0.00    -0.001 C 
HETATM   20  C13 UNL     1      25.021   1.833  51.721  1.00  0.00     0.019 C 
HETATM   21  C14 UNL     1      26.176   2.202  51.199  1.00  0.00     0.119 C 
HETATM   22  N4  UNL     1      26.922   3.187  50.583  1.00  0.00    -0.241 NA
ENDBRANCH   8   9
ENDBRANCH   6   8
ENDBRANCH   5   6
ENDBRANCH   3   4
TORSDOF 4
ENDMDL
