MODEL 1
REMARK VINA RESULT:      -9.6      0.000      0.000
REMARK  5 active torsions:
REMARK  status: ('A' for Active; 'I' for Inactive)
REMARK    1  A    between atoms: C2_2  and  C3_3 
REMARK    2  A    between atoms: C6_6  and  C7_7 
REMARK       I    between atoms: C7_7  and  N1_9 
REMARK    3  A    between atoms: N1_9  and  C8_10 
REMARK    4  A    between atoms: C12_14  and  N2_15 
REMARK    5  A    between atoms: N2_15  and  C13_16 
ROOT
HETATM    1  C8  UNL     1      27.350   1.807  53.154  1.00  0.00     0.037 A 
HETATM    2  C9  UNL     1      28.676   1.444  53.250  1.00  0.00     0.029 A 
HETATM    3  C10 UNL     1      29.010   0.398  54.084  1.00  0.00     0.004 A 
HETATM    4  C11 UNL     1      27.993  -0.223  54.774  1.00  0.00     0.030 A 
HETATM    5  C12 UNL     1      26.656   0.093  54.718  1.00  0.00     0.051 A 
HETATM    6  C22 UNL     1      26.394   1.145  53.868  1.00  0.00     0.059 A 
ENDROOT
BRANCH   5   7
HETATM    7  N2  UNL     1      25.610  -0.536  55.417  1.00  0.00    -0.188 N 
HETATM    8  H10 UNL     1      25.841  -0.866  56.392  1.00  0.00     0.184 HD
BRANCH   7   9
HETATM    9  C13 UNL     1      24.287  -0.780  54.972  1.00  0.00     0.727 A 
HETATM   10  N3  UNL     1      23.381  -1.560  55.574  1.00  0.00    -0.075 NA
HETATM   11  C14 UNL     1      22.135  -1.779  55.135  1.00  0.00     0.139 A 
HETATM   12  C15 UNL     1      21.726  -1.166  53.973  1.00  0.00     0.053 A 
HETATM   13  C16 UNL     1      22.629  -0.356  53.323  1.00  0.00     0.089 A 
HETATM   14  C17 UNL     1      22.304   0.333  52.100  1.00  0.00     0.011 A 
HETATM   15  N5  UNL     1      23.846  -0.215  53.861  1.00  0.00    -0.062 NA
HETATM   16  C18 UNL     1      21.088   0.264  51.454  1.00  0.00     0.017 A 
HETATM   17  C21 UNL     1      23.233   1.138  51.472  1.00  0.00     0.130 A 
HETATM   18  C19 UNL     1      20.794   0.918  50.300  1.00  0.00     0.020 A 
HETATM   19  C20 UNL     1      21.782   1.713  49.724  1.00  0.00     0.116 A 
HETATM   20  N4  UNL     1      22.997   1.815  50.321  1.00  0.00    -0.272 NA
ENDBRANCH   7   9
ENDBRANCH   5   7
BRANCH   1  21
HETATM   21  N1  UNL     1      27.033   2.889  52.287  1.00  0.00    -0.323 N 
HETATM   22  C7  UNL     1      26.642   2.637  50.943  1.00  0.00     0.257 C 
HETATM   23  O1  UNL     1      26.611   1.436  50.627  1.00  0.00    -0.267 OA
HETATM   24  H6  UNL     1      27.081   3.884  52.618  1.00  0.00     0.169 HD
BRANCH  22  25
HETATM   25  C6  UNL     1      26.331   3.788  50.107  1.00  0.00     0.043 A 
HETATM   26  C4  UNL     1      26.188   4.956  49.226  1.00  0.00    -0.019 A 
HETATM   27  C3  UNL     1      27.203   5.553  48.573  1.00  0.00     0.011 C 
HETATM   28  C5  UNL     1      25.041   4.370  49.894  1.00  0.00     0.030 A 
BRANCH  27  29
HETATM   29  C2  UNL     1      28.653   5.413  48.411  1.00  0.00    -0.009 C 
HETATM   30  C1  UNL     1      29.250   6.371  47.730  1.00  0.00     0.011 C 
ENDBRANCH  27  29
ENDBRANCH  22  25
ENDBRANCH   1  21
TORSDOF 5
ENDMDL
MODEL 2
REMARK VINA RESULT:      -9.4      3.529      9.609
REMARK  5 active torsions:
REMARK  status: ('A' for Active; 'I' for Inactive)
REMARK    1  A    between atoms: C2_2  and  C3_3 
REMARK    2  A    between atoms: C6_6  and  C7_7 
REMARK       I    between atoms: C7_7  and  N1_9 
REMARK    3  A    between atoms: N1_9  and  C8_10 
REMARK    4  A    between atoms: C12_14  and  N2_15 
REMARK    5  A    between atoms: N2_15  and  C13_16 
ROOT
HETATM    1  C8  UNL     1      25.841   3.511  50.394  1.00  0.00     0.037 A 
HETATM    2  C9  UNL     1      24.870   4.397  50.807  1.00  0.00     0.029 A 
HETATM    3  C10 UNL     1      24.891   5.678  50.297  1.00  0.00     0.004 A 
HETATM    4  C11 UNL     1      25.887   5.995  49.401  1.00  0.00     0.030 A 
HETATM    5  C12 UNL     1      26.880   5.156  48.952  1.00  0.00     0.051 A 
HETATM    6  C22 UNL     1      26.799   3.895  49.501  1.00  0.00     0.059 A 
ENDROOT
BRANCH   5   7
HETATM    7  N2  UNL     1      27.901   5.471  48.037  1.00  0.00    -0.188 N 
HETATM    8  H10 UNL     1      27.731   5.176  47.038  1.00  0.00     0.184 HD
BRANCH   7   9
HETATM    9  C13 UNL     1      29.127   6.134  48.293  1.00  0.00     0.727 A 
HETATM   10  N3  UNL     1      29.273   7.413  48.656  1.00  0.00    -0.075 NA
HETATM   11  C14 UNL     1      30.442   8.022  48.892  1.00  0.00     0.139 A 
HETATM   12  C15 UNL     1      31.604   7.297  48.757  1.00  0.00     0.053 A 
HETATM   13  C16 UNL     1      31.496   5.976  48.385  1.00  0.00     0.089 A 
HETATM   14  C17 UNL     1      32.648   5.128  48.216  1.00  0.00     0.011 A 
HETATM   15  N5  UNL     1      30.271   5.482  48.178  1.00  0.00    -0.062 NA
HETATM   16  C18 UNL     1      33.955   5.525  48.400  1.00  0.00     0.017 A 
HETATM   17  C21 UNL     1      32.506   3.807  47.841  1.00  0.00     0.130 A 
HETATM   18  C19 UNL     1      35.034   4.715  48.237  1.00  0.00     0.020 A 
HETATM   19  C20 UNL     1      34.813   3.393  47.857  1.00  0.00     0.116 A 
HETATM   20  N4  UNL     1      33.544   2.952  47.662  1.00  0.00    -0.272 NA
ENDBRANCH   7   9
ENDBRANCH   5   7
BRANCH   1  21
HETATM   21  N1  UNL     1      25.796   2.197  50.936  1.00  0.00    -0.323 N 
HETATM   22  C7  UNL     1      26.801   1.763  51.843  1.00  0.00     0.257 C 
HETATM   23  O1  UNL     1      27.675   2.610  52.096  1.00  0.00    -0.267 OA
HETATM   24  H6  UNL     1      25.028   1.528  50.680  1.00  0.00     0.169 HD
BRANCH  22  25
HETATM   25  C6  UNL     1      26.697   0.408  52.363  1.00  0.00     0.043 A 
HETATM   26  C4  UNL     1      26.768  -0.963  52.891  1.00  0.00    -0.019 A 
HETATM   27  C3  UNL     1      27.910  -1.625  53.158  1.00  0.00     0.011 C 
HETATM   28  C5  UNL     1      25.494  -0.321  52.629  1.00  0.00     0.030 A 
BRANCH  27  29
HETATM   29  C2  UNL     1      29.358  -1.408  53.094  1.00  0.00    -0.009 C 
HETATM   30  C1  UNL     1      29.824  -0.416  53.827  1.00  0.00     0.011 C 
ENDBRANCH  27  29
ENDBRANCH  22  25
ENDBRANCH   1  21
TORSDOF 5
ENDMDL
MODEL 3
REMARK VINA RESULT:      -9.2      0.803      1.810
REMARK  5 active torsions:
REMARK  status: ('A' for Active; 'I' for Inactive)
REMARK    1  A    between atoms: C2_2  and  C3_3 
REMARK    2  A    between atoms: C6_6  and  C7_7 
REMARK       I    between atoms: C7_7  and  N1_9 
REMARK    3  A    between atoms: N1_9  and  C8_10 
REMARK    4  A    between atoms: C12_14  and  N2_15 
REMARK    5  A    between atoms: N2_15  and  C13_16 
ROOT
HETATM    1  C8  UNL     1      27.397   1.861  53.159  1.00  0.00     0.037 A 
HETATM    2  C9  UNL     1      28.735   1.564  53.312  1.00  0.00     0.029 A 
HETATM    3  C10 UNL     1      29.085   0.541  54.167  1.00  0.00     0.004 A 
HETATM    4  C11 UNL     1      28.073  -0.126  54.818  1.00  0.00     0.030 A 
HETATM    5  C12 UNL     1      26.725   0.123  54.706  1.00  0.00     0.051 A 
HETATM    6  C22 UNL     1      26.446   1.156  53.838  1.00  0.00     0.059 A 
ENDROOT
BRANCH   5   7
HETATM    7  N2  UNL     1      25.684  -0.553  55.367  1.00  0.00    -0.188 N 
HETATM    8  H10 UNL     1      25.920  -0.948  56.317  1.00  0.00     0.184 HD
BRANCH   7   9
HETATM    9  C13 UNL     1      24.359  -0.769  54.912  1.00  0.00     0.727 A 
HETATM   10  N3  UNL     1      23.442  -1.552  55.493  1.00  0.00    -0.075 NA
HETATM   11  C14 UNL     1      22.194  -1.745  55.047  1.00  0.00     0.139 A 
HETATM   12  C15 UNL     1      21.796  -1.098  53.898  1.00  0.00     0.053 A 
HETATM   13  C16 UNL     1      22.711  -0.284  53.271  1.00  0.00     0.089 A 
HETATM   14  C17 UNL     1      22.398   0.438  52.065  1.00  0.00     0.011 A 
HETATM   15  N5  UNL     1      23.928  -0.172  53.815  1.00  0.00    -0.062 NA
HETATM   16  C18 UNL     1      21.183   0.401  51.414  1.00  0.00     0.017 A 
HETATM   17  C21 UNL     1      23.338   1.247  51.458  1.00  0.00     0.130 A 
HETATM   18  C19 UNL     1      20.900   1.087  50.276  1.00  0.00     0.020 A 
HETATM   19  C20 UNL     1      21.899   1.883  49.721  1.00  0.00     0.116 A 
HETATM   20  N4  UNL     1      23.115   1.954  50.323  1.00  0.00    -0.272 NA
ENDBRANCH   7   9
ENDBRANCH   5   7
BRANCH   1  21
HETATM   21  N1  UNL     1      27.064   2.921  52.272  1.00  0.00    -0.323 N 
HETATM   22  C7  UNL     1      26.675   2.638  50.934  1.00  0.00     0.257 C 
HETATM   23  O1  UNL     1      26.661   1.431  50.640  1.00  0.00    -0.267 OA
HETATM   24  H6  UNL     1      27.097   3.923  52.583  1.00  0.00     0.169 HD
BRANCH  22  25
HETATM   25  C6  UNL     1      26.346   3.767  50.076  1.00  0.00     0.043 A 
HETATM   26  C4  UNL     1      25.867   4.923  49.304  1.00  0.00    -0.019 A 
HETATM   27  C3  UNL     1      24.711   5.574  49.535  1.00  0.00     0.011 C 
HETATM   28  C5  UNL     1      27.127   4.276  48.990  1.00  0.00     0.030 A 
BRANCH  27  29
HETATM   29  C2  UNL     1      23.570   5.516  50.453  1.00  0.00    -0.009 C 
HETATM   30  C1  UNL     1      22.849   6.616  50.544  1.00  0.00     0.011 C 
ENDBRANCH  27  29
ENDBRANCH  22  25
ENDBRANCH   1  21
TORSDOF 5
ENDMDL
MODEL 4
REMARK VINA RESULT:      -9.2      2.207      6.750
REMARK  5 active torsions:
REMARK  status: ('A' for Active; 'I' for Inactive)
REMARK    1  A    between atoms: C2_2  and  C3_3 
REMARK    2  A    between atoms: C6_6  and  C7_7 
REMARK       I    between atoms: C7_7  and  N1_9 
REMARK    3  A    between atoms: N1_9  and  C8_10 
REMARK    4  A    between atoms: C12_14  and  N2_15 
REMARK    5  A    between atoms: N2_15  and  C13_16 
ROOT
HETATM    1  C8  UNL     1      24.178   1.447  53.058  1.00  0.00     0.037 A 
HETATM    2  C9  UNL     1      23.536   0.244  52.852  1.00  0.00     0.029 A 
HETATM    3  C10 UNL     1      22.242   0.265  52.377  1.00  0.00     0.004 A 
HETATM    4  C11 UNL     1      21.667   1.492  52.136  1.00  0.00     0.030 A 
HETATM    5  C12 UNL     1      22.255   2.721  52.321  1.00  0.00     0.051 A 
HETATM    6  C22 UNL     1      23.545   2.627  52.797  1.00  0.00     0.059 A 
ENDROOT
BRANCH   5   7
HETATM    7  N2  UNL     1      21.675   3.979  52.077  1.00  0.00    -0.188 N 
HETATM    8  H10 UNL     1      20.699   4.118  52.452  1.00  0.00     0.184 HD
BRANCH   7   9
HETATM    9  C13 UNL     1      22.242   5.080  51.389  1.00  0.00     0.727 A 
HETATM   10  N3  UNL     1      21.684   6.286  51.230  1.00  0.00    -0.075 NA
HETATM   11  C14 UNL     1      22.236   7.315  50.574  1.00  0.00     0.139 A 
HETATM   12  C15 UNL     1      23.478   7.146  50.005  1.00  0.00     0.053 A 
HETATM   13  C16 UNL     1      24.086   5.919  50.146  1.00  0.00     0.089 A 
HETATM   14  C17 UNL     1      25.385   5.636  49.591  1.00  0.00     0.011 A 
HETATM   15  N5  UNL     1      23.433   4.970  50.825  1.00  0.00    -0.062 NA
HETATM   16  C18 UNL     1      26.150   6.532  48.874  1.00  0.00     0.017 A 
HETATM   17  C21 UNL     1      25.968   4.395  49.749  1.00  0.00     0.130 A 
HETATM   18  C19 UNL     1      27.374   6.253  48.355  1.00  0.00     0.020 A 
HETATM   19  C20 UNL     1      27.899   4.978  48.554  1.00  0.00     0.116 A 
HETATM   20  N4  UNL     1      27.185   4.058  49.254  1.00  0.00    -0.272 NA
ENDBRANCH   7   9
ENDBRANCH   5   7
BRANCH   1  21
HETATM   21  N1  UNL     1      25.512   1.396  53.549  1.00  0.00    -0.323 N 
HETATM   22  C7  UNL     1      26.599   1.238  52.647  1.00  0.00     0.257 C 
HETATM   23  O1  UNL     1      26.275   1.151  51.451  1.00  0.00    -0.267 OA
HETATM   24  H6  UNL     1      25.718   1.475  54.576  1.00  0.00     0.169 HD
BRANCH  22  25
HETATM   25  C6  UNL     1      27.940   1.194  53.213  1.00  0.00     0.043 A 
HETATM   26  C4  UNL     1      29.292   0.979  53.749  1.00  0.00    -0.019 A 
HETATM   27  C3  UNL     1      29.923  -0.210  53.783  1.00  0.00     0.011 C 
HETATM   28  C5  UNL     1      28.682   2.295  53.749  1.00  0.00     0.030 A 
BRANCH  27  29
HETATM   29  C2  UNL     1      29.683  -1.605  53.401  1.00  0.00    -0.009 C 
HETATM   30  C1  UNL     1      28.451  -1.897  53.037  1.00  0.00     0.011 C 
ENDBRANCH  27  29
ENDBRANCH  22  25
ENDBRANCH   1  21
TORSDOF 5
ENDMDL
MODEL 5
REMARK VINA RESULT:      -9.2      1.791      6.266
REMARK  5 active torsions:
REMARK  status: ('A' for Active; 'I' for Inactive)
REMARK    1  A    between atoms: C2_2  and  C3_3 
REMARK    2  A    between atoms: C6_6  and  C7_7 
REMARK       I    between atoms: C7_7  and  N1_9 
REMARK    3  A    between atoms: N1_9  and  C8_10 
REMARK    4  A    between atoms: C12_14  and  N2_15 
REMARK    5  A    between atoms: N2_15  and  C13_16 
ROOT
HETATM    1  C8  UNL     1      24.370   0.011  53.360  1.00  0.00     0.037 A 
HETATM    2  C9  UNL     1      23.597  -0.744  54.217  1.00  0.00     0.029 A 
HETATM    3  C10 UNL     1      22.237  -0.799  53.996  1.00  0.00     0.004 A 
HETATM    4  C11 UNL     1      21.731  -0.093  52.928  1.00  0.00     0.030 A 
HETATM    5  C12 UNL     1      22.449   0.675  52.041  1.00  0.00     0.051 A 
HETATM    6  C22 UNL     1      23.799   0.686  52.320  1.00  0.00     0.059 A 
ENDROOT
BRANCH   5   7
HETATM    7  N2  UNL     1      21.942   1.399  50.948  1.00  0.00    -0.188 N 
HETATM    8  H10 UNL     1      21.316   0.862  50.290  1.00  0.00     0.184 HD
BRANCH   7   9
HETATM    9  C13 UNL     1      22.170   2.759  50.622  1.00  0.00     0.727 A 
HETATM   10  N3  UNL     1      21.269   3.746  50.673  1.00  0.00    -0.075 NA
HETATM   11  C14 UNL     1      21.504   5.026  50.358  1.00  0.00     0.139 A 
HETATM   12  C15 UNL     1      22.767   5.384  49.945  1.00  0.00     0.053 A 
HETATM   13  C16 UNL     1      23.723   4.396  49.879  1.00  0.00     0.089 A 
HETATM   14  C17 UNL     1      25.076   4.662  49.459  1.00  0.00     0.011 A 
HETATM   15  N5  UNL     1      23.366   3.154  50.219  1.00  0.00    -0.062 NA
HETATM   16  C18 UNL     1      25.558   5.899  49.085  1.00  0.00     0.017 A 
HETATM   17  C21 UNL     1      26.012   3.650  49.403  1.00  0.00     0.130 A 
HETATM   18  C19 UNL     1      26.837   6.136  48.691  1.00  0.00     0.020 A 
HETATM   19  C20 UNL     1      27.726   5.065  48.658  1.00  0.00     0.116 A 
HETATM   20  N4  UNL     1      27.300   3.826  49.017  1.00  0.00    -0.272 NA
ENDBRANCH   7   9
ENDBRANCH   5   7
BRANCH   1  21
HETATM   21  N1  UNL     1      25.769   0.050  53.611  1.00  0.00    -0.323 N 
HETATM   22  C7  UNL     1      26.626  -0.924  53.030  1.00  0.00     0.257 C 
HETATM   23  O1  UNL     1      26.052  -1.767  52.322  1.00  0.00    -0.267 OA
HETATM   24  H6  UNL     1      26.193   0.792  54.222  1.00  0.00     0.169 HD
BRANCH  22  25
HETATM   25  C6  UNL     1      28.049  -0.829  53.325  1.00  0.00     0.043 A 
HETATM   26  C4  UNL     1      29.454  -0.566  53.668  1.00  0.00    -0.019 A 
HETATM   27  C3  UNL     1      29.928   0.613  54.114  1.00  0.00     0.011 C 
HETATM   28  C5  UNL     1      29.025  -1.867  53.193  1.00  0.00     0.030 A 
BRANCH  27  29
HETATM   29  C2  UNL     1      29.436   1.957  54.432  1.00  0.00    -0.009 C 
HETATM   30  C1  UNL     1      28.603   2.486  53.558  1.00  0.00     0.011 C 
ENDBRANCH  27  29
ENDBRANCH  22  25
ENDBRANCH   1  21
TORSDOF 5
ENDMDL
MODEL 6
REMARK VINA RESULT:      -9.2      3.619      9.631
REMARK  5 active torsions:
REMARK  status: ('A' for Active; 'I' for Inactive)
REMARK    1  A    between atoms: C2_2  and  C3_3 
REMARK    2  A    between atoms: C6_6  and  C7_7 
REMARK       I    between atoms: C7_7  and  N1_9 
REMARK    3  A    between atoms: N1_9  and  C8_10 
REMARK    4  A    between atoms: C12_14  and  N2_15 
REMARK    5  A    between atoms: N2_15  and  C13_16 
ROOT
HETATM    1  C8  UNL     1      25.826   3.394  50.414  1.00  0.00     0.037 A 
HETATM    2  C9  UNL     1      24.806   4.256  50.758  1.00  0.00     0.029 A 
HETATM    3  C10 UNL     1      24.815   5.527  50.226  1.00  0.00     0.004 A 
HETATM    4  C11 UNL     1      25.848   5.862  49.379  1.00  0.00     0.030 A 
HETATM    5  C12 UNL     1      26.891   5.049  49.001  1.00  0.00     0.051 A 
HETATM    6  C22 UNL     1      26.820   3.795  49.569  1.00  0.00     0.059 A 
ENDROOT
BRANCH   5   7
HETATM    7  N2  UNL     1      27.950   5.381  48.137  1.00  0.00    -0.188 N 
HETATM    8  H10 UNL     1      27.863   5.029  47.146  1.00  0.00     0.184 HD
BRANCH   7   9
HETATM    9  C13 UNL     1      29.116   6.127  48.436  1.00  0.00     0.727 A 
HETATM   10  N3  UNL     1      30.337   5.629  48.665  1.00  0.00    -0.075 NA
HETATM   11  C14 UNL     1      31.428   6.351  48.948  1.00  0.00     0.139 A 
HETATM   12  C15 UNL     1      31.313   7.721  49.017  1.00  0.00     0.053 A 
HETATM   13  C16 UNL     1      30.074   8.273  48.788  1.00  0.00     0.089 A 
HETATM   14  C17 UNL     1      29.844   9.694  48.836  1.00  0.00     0.011 A 
HETATM   15  N5  UNL     1      29.060   7.445  48.514  1.00  0.00    -0.062 NA
HETATM   16  C18 UNL     1      30.808  10.642  49.107  1.00  0.00     0.017 A 
HETATM   17  C21 UNL     1      28.588  10.217  48.602  1.00  0.00     0.130 A 
HETATM   18  C19 UNL     1      30.578  11.981  49.150  1.00  0.00     0.020 A 
HETATM   19  C20 UNL     1      29.284  12.435  48.905  1.00  0.00     0.116 A 
HETATM   20  N4  UNL     1      28.298  11.542  48.631  1.00  0.00    -0.272 NA
ENDBRANCH   7   9
ENDBRANCH   5   7
BRANCH   1  21
HETATM   21  N1  UNL     1      25.793   2.089  50.978  1.00  0.00    -0.323 N 
HETATM   22  C7  UNL     1      26.795   1.683  51.901  1.00  0.00     0.257 C 
HETATM   23  O1  UNL     1      27.656   2.544  52.147  1.00  0.00    -0.267 OA
HETATM   24  H6  UNL     1      25.035   1.406  50.726  1.00  0.00     0.169 HD
BRANCH  22  25
HETATM   25  C6  UNL     1      26.703   0.335  52.442  1.00  0.00     0.043 A 
HETATM   26  C4  UNL     1      26.786  -1.029  52.984  1.00  0.00    -0.019 A 
HETATM   27  C3  UNL     1      27.934  -1.694  53.217  1.00  0.00     0.011 C 
HETATM   28  C5  UNL     1      25.507  -0.383  52.762  1.00  0.00     0.030 A 
BRANCH  27  29
HETATM   29  C2  UNL     1      29.380  -1.487  53.096  1.00  0.00    -0.009 C 
HETATM   30  C1  UNL     1      29.878  -0.487  53.797  1.00  0.00     0.011 C 
ENDBRANCH  27  29
ENDBRANCH  22  25
ENDBRANCH   1  21
TORSDOF 5
ENDMDL
MODEL 7
REMARK VINA RESULT:      -9.1      1.385      4.921
REMARK  5 active torsions:
REMARK  status: ('A' for Active; 'I' for Inactive)
REMARK    1  A    between atoms: C2_2  and  C3_3 
REMARK    2  A    between atoms: C6_6  and  C7_7 
REMARK       I    between atoms: C7_7  and  N1_9 
REMARK    3  A    between atoms: N1_9  and  C8_10 
REMARK    4  A    between atoms: C12_14  and  N2_15 
REMARK    5  A    between atoms: N2_15  and  C13_16 
ROOT
HETATM    1  C8  UNL     1      22.981   3.025  49.507  1.00  0.00     0.037 A 
HETATM    2  C9  UNL     1      22.451   2.319  48.448  1.00  0.00     0.029 A 
HETATM    3  C10 UNL     1      21.719   1.183  48.718  1.00  0.00     0.004 A 
HETATM    4  C11 UNL     1      21.560   0.821  50.037  1.00  0.00     0.030 A 
HETATM    5  C12 UNL     1      22.062   1.482  51.133  1.00  0.00     0.051 A 
HETATM    6  C22 UNL     1      22.783   2.606  50.791  1.00  0.00     0.059 A 
ENDROOT
BRANCH   5   7
HETATM    7  N2  UNL     1      21.905   1.121  52.483  1.00  0.00    -0.188 N 
HETATM    8  H10 UNL     1      20.997   1.412  52.935  1.00  0.00     0.184 HD
BRANCH   7   9
HETATM    9  C13 UNL     1      22.815   0.415  53.307  1.00  0.00     0.727 A 
HETATM   10  N3  UNL     1      22.515  -0.594  54.134  1.00  0.00    -0.075 NA
HETATM   11  C14 UNL     1      23.391  -1.248  54.907  1.00  0.00     0.139 A 
HETATM   12  C15 UNL     1      24.714  -0.872  54.870  1.00  0.00     0.053 A 
HETATM   13  C16 UNL     1      25.064   0.162  54.033  1.00  0.00     0.089 A 
HETATM   14  C17 UNL     1      26.420   0.635  53.918  1.00  0.00     0.011 A 
HETATM   15  N5  UNL     1      24.097   0.737  53.309  1.00  0.00    -0.062 NA
HETATM   16  C18 UNL     1      27.496   0.123  54.611  1.00  0.00     0.017 A 
HETATM   17  C21 UNL     1      26.739   1.676  53.069  1.00  0.00     0.130 A 
HETATM   18  C19 UNL     1      28.772   0.578  54.494  1.00  0.00     0.020 A 
HETATM   19  C20 UNL     1      29.017   1.632  53.618  1.00  0.00     0.116 A 
HETATM   20  N4  UNL     1      27.991   2.172  52.910  1.00  0.00    -0.272 NA
ENDBRANCH   7   9
ENDBRANCH   5   7
BRANCH   1  21
HETATM   21  N1  UNL     1      23.732   4.193  49.200  1.00  0.00    -0.323 N 
HETATM   22  C7  UNL     1      25.153   4.156  49.229  1.00  0.00     0.257 C 
HETATM   23  O1  UNL     1      25.639   3.055  49.536  1.00  0.00    -0.267 OA
HETATM   24  H6  UNL     1      23.258   5.095  48.948  1.00  0.00     0.169 HD
BRANCH  22  25
HETATM   25  C6  UNL     1      25.863   5.384  48.904  1.00  0.00     0.043 A 
HETATM   26  C4  UNL     1      26.724   6.526  48.559  1.00  0.00    -0.019 A 
HETATM   27  C3  UNL     1      28.041   6.440  48.294  1.00  0.00     0.011 C 
HETATM   28  C5  UNL     1      25.310   6.703  48.832  1.00  0.00     0.030 A 
BRANCH  27  29
HETATM   29  C2  UNL     1      29.094   5.423  48.216  1.00  0.00    -0.009 C 
HETATM   30  C1  UNL     1      30.301   5.866  47.930  1.00  0.00     0.011 C 
ENDBRANCH  27  29
ENDBRANCH  22  25
ENDBRANCH   1  21
TORSDOF 5
ENDMDL
MODEL 8
REMARK VINA RESULT:      -9.1      2.244      6.885
REMARK  5 active torsions:
REMARK  status: ('A' for Active; 'I' for Inactive)
REMARK    1  A    between atoms: C2_2  and  C3_3 
REMARK    2  A    between atoms: C6_6  and  C7_7 
REMARK       I    between atoms: C7_7  and  N1_9 
REMARK    3  A    between atoms: N1_9  and  C8_10 
REMARK    4  A    between atoms: C12_14  and  N2_15 
REMARK    5  A    between atoms: N2_15  and  C13_16 
ROOT
HETATM    1  C8  UNL     1      23.149   0.936  52.486  1.00  0.00     0.037 A 
HETATM    2  C9  UNL     1      22.169   0.146  51.923  1.00  0.00     0.029 A 
HETATM    3  C10 UNL     1      21.011   0.751  51.484  1.00  0.00     0.004 A 
HETATM    4  C11 UNL     1      20.903   2.115  51.635  1.00  0.00     0.030 A 
HETATM    5  C12 UNL     1      21.843   2.954  52.187  1.00  0.00     0.051 A 
HETATM    6  C22 UNL     1      22.973   2.284  52.604  1.00  0.00     0.059 A 
ENDROOT
BRANCH   5   7
HETATM    7  N2  UNL     1      21.741   4.347  52.345  1.00  0.00    -0.188 N 
HETATM    8  H10 UNL     1      21.182   4.677  53.176  1.00  0.00     0.184 HD
BRANCH   7   9
HETATM    9  C13 UNL     1      22.297   5.360  51.524  1.00  0.00     0.727 A 
HETATM   10  N3  UNL     1      21.740   6.544  51.243  1.00  0.00    -0.075 NA
HETATM   11  C14 UNL     1      22.281   7.488  50.462  1.00  0.00     0.139 A 
HETATM   12  C15 UNL     1      23.508   7.247  49.888  1.00  0.00     0.053 A 
HETATM   13  C16 UNL     1      24.114   6.040  50.152  1.00  0.00     0.089 A 
HETATM   14  C17 UNL     1      25.398   5.687  49.602  1.00  0.00     0.011 A 
HETATM   15  N5  UNL     1      23.473   5.178  50.948  1.00  0.00    -0.062 NA
HETATM   16  C18 UNL     1      26.150   6.490  48.771  1.00  0.00     0.017 A 
HETATM   17  C21 UNL     1      25.979   4.467  49.885  1.00  0.00     0.130 A 
HETATM   18  C19 UNL     1      27.360   6.145  48.258  1.00  0.00     0.020 A 
HETATM   19  C20 UNL     1      27.883   4.897  48.588  1.00  0.00     0.116 A 
HETATM   20  N4  UNL     1      27.182   4.067  49.404  1.00  0.00    -0.272 NA
ENDBRANCH   7   9
ENDBRANCH   5   7
BRANCH   1  21
HETATM   21  N1  UNL     1      24.333   0.286  52.930  1.00  0.00    -0.323 N 
HETATM   22  C7  UNL     1      25.578   0.562  52.302  1.00  0.00     0.257 C 
HETATM   23  O1  UNL     1      25.522   1.385  51.373  1.00  0.00    -0.267 OA
HETATM   24  H6  UNL     1      24.313  -0.402  53.723  1.00  0.00     0.169 HD
BRANCH  22  25
HETATM   25  C6  UNL     1      26.753  -0.136  52.804  1.00  0.00     0.043 A 
HETATM   26  C4  UNL     1      27.994  -0.685  53.371  1.00  0.00    -0.019 A 
HETATM   27  C3  UNL     1      28.924   0.037  54.025  1.00  0.00     0.011 C 
HETATM   28  C5  UNL     1      27.041  -1.533  52.679  1.00  0.00     0.030 A 
BRANCH  27  29
HETATM   29  C2  UNL     1      29.164   1.423  54.438  1.00  0.00    -0.009 C 
HETATM   30  C1  UNL     1      28.727   2.352  53.612  1.00  0.00     0.011 C 
ENDBRANCH  27  29
ENDBRANCH  22  25
ENDBRANCH   1  21
TORSDOF 5
ENDMDL
MODEL 9
REMARK VINA RESULT:      -8.9      2.334      5.788
REMARK  5 active torsions:
REMARK  status: ('A' for Active; 'I' for Inactive)
REMARK    1  A    between atoms: C2_2  and  C3_3 
REMARK    2  A    between atoms: C6_6  and  C7_7 
REMARK       I    between atoms: C7_7  and  N1_9 
REMARK    3  A    between atoms: N1_9  and  C8_10 
REMARK    4  A    between atoms: C12_14  and  N2_15 
REMARK    5  A    between atoms: N2_15  and  C13_16 
ROOT
HETATM    1  C8  UNL     1      25.633   5.906  49.250  1.00  0.00     0.037 A 
HETATM    2  C9  UNL     1      24.633   6.091  48.319  1.00  0.00     0.029 A 
HETATM    3  C10 UNL     1      23.354   5.691  48.643  1.00  0.00     0.004 A 
HETATM    4  C11 UNL     1      23.152   5.128  49.883  1.00  0.00     0.030 A 
HETATM    5  C12 UNL     1      24.106   4.919  50.850  1.00  0.00     0.051 A 
HETATM    6  C22 UNL     1      25.359   5.340  50.461  1.00  0.00     0.059 A 
ENDROOT
BRANCH   5   7
HETATM    7  N2  UNL     1      23.910   4.345  52.120  1.00  0.00    -0.188 N 
HETATM    8  H10 UNL     1      23.613   5.009  52.884  1.00  0.00     0.184 HD
BRANCH   7   9
HETATM    9  C13 UNL     1      24.063   2.988  52.495  1.00  0.00     0.727 A 
HETATM   10  N3  UNL     1      23.077   2.099  52.668  1.00  0.00    -0.075 NA
HETATM   11  C14 UNL     1      23.242   0.820  53.026  1.00  0.00     0.139 A 
HETATM   12  C15 UNL     1      24.519   0.353  53.241  1.00  0.00     0.053 A 
HETATM   13  C16 UNL     1      25.561   1.236  53.073  1.00  0.00     0.089 A 
HETATM   14  C17 UNL     1      26.935   0.851  53.272  1.00  0.00     0.011 A 
HETATM   15  N5  UNL     1      25.268   2.490  52.713  1.00  0.00    -0.062 NA
HETATM   16  C18 UNL     1      27.357  -0.408  53.643  1.00  0.00     0.017 A 
HETATM   17  C21 UNL     1      27.958   1.761  53.097  1.00  0.00     0.130 A 
HETATM   18  C19 UNL     1      28.657  -0.758  53.828  1.00  0.00     0.020 A 
HETATM   19  C20 UNL     1      29.635   0.214  53.633  1.00  0.00     0.116 A 
HETATM   20  N4  UNL     1      29.272   1.470  53.267  1.00  0.00    -0.272 NA
ENDBRANCH   7   9
ENDBRANCH   5   7
BRANCH   1  21
HETATM   21  N1  UNL     1      26.942   6.327  48.890  1.00  0.00    -0.323 N 
HETATM   22  C7  UNL     1      27.945   5.366  48.591  1.00  0.00     0.257 C 
HETATM   23  O1  UNL     1      27.574   4.183  48.675  1.00  0.00    -0.267 OA
HETATM   24  H6  UNL     1      27.192   7.346  48.837  1.00  0.00     0.169 HD
BRANCH  22  25
HETATM   25  C6  UNL     1      29.265   5.861  48.229  1.00  0.00     0.043 A 
HETATM   26  C4  UNL     1      30.638   6.197  47.823  1.00  0.00    -0.019 A 
HETATM   27  C3  UNL     1      31.545   5.307  47.377  1.00  0.00     0.011 C 
HETATM   28  C5  UNL     1      29.721   7.217  48.294  1.00  0.00     0.030 A 
BRANCH  27  29
HETATM   29  C2  UNL     1      31.650   3.870  47.109  1.00  0.00    -0.009 C 
HETATM   30  C1  UNL     1      32.743   3.281  47.552  1.00  0.00     0.011 C 
ENDBRANCH  27  29
ENDBRANCH  22  25
ENDBRANCH   1  21
TORSDOF 5
ENDMDL
