MODEL 1
REMARK VINA RESULT:      -8.4      0.000      0.000
REMARK  6 active torsions:
REMARK  status: ('A' for Active; 'I' for Inactive)
REMARK    1  A    between atoms: C2_2  and  C3_3 
REMARK    2  A    between atoms: C7_8  and  C8_9 
REMARK    3  A    between atoms: C8_9  and  O1_10 
REMARK    4  A    between atoms: O1_10  and  C9_11 
REMARK    5  A    between atoms: C13_17  and  N4_18 
REMARK    6  A    between atoms: N4_18  and  C14_19 
ROOT
HETATM    1  C9  UNL     1      24.197   1.759  52.841  1.00  0.00     0.107 A 
HETATM    2  C10 UNL     1      23.935   0.577  53.504  1.00  0.00     0.072 A 
HETATM    3  C11 UNL     1      22.658   0.060  53.587  1.00  0.00     0.077 A 
HETATM    4  N2  UNL     1      22.348  -1.084  54.219  1.00  0.00    -0.241 NA
HETATM    5  C12 UNL     1      21.098  -1.577  54.292  1.00  0.00     0.236 A 
HETATM    6  N3  UNL     1      20.110  -0.879  53.695  1.00  0.00    -0.223 NA
HETATM    7  C13 UNL     1      20.362   0.277  53.046  1.00  0.00     0.144 A 
HETATM    8  C18 UNL     1      21.662   0.786  52.972  1.00  0.00     0.075 A 
HETATM    9  C19 UNL     1      21.912   1.968  52.306  1.00  0.00     0.121 A 
HETATM   10  C20 UNL     1      23.188   2.484  52.224  1.00  0.00     0.136 A 
HETATM   11  O2  UNL     1      23.352   3.677  51.537  1.00  0.00    -0.344 OA
HETATM   12  C21 UNL     1      22.543   3.885  50.394  1.00  0.00     0.202 C 
HETATM   13  C22 UNL     1      21.125   3.441  50.555  1.00  0.00     0.202 C 
HETATM   14  O3  UNL     1      20.876   2.665  51.702  1.00  0.00    -0.345 OA
ENDROOT
BRANCH   1  15
HETATM   15  O1  UNL     1      25.478   2.272  52.762  1.00  0.00    -0.346 OA
BRANCH  15  16
HETATM   16  C8  UNL     1      26.405   1.992  51.753  1.00  0.00     0.212 C 
BRANCH  16  17
HETATM   17  C7  UNL     1      27.715   1.638  52.462  1.00  0.00     0.252 C 
HETATM   18  C3  UNL     1      27.836   0.181  52.775  1.00  0.00     0.043 C 
HETATM   19  C4  UNL     1      27.795  -0.071  54.284  1.00  0.00     0.012 C 
HETATM   20  C5  UNL     1      28.944   0.703  54.886  1.00  0.00     0.031 C 
HETATM   21  C6  UNL     1      28.970   2.136  54.425  1.00  0.00     0.270 C 
HETATM   22  N1  UNL     1      27.774   2.487  53.658  1.00  0.00     0.090 N 
HETATM   23  H11 UNL     1      27.956   3.453  53.306  1.00  0.00     0.316 HD
BRANCH  18  24
HETATM   24  C2  UNL     1      26.829  -0.670  52.090  1.00  0.00    -0.030 C 
HETATM   25  C1  UNL     1      26.651  -1.956  52.335  1.00  0.00     0.007 C 
ENDBRANCH  18  24
ENDBRANCH  16  17
ENDBRANCH  15  16
ENDBRANCH   1  15
BRANCH   7  26
HETATM   26  N4  UNL     1      19.288   0.982  52.430  1.00  0.00    -0.340 N 
HETATM   27  H17 UNL     1      19.213   1.934  52.857  1.00  0.00     0.167 HD
BRANCH  26  28
HETATM   28  C14 UNL     1      18.433   0.527  51.413  1.00  0.00     0.036 A 
HETATM   29  C15 UNL     1      18.297   0.741  50.113  1.00  0.00     0.053 A 
HETATM   30  C16 UNL     1      17.178  -0.193  50.137  1.00  0.00     0.038 A 
HETATM   31 CL1  UNL     1      16.017  -0.869  48.992  1.00  0.00    -0.084 Cl
HETATM   32  C17 UNL     1      17.319  -0.403  51.438  1.00  0.00     0.053 A 
ENDBRANCH  26  28
ENDBRANCH   7  26
TORSDOF 6
ENDMDL
MODEL 2
REMARK VINA RESULT:      -8.3      3.365      8.379
REMARK  6 active torsions:
REMARK  status: ('A' for Active; 'I' for Inactive)
REMARK    1  A    between atoms: C2_2  and  C3_3 
REMARK    2  A    between atoms: C7_8  and  C8_9 
REMARK    3  A    between atoms: C8_9  and  O1_10 
REMARK    4  A    between atoms: O1_10  and  C9_11 
REMARK    5  A    between atoms: C13_17  and  N4_18 
REMARK    6  A    between atoms: N4_18  and  C14_19 
ROOT
HETATM    1  C9  UNL     1      20.333   0.468  52.447  1.00  0.00     0.107 A 
HETATM    2  C10 UNL     1      20.534  -0.272  53.595  1.00  0.00     0.072 A 
HETATM    3  C11 UNL     1      21.801  -0.543  54.070  1.00  0.00     0.077 A 
HETATM    4  N2  UNL     1      22.053  -1.256  55.179  1.00  0.00    -0.241 NA
HETATM    5  C12 UNL     1      23.294  -1.513  55.631  1.00  0.00     0.236 A 
HETATM    6  N3  UNL     1      24.335  -1.023  54.927  1.00  0.00    -0.223 NA
HETATM    7  C13 UNL     1      24.143  -0.299  53.805  1.00  0.00     0.144 A 
HETATM    8  C18 UNL     1      22.851  -0.034  53.337  1.00  0.00     0.075 A 
HETATM    9  C19 UNL     1      22.662   0.707  52.190  1.00  0.00     0.121 A 
HETATM   10  C20 UNL     1      21.396   0.977  51.715  1.00  0.00     0.136 A 
HETATM   11  O2  UNL     1      21.295   1.729  50.555  1.00  0.00    -0.344 OA
HETATM   12  C21 UNL     1      22.243   2.764  50.366  1.00  0.00     0.202 C 
HETATM   13  C22 UNL     1      23.638   2.399  50.761  1.00  0.00     0.202 C 
HETATM   14  O3  UNL     1      23.752   1.199  51.485  1.00  0.00    -0.345 OA
ENDROOT
BRANCH   1  15
HETATM   15  O1  UNL     1      19.061   0.736  51.976  1.00  0.00    -0.346 OA
BRANCH  15  16
HETATM   16  C8  UNL     1      18.227  -0.178  51.324  1.00  0.00     0.212 C 
BRANCH  16  17
HETATM   17  C7  UNL     1      16.832   0.011  51.927  1.00  0.00     0.252 C 
HETATM   18  C3  UNL     1      16.420  -1.119  52.814  1.00  0.00     0.043 C 
HETATM   19  C4  UNL     1      15.259  -1.910  52.207  1.00  0.00     0.012 C 
HETATM   20  C5  UNL     1      14.120  -0.936  52.018  1.00  0.00     0.031 C 
HETATM   21  C6  UNL     1      14.554   0.315  51.301  1.00  0.00     0.270 C 
HETATM   22  N1  UNL     1      15.922   0.209  50.792  1.00  0.00     0.090 N 
HETATM   23  H11 UNL     1      16.143   1.159  50.420  1.00  0.00     0.316 HD
BRANCH  18  24
HETATM   24  C2  UNL     1      17.528  -2.041  53.175  1.00  0.00    -0.030 C 
HETATM   25  C1  UNL     1      17.362  -3.300  53.537  1.00  0.00     0.007 C 
ENDBRANCH  18  24
ENDBRANCH  16  17
ENDBRANCH  15  16
ENDBRANCH   1  15
BRANCH   7  26
HETATM   26  N4  UNL     1      25.270   0.199  53.092  1.00  0.00    -0.340 N 
HETATM   27  H17 UNL     1      24.958   0.956  52.440  1.00  0.00     0.167 HD
BRANCH  26  28
HETATM   28  C14 UNL     1      26.607  -0.216  53.200  1.00  0.00     0.036 A 
HETATM   29  C15 UNL     1      27.342  -1.205  52.715  1.00  0.00     0.053 A 
HETATM   30  C16 UNL     1      28.470  -0.650  53.455  1.00  0.00     0.038 A 
HETATM   31 CL1  UNL     1      30.177  -1.022  53.706  1.00  0.00    -0.084 Cl
HETATM   32  C17 UNL     1      27.730   0.338  53.936  1.00  0.00     0.053 A 
ENDBRANCH  26  28
ENDBRANCH   7  26
TORSDOF 6
ENDMDL
MODEL 3
REMARK VINA RESULT:      -8.2      5.063      7.540
REMARK  6 active torsions:
REMARK  status: ('A' for Active; 'I' for Inactive)
REMARK    1  A    between atoms: C2_2  and  C3_3 
REMARK    2  A    between atoms: C7_8  and  C8_9 
REMARK    3  A    between atoms: C8_9  and  O1_10 
REMARK    4  A    between atoms: O1_10  and  C9_11 
REMARK    5  A    between atoms: C13_17  and  N4_18 
REMARK    6  A    between atoms: N4_18  and  C14_19 
ROOT
HETATM    1  C9  UNL     1      25.307   3.004  50.648  1.00  0.00     0.107 A 
HETATM    2  C10 UNL     1      26.525   3.208  50.033  1.00  0.00     0.072 A 
HETATM    3  C11 UNL     1      26.818   4.388  49.379  1.00  0.00     0.077 A 
HETATM    4  N2  UNL     1      27.986   4.639  48.765  1.00  0.00    -0.241 NA
HETATM    5  C12 UNL     1      28.258   5.794  48.130  1.00  0.00     0.236 A 
HETATM    6  N3  UNL     1      27.302   6.745  48.116  1.00  0.00    -0.223 NA
HETATM    7  C13 UNL     1      26.109   6.549  48.716  1.00  0.00     0.144 A 
HETATM    8  C18 UNL     1      25.830   5.347  49.374  1.00  0.00     0.075 A 
HETATM    9  C19 UNL     1      24.609   5.154  49.986  1.00  0.00     0.121 A 
HETATM   10  C20 UNL     1      24.317   3.976  50.640  1.00  0.00     0.136 A 
HETATM   11  O2  UNL     1      23.066   3.863  51.227  1.00  0.00    -0.344 OA
HETATM   12  C21 UNL     1      22.516   5.029  51.813  1.00  0.00     0.202 C 
HETATM   13  C22 UNL     1      22.728   6.276  51.017  1.00  0.00     0.202 C 
HETATM   14  O3  UNL     1      23.644   6.151  49.956  1.00  0.00    -0.345 OA
ENDROOT
BRANCH   1  15
HETATM   15  O1  UNL     1      25.020   1.820  51.302  1.00  0.00    -0.346 OA
BRANCH  15  16
HETATM   16  C8  UNL     1      25.383   1.508  52.615  1.00  0.00     0.212 C 
BRANCH  16  17
HETATM   17  C7  UNL     1      26.914   1.513  52.648  1.00  0.00     0.252 C 
HETATM   18  C3  UNL     1      27.499   0.153  52.849  1.00  0.00     0.043 C 
HETATM   19  C4  UNL     1      28.192   0.038  54.209  1.00  0.00     0.012 C 
HETATM   20  C5  UNL     1      29.271   1.095  54.239  1.00  0.00     0.031 C 
HETATM   21  C6  UNL     1      28.752   2.450  53.839  1.00  0.00     0.270 C 
HETATM   22  N1  UNL     1      27.295   2.461  53.702  1.00  0.00     0.090 N 
HETATM   23  H11 UNL     1      27.070   3.407  53.322  1.00  0.00     0.316 HD
BRANCH  18  24
HETATM   24  C2  UNL     1      26.526  -0.956  52.680  1.00  0.00    -0.030 C 
HETATM   25  C1  UNL     1      26.856  -2.200  52.384  1.00  0.00     0.007 C 
ENDBRANCH  18  24
ENDBRANCH  16  17
ENDBRANCH  15  16
ENDBRANCH   1  15
BRANCH   7  26
HETATM   26  N4  UNL     1      25.128   7.581  48.677  1.00  0.00    -0.340 N 
HETATM   27  H17 UNL     1      24.183   7.161  48.835  1.00  0.00     0.167 HD
BRANCH  26  28
HETATM   28  C14 UNL     1      25.332   8.954  48.464  1.00  0.00     0.036 A 
HETATM   29  C15 UNL     1      24.799   9.891  47.696  1.00  0.00     0.053 A 
HETATM   30  C16 UNL     1      25.741  10.831  48.290  1.00  0.00     0.038 A 
HETATM   31 CL1  UNL     1      26.137  12.546  48.153  1.00  0.00    -0.084 Cl
HETATM   32  C17 UNL     1      26.271   9.889  49.056  1.00  0.00     0.053 A 
ENDBRANCH  26  28
ENDBRANCH   7  26
TORSDOF 6
ENDMDL
MODEL 4
REMARK VINA RESULT:      -8.1      4.172      5.608
REMARK  6 active torsions:
REMARK  status: ('A' for Active; 'I' for Inactive)
REMARK    1  A    between atoms: C2_2  and  C3_3 
REMARK    2  A    between atoms: C7_8  and  C8_9 
REMARK    3  A    between atoms: C8_9  and  O1_10 
REMARK    4  A    between atoms: O1_10  and  C9_11 
REMARK    5  A    between atoms: C13_17  and  N4_18 
REMARK    6  A    between atoms: N4_18  and  C14_19 
ROOT
HETATM    1  C9  UNL     1      25.954   4.100  49.860  1.00  0.00     0.107 A 
HETATM    2  C10 UNL     1      26.611   2.965  50.289  1.00  0.00     0.072 A 
HETATM    3  C11 UNL     1      26.034   2.086  51.182  1.00  0.00     0.077 A 
HETATM    4  N2  UNL     1      26.627   0.969  51.632  1.00  0.00    -0.241 NA
HETATM    5  C12 UNL     1      26.052   0.120  52.504  1.00  0.00     0.236 A 
HETATM    6  N3  UNL     1      24.812   0.415  52.944  1.00  0.00    -0.223 NA
HETATM    7  C13 UNL     1      24.165   1.524  52.527  1.00  0.00     0.144 A 
HETATM    8  C18 UNL     1      24.767   2.403  51.621  1.00  0.00     0.075 A 
HETATM    9  C19 UNL     1      24.100   3.535  51.199  1.00  0.00     0.121 A 
HETATM   10  C20 UNL     1      24.677   4.412  50.306  1.00  0.00     0.136 A 
HETATM   11  O2  UNL     1      23.939   5.525  49.934  1.00  0.00    -0.344 OA
HETATM   12  C21 UNL     1      22.539   5.360  49.796  1.00  0.00     0.202 C 
HETATM   13  C22 UNL     1      21.912   4.513  50.856  1.00  0.00     0.202 C 
HETATM   14  O3  UNL     1      22.824   3.812  51.668  1.00  0.00    -0.345 OA
ENDROOT
BRANCH   1  15
HETATM   15  O1  UNL     1      26.538   4.976  48.965  1.00  0.00    -0.346 OA
BRANCH  15  16
HETATM   16  C8  UNL     1      27.883   4.971  48.583  1.00  0.00     0.212 C 
BRANCH  16  17
HETATM   17  C7  UNL     1      28.214   6.405  48.161  1.00  0.00     0.252 C 
HETATM   18  C3  UNL     1      29.656   6.596  47.820  1.00  0.00     0.043 C 
HETATM   19  C4  UNL     1      30.354   7.505  48.834  1.00  0.00     0.012 C 
HETATM   20  C5  UNL     1      29.620   8.825  48.815  1.00  0.00     0.031 C 
HETATM   21  C6  UNL     1      28.131   8.650  48.953  1.00  0.00     0.270 C 
HETATM   22  N1  UNL     1      27.767   7.267  49.262  1.00  0.00     0.090 N 
HETATM   23  H11 UNL     1      26.724   7.250  49.223  1.00  0.00     0.316 HD
BRANCH  18  24
HETATM   24  C2  UNL     1      30.416   5.329  47.666  1.00  0.00    -0.030 C 
HETATM   25  C1  UNL     1      31.657   5.150  48.079  1.00  0.00     0.007 C 
ENDBRANCH  18  24
ENDBRANCH  16  17
ENDBRANCH  15  16
ENDBRANCH   1  15
BRANCH   7  26
HETATM   26  N4  UNL     1      22.856   1.796  53.017  1.00  0.00    -0.340 N 
HETATM   27  H17 UNL     1      22.832   2.764  53.413  1.00  0.00     0.167 HD
BRANCH  26  28
HETATM   28  C14 UNL     1      21.738   0.946  53.001  1.00  0.00     0.036 A 
HETATM   29  C15 UNL     1      20.997   0.361  52.074  1.00  0.00     0.053 A 
HETATM   30  C16 UNL     1      20.204  -0.214  53.155  1.00  0.00     0.038 A 
HETATM   31 CL1  UNL     1      18.803  -1.274  53.327  1.00  0.00    -0.084 Cl
HETATM   32  C17 UNL     1      20.950   0.375  54.079  1.00  0.00     0.053 A 
ENDBRANCH  26  28
ENDBRANCH   7  26
TORSDOF 6
ENDMDL
MODEL 5
REMARK VINA RESULT:      -7.8      5.849      8.664
REMARK  6 active torsions:
REMARK  status: ('A' for Active; 'I' for Inactive)
REMARK    1  A    between atoms: C2_2  and  C3_3 
REMARK    2  A    between atoms: C7_8  and  C8_9 
REMARK    3  A    between atoms: C8_9  and  O1_10 
REMARK    4  A    between atoms: O1_10  and  C9_11 
REMARK    5  A    between atoms: C13_17  and  N4_18 
REMARK    6  A    between atoms: N4_18  and  C14_19 
ROOT
HETATM    1  C9  UNL     1      25.494   3.983  50.028  1.00  0.00     0.107 A 
HETATM    2  C10 UNL     1      26.776   3.888  49.526  1.00  0.00     0.072 A 
HETATM    3  C11 UNL     1      27.393   4.955  48.906  1.00  0.00     0.077 A 
HETATM    4  N2  UNL     1      28.637   4.918  48.401  1.00  0.00    -0.241 NA
HETATM    5  C12 UNL     1      29.226   5.966  47.799  1.00  0.00     0.236 A 
HETATM    6  N3  UNL     1      28.525   7.114  47.703  1.00  0.00    -0.223 NA
HETATM    7  C13 UNL     1      27.270   7.211  48.192  1.00  0.00     0.144 A 
HETATM    8  C18 UNL     1      26.661   6.119  48.817  1.00  0.00     0.075 A 
HETATM    9  C19 UNL     1      25.379   6.226  49.316  1.00  0.00     0.121 A 
HETATM   10  C20 UNL     1      24.763   5.159  49.935  1.00  0.00     0.136 A 
HETATM   11  O2  UNL     1      23.474   5.351  50.407  1.00  0.00    -0.344 OA
HETATM   12  C21 UNL     1      23.162   6.623  50.946  1.00  0.00     0.202 C 
HETATM   13  C22 UNL     1      23.728   7.772  50.177  1.00  0.00     0.202 C 
HETATM   14  O3  UNL     1      24.680   7.419  49.203  1.00  0.00    -0.345 OA
ENDROOT
BRANCH   1  15
HETATM   15  O1  UNL     1      24.881   2.910  50.648  1.00  0.00    -0.346 OA
BRANCH  15  16
HETATM   16  C8  UNL     1      24.873   2.663  52.024  1.00  0.00     0.212 C 
BRANCH  16  17
HETATM   17  C7  UNL     1      25.959   1.614  52.277  1.00  0.00     0.252 C 
HETATM   18  C3  UNL     1      25.485   0.471  53.115  1.00  0.00     0.043 C 
HETATM   19  C4  UNL     1      26.172   0.459  54.482  1.00  0.00     0.012 C 
HETATM   20  C5  UNL     1      27.657   0.352  54.223  1.00  0.00     0.031 C 
HETATM   21  C6  UNL     1      28.134   1.368  53.219  1.00  0.00     0.270 C 
HETATM   22  N1  UNL     1      27.089   2.334  52.877  1.00  0.00     0.090 N 
HETATM   23  H11 UNL     1      27.497   2.906  52.105  1.00  0.00     0.316 HD
BRANCH  18  24
HETATM   24  C2  UNL     1      24.011   0.417  53.287  1.00  0.00    -0.030 C 
HETATM   25  C1  UNL     1      23.308  -0.699  53.351  1.00  0.00     0.007 C 
ENDBRANCH  18  24
ENDBRANCH  16  17
ENDBRANCH  15  16
ENDBRANCH   1  15
BRANCH   7  26
HETATM   26  N4  UNL     1      26.565   8.442  48.069  1.00  0.00    -0.340 N 
HETATM   27  H17 UNL     1      25.592   8.249  47.736  1.00  0.00     0.167 HD
BRANCH  26  28
HETATM   28  C14 UNL     1      27.041   9.736  48.335  1.00  0.00     0.036 A 
HETATM   29  C15 UNL     1      26.585  10.970  48.190  1.00  0.00     0.053 A 
HETATM   30  C16 UNL     1      27.843  11.439  48.759  1.00  0.00     0.038 A 
HETATM   31 CL1  UNL     1      28.601  12.982  49.158  1.00  0.00    -0.084 Cl
HETATM   32  C17 UNL     1      28.294  10.202  48.901  1.00  0.00     0.053 A 
ENDBRANCH  26  28
ENDBRANCH   7  26
TORSDOF 6
ENDMDL
MODEL 6
REMARK VINA RESULT:      -7.8      3.360      8.578
REMARK  6 active torsions:
REMARK  status: ('A' for Active; 'I' for Inactive)
REMARK    1  A    between atoms: C2_2  and  C3_3 
REMARK    2  A    between atoms: C7_8  and  C8_9 
REMARK    3  A    between atoms: C8_9  and  O1_10 
REMARK    4  A    between atoms: O1_10  and  C9_11 
REMARK    5  A    between atoms: C13_17  and  N4_18 
REMARK    6  A    between atoms: N4_18  and  C14_19 
ROOT
HETATM    1  C9  UNL     1      20.579   1.515  52.364  1.00  0.00     0.107 A 
HETATM    2  C10 UNL     1      21.364   2.355  51.601  1.00  0.00     0.072 A 
HETATM    3  C11 UNL     1      22.740   2.352  51.702  1.00  0.00     0.077 A 
HETATM    4  N2  UNL     1      23.551   3.146  50.985  1.00  0.00    -0.241 NA
HETATM    5  C12 UNL     1      24.892   3.133  51.094  1.00  0.00     0.236 A 
HETATM    6  N3  UNL     1      25.443   2.272  51.972  1.00  0.00    -0.223 NA
HETATM    7  C13 UNL     1      24.679   1.448  52.721  1.00  0.00     0.144 A 
HETATM    8  C18 UNL     1      23.285   1.465  52.605  1.00  0.00     0.075 A 
HETATM    9  C19 UNL     1      22.511   0.621  53.373  1.00  0.00     0.121 A 
HETATM   10  C20 UNL     1      21.136   0.625  53.271  1.00  0.00     0.136 A 
HETATM   11  O2  UNL     1      20.433  -0.255  54.079  1.00  0.00    -0.344 OA
HETATM   12  C21 UNL     1      21.015  -1.523  54.321  1.00  0.00     0.202 C 
HETATM   13  C22 UNL     1      22.489  -1.485  54.565  1.00  0.00     0.202 C 
HETATM   14  O3  UNL     1      23.106  -0.256  54.269  1.00  0.00    -0.345 OA
ENDROOT
BRANCH   1  15
HETATM   15  O1  UNL     1      19.201   1.523  52.258  1.00  0.00    -0.346 OA
BRANCH  15  16
HETATM   16  C8  UNL     1      18.472   1.207  51.108  1.00  0.00     0.212 C 
BRANCH  16  17
HETATM   17  C7  UNL     1      17.981  -0.231  51.294  1.00  0.00     0.252 C 
HETATM   18  C3  UNL     1      16.769  -0.546  50.479  1.00  0.00     0.043 C 
HETATM   19  C4  UNL     1      15.544  -0.781  51.366  1.00  0.00     0.012 C 
HETATM   20  C5  UNL     1      15.885  -1.931  52.284  1.00  0.00     0.031 C 
HETATM   21  C6  UNL     1      17.210  -1.738  52.971  1.00  0.00     0.270 C 
HETATM   22  N1  UNL     1      17.761  -0.403  52.735  1.00  0.00     0.090 N 
HETATM   23  H11 UNL     1      18.714  -0.427  53.162  1.00  0.00     0.316 HD
BRANCH  18  24
HETATM   24  C2  UNL     1      16.456   0.470  49.441  1.00  0.00    -0.030 C 
HETATM   25  C1  UNL     1      15.568   0.304  48.478  1.00  0.00     0.007 C 
ENDBRANCH  18  24
ENDBRANCH  16  17
ENDBRANCH  15  16
ENDBRANCH   1  15
BRANCH   7  26
HETATM   26  N4  UNL     1      25.304   0.554  53.637  1.00  0.00    -0.340 N 
HETATM   27  H17 UNL     1      24.625   0.309  54.394  1.00  0.00     0.167 HD
BRANCH  26  28
HETATM   28  C14 UNL     1      26.613   0.048  53.587  1.00  0.00     0.036 A 
HETATM   29  C15 UNL     1      27.302  -0.739  52.776  1.00  0.00     0.053 A 
HETATM   30  C16 UNL     1      28.442  -0.560  53.668  1.00  0.00     0.038 A 
HETATM   31 CL1  UNL     1      30.119  -1.101  53.768  1.00  0.00    -0.084 Cl
HETATM   32  C17 UNL     1      27.747   0.226  54.476  1.00  0.00     0.053 A 
ENDBRANCH  26  28
ENDBRANCH   7  26
TORSDOF 6
ENDMDL
MODEL 7
REMARK VINA RESULT:      -7.8      3.378      8.208
REMARK  6 active torsions:
REMARK  status: ('A' for Active; 'I' for Inactive)
REMARK    1  A    between atoms: C2_2  and  C3_3 
REMARK    2  A    between atoms: C7_8  and  C8_9 
REMARK    3  A    between atoms: C8_9  and  O1_10 
REMARK    4  A    between atoms: O1_10  and  C9_11 
REMARK    5  A    between atoms: C13_17  and  N4_18 
REMARK    6  A    between atoms: N4_18  and  C14_19 
ROOT
HETATM    1  C9  UNL     1      21.077   2.687  52.492  1.00  0.00     0.107 A 
HETATM    2  C10 UNL     1      21.977   3.453  51.780  1.00  0.00     0.072 A 
HETATM    3  C11 UNL     1      23.298   3.077  51.641  1.00  0.00     0.077 A 
HETATM    4  N2  UNL     1      24.215   3.783  50.960  1.00  0.00    -0.241 NA
HETATM    5  C12 UNL     1      25.500   3.404  50.832  1.00  0.00     0.236 A 
HETATM    6  N3  UNL     1      25.878   2.252  51.421  1.00  0.00    -0.223 NA
HETATM    7  C13 UNL     1      25.001   1.500  52.118  1.00  0.00     0.144 A 
HETATM    8  C18 UNL     1      23.666   1.897  52.249  1.00  0.00     0.075 A 
HETATM    9  C19 UNL     1      22.774   1.123  52.963  1.00  0.00     0.121 A 
HETATM   10  C20 UNL     1      21.455   1.500  53.102  1.00  0.00     0.136 A 
HETATM   11  O2  UNL     1      20.626   0.665  53.835  1.00  0.00    -0.344 OA
HETATM   12  C21 UNL     1      20.846  -0.730  53.726  1.00  0.00     0.202 C 
HETATM   13  C22 UNL     1      22.288  -1.125  53.715  1.00  0.00     0.202 C 
HETATM   14  O3  UNL     1      23.192  -0.059  53.558  1.00  0.00    -0.345 OA
ENDROOT
BRANCH   1  15
HETATM   15  O1  UNL     1      19.755   3.070  52.629  1.00  0.00    -0.346 OA
BRANCH  15  16
HETATM   16  C8  UNL     1      18.813   3.119  51.597  1.00  0.00     0.212 C 
BRANCH  16  17
HETATM   17  C7  UNL     1      18.173   1.730  51.535  1.00  0.00     0.252 C 
HETATM   18  C3  UNL     1      18.536   0.973  50.299  1.00  0.00     0.043 C 
HETATM   19  C4  UNL     1      17.322   0.777  49.387  1.00  0.00     0.012 C 
HETATM   20  C5  UNL     1      16.289   0.023  50.192  1.00  0.00     0.031 C 
HETATM   21  C6  UNL     1      16.048   0.651  51.539  1.00  0.00     0.270 C 
HETATM   22  N1  UNL     1      16.727   1.941  51.673  1.00  0.00     0.090 N 
HETATM   23  H11 UNL     1      16.579   2.219  52.668  1.00  0.00     0.316 HD
BRANCH  18  24
HETATM   24  C2  UNL     1      19.657   1.571  49.529  1.00  0.00    -0.030 C 
HETATM   25  C1  UNL     1      20.822   0.982  49.330  1.00  0.00     0.007 C 
ENDBRANCH  18  24
ENDBRANCH  16  17
ENDBRANCH  15  16
ENDBRANCH   1  15
BRANCH   7  26
HETATM   26  N4  UNL     1      25.443   0.289  52.724  1.00  0.00    -0.340 N 
HETATM   27  H17 UNL     1      24.621  -0.341  52.871  1.00  0.00     0.167 HD
BRANCH  26  28
HETATM   28  C14 UNL     1      26.753  -0.060  53.090  1.00  0.00     0.036 A 
HETATM   29  C15 UNL     1      27.695   0.448  53.869  1.00  0.00     0.053 A 
HETATM   30  C16 UNL     1      28.536  -0.680  53.487  1.00  0.00     0.038 A 
HETATM   31 CL1  UNL     1      30.163  -1.271  53.833  1.00  0.00    -0.084 Cl
HETATM   32  C17 UNL     1      27.591  -1.183  52.708  1.00  0.00     0.053 A 
ENDBRANCH  26  28
ENDBRANCH   7  26
TORSDOF 6
ENDMDL
MODEL 8
REMARK VINA RESULT:      -7.8      1.935      2.212
REMARK  6 active torsions:
REMARK  status: ('A' for Active; 'I' for Inactive)
REMARK    1  A    between atoms: C2_2  and  C3_3 
REMARK    2  A    between atoms: C7_8  and  C8_9 
REMARK    3  A    between atoms: C8_9  and  O1_10 
REMARK    4  A    between atoms: O1_10  and  C9_11 
REMARK    5  A    between atoms: C13_17  and  N4_18 
REMARK    6  A    between atoms: N4_18  and  C14_19 
ROOT
HETATM    1  C9  UNL     1      23.045   1.035  51.819  1.00  0.00     0.107 A 
HETATM    2  C10 UNL     1      22.324   0.289  52.729  1.00  0.00     0.072 A 
HETATM    3  C11 UNL     1      20.975   0.049  52.565  1.00  0.00     0.077 A 
HETATM    4  N2  UNL     1      20.227  -0.669  53.418  1.00  0.00    -0.241 NA
HETATM    5  C12 UNL     1      18.912  -0.894  53.245  1.00  0.00     0.236 A 
HETATM    6  N3  UNL     1      18.321  -0.368  52.153  1.00  0.00    -0.223 NA
HETATM    7  C13 UNL     1      19.022   0.362  51.259  1.00  0.00     0.144 A 
HETATM    8  C18 UNL     1      20.389   0.595  51.443  1.00  0.00     0.075 A 
HETATM    9  C19 UNL     1      21.099   1.342  50.526  1.00  0.00     0.121 A 
HETATM   10  C20 UNL     1      22.447   1.580  50.692  1.00  0.00     0.136 A 
HETATM   11  O2  UNL     1      23.085   2.341  49.724  1.00  0.00    -0.344 OA
HETATM   12  C21 UNL     1      22.663   2.174  48.383  1.00  0.00     0.202 C 
HETATM   13  C22 UNL     1      21.183   2.054  48.215  1.00  0.00     0.202 C 
HETATM   14  O3  UNL     1      20.465   1.870  49.411  1.00  0.00    -0.345 OA
ENDROOT
BRANCH   1  15
HETATM   15  O1  UNL     1      24.396   1.272  51.990  1.00  0.00    -0.346 OA
BRANCH  15  16
HETATM   16  C8  UNL     1      25.086   1.202  53.205  1.00  0.00     0.212 C 
BRANCH  16  17
HETATM   17  C7  UNL     1      26.567   1.393  52.867  1.00  0.00     0.252 C 
HETATM   18  C3  UNL     1      27.332   0.110  52.843  1.00  0.00     0.043 C 
HETATM   19  C4  UNL     1      28.348   0.044  53.986  1.00  0.00     0.012 C 
HETATM   20  C5  UNL     1      29.276   1.223  53.813  1.00  0.00     0.031 C 
HETATM   21  C6  UNL     1      28.526   2.515  53.629  1.00  0.00     0.270 C 
HETATM   22  N1  UNL     1      27.088   2.352  53.849  1.00  0.00     0.090 N 
HETATM   23  H11 UNL     1      26.671   3.273  53.588  1.00  0.00     0.316 HD
BRANCH  18  24
HETATM   24  C2  UNL     1      26.478  -1.105  52.852  1.00  0.00    -0.030 C 
HETATM   25  C1  UNL     1      26.819  -2.261  52.313  1.00  0.00     0.007 C 
ENDBRANCH  18  24
ENDBRANCH  16  17
ENDBRANCH  15  16
ENDBRANCH   1  15
BRANCH   7  26
HETATM   26  N4  UNL     1      18.359   0.899  50.120  1.00  0.00    -0.340 N 
HETATM   27  H17 UNL     1      18.936   0.712  49.267  1.00  0.00     0.167 HD
BRANCH  26  28
HETATM   28  C14 UNL     1      17.130   1.578  50.081  1.00  0.00     0.036 A 
HETATM   29  C15 UNL     1      16.026   1.515  49.353  1.00  0.00     0.053 A 
HETATM   30  C16 UNL     1      15.502   2.609  50.162  1.00  0.00     0.038 A 
HETATM   31 CL1  UNL     1      14.023   3.568  50.259  1.00  0.00    -0.084 Cl
HETATM   32  C17 UNL     1      16.609   2.668  50.887  1.00  0.00     0.053 A 
ENDBRANCH  26  28
ENDBRANCH   7  26
TORSDOF 6
ENDMDL
MODEL 9
REMARK VINA RESULT:      -7.6      5.715      8.799
REMARK  6 active torsions:
REMARK  status: ('A' for Active; 'I' for Inactive)
REMARK    1  A    between atoms: C2_2  and  C3_3 
REMARK    2  A    between atoms: C7_8  and  C8_9 
REMARK    3  A    between atoms: C8_9  and  O1_10 
REMARK    4  A    between atoms: O1_10  and  C9_11 
REMARK    5  A    between atoms: C13_17  and  N4_18 
REMARK    6  A    between atoms: N4_18  and  C14_19 
ROOT
HETATM    1  C9  UNL     1      25.129   3.765  50.065  1.00  0.00     0.107 A 
HETATM    2  C10 UNL     1      26.420   3.670  49.586  1.00  0.00     0.072 A 
HETATM    3  C11 UNL     1      27.080   4.762  49.061  1.00  0.00     0.077 A 
HETATM    4  N2  UNL     1      28.334   4.727  48.582  1.00  0.00    -0.241 NA
HETATM    5  C12 UNL     1      28.966   5.800  48.073  1.00  0.00     0.236 A 
HETATM    6  N3  UNL     1      28.297   6.971  48.047  1.00  0.00    -0.223 NA
HETATM    7  C13 UNL     1      27.035   7.068  48.515  1.00  0.00     0.144 A 
HETATM    8  C18 UNL     1      26.381   5.950  49.043  1.00  0.00     0.075 A 
HETATM    9  C19 UNL     1      25.091   6.056  49.520  1.00  0.00     0.121 A 
HETATM   10  C20 UNL     1      24.432   4.964  50.044  1.00  0.00     0.136 A 
HETATM   11  O2  UNL     1      23.137   5.158  50.500  1.00  0.00    -0.344 OA
HETATM   12  C21 UNL     1      22.846   6.394  51.126  1.00  0.00     0.202 C 
HETATM   13  C22 UNL     1      23.462   7.581  50.458  1.00  0.00     0.202 C 
HETATM   14  O3  UNL     1      24.427   7.274  49.481  1.00  0.00    -0.345 OA
ENDROOT
BRANCH   1  15
HETATM   15  O1  UNL     1      24.473   2.667  50.589  1.00  0.00    -0.346 OA
BRANCH  15  16
HETATM   16  C8  UNL     1      24.979   1.810  51.572  1.00  0.00     0.212 C 
BRANCH  16  17
HETATM   17  C7  UNL     1      23.843   1.593  52.576  1.00  0.00     0.252 C 
HETATM   18  C3  UNL     1      24.061   0.406  53.458  1.00  0.00     0.043 C 
HETATM   19  C4  UNL     1      23.043  -0.699  53.168  1.00  0.00     0.012 C 
HETATM   20  C5  UNL     1      21.674  -0.103  53.401  1.00  0.00     0.031 C 
HETATM   21  C6  UNL     1      21.495   1.208  52.683  1.00  0.00     0.270 C 
HETATM   22  N1  UNL     1      22.611   1.499  51.783  1.00  0.00     0.090 N 
HETATM   23  H11 UNL     1      22.429   2.465  51.435  1.00  0.00     0.316 HD
BRANCH  18  24
HETATM   24  C2  UNL     1      25.439  -0.145  53.402  1.00  0.00    -0.030 C 
HETATM   25  C1  UNL     1      26.289  -0.133  54.412  1.00  0.00     0.007 C 
ENDBRANCH  18  24
ENDBRANCH  16  17
ENDBRANCH  15  16
ENDBRANCH   1  15
BRANCH   7  26
HETATM   26  N4  UNL     1      26.366   8.324  48.469  1.00  0.00    -0.340 N 
HETATM   27  H17 UNL     1      25.337   8.161  48.369  1.00  0.00     0.167 HD
BRANCH  26  28
HETATM   28  C14 UNL     1      26.937   9.605  48.539  1.00  0.00     0.036 A 
HETATM   29  C15 UNL     1      26.695  10.789  47.999  1.00  0.00     0.053 A 
HETATM   30  C16 UNL     1      27.839  11.298  48.747  1.00  0.00     0.038 A 
HETATM   31 CL1  UNL     1      28.684  12.833  48.957  1.00  0.00    -0.084 Cl
HETATM   32  C17 UNL     1      28.076  10.110  49.285  1.00  0.00     0.053 A 
ENDBRANCH  26  28
ENDBRANCH   7  26
TORSDOF 6
ENDMDL
