MODEL 1
REMARK VINA RESULT:      -8.6      0.000      0.000
REMARK  6 active torsions:
REMARK  status: ('A' for Active; 'I' for Inactive)
REMARK    1  A    between atoms: C1_2  and  C2_4 
REMARK    2  A    between atoms: C2_4  and  O1_7 
REMARK    3  A    between atoms: O1_7  and  C3_8 
REMARK    4  A    between atoms: C6_12  and  N1_13 
REMARK    5  A    between atoms: N1_13  and  C7_14 
REMARK    6  A    between atoms: C10_18  and  C11_19 
ROOT
HETATM    1  N1  UNL     1      24.264   3.611  52.608  1.00  0.00    -0.182 N 
HETATM    2  H5  UNL     1      24.303   4.253  53.421  1.00  0.00     0.185 HD
ENDROOT
BRANCH   1   3
HETATM    3  C6  UNL     1      24.443   2.281  53.073  1.00  0.00     0.089 A 
HETATM    4  S1  UNL     1      23.309   0.914  52.924  1.00  0.00    -0.108 SA
HETATM    5  C5  UNL     1      24.142  -0.506  53.678  1.00  0.00     0.110 A 
HETATM    6  C4  UNL     1      25.463  -0.058  54.168  1.00  0.00     0.021 A 
HETATM    7  C3  UNL     1      26.268   1.004  54.253  1.00  0.00     0.075 A 
HETATM    8  C16 UNL     1      25.661   2.209  53.649  1.00  0.00     0.074 A 
BRANCH   7   9
HETATM    9  O1  UNL     1      27.523   1.002  54.833  1.00  0.00    -0.280 OA
BRANCH   9  10
HETATM   10  C2  UNL     1      28.721   0.917  54.129  1.00  0.00     0.418 C 
HETATM   11  F3  UNL     1      28.511   1.346  52.832  1.00  0.00    -0.169 F 
HETATM   12  F4  UNL     1      29.714   1.752  54.644  1.00  0.00    -0.169 F 
BRANCH  10  13
HETATM   13  C1  UNL     1      29.264  -0.488  54.057  1.00  0.00     0.455 C 
HETATM   14  F1  UNL     1      28.459  -1.265  53.235  1.00  0.00    -0.205 F 
HETATM   15  F2  UNL     1      30.563  -0.440  53.559  1.00  0.00    -0.205 F 
ENDBRANCH  10  13
ENDBRANCH   9  10
ENDBRANCH   7   9
ENDBRANCH   1   3
BRANCH   1  16
HETATM   16  C7  UNL     1      24.064   4.093  51.302  1.00  0.00     0.727 A 
HETATM   17  N2  UNL     1      22.915   4.219  50.649  1.00  0.00    -0.075 NA
HETATM   18  C8  UNL     1      22.823   4.745  49.398  1.00  0.00     0.139 A 
HETATM   19  C9  UNL     1      23.965   5.190  48.729  1.00  0.00     0.053 A 
HETATM   20  C10 UNL     1      25.158   5.052  49.427  1.00  0.00     0.087 A 
HETATM   21  N4  UNL     1      25.058   4.526  50.606  1.00  0.00    -0.062 NA
BRANCH  20  22
HETATM   22  C11 UNL     1      26.430   5.528  48.911  1.00  0.00    -0.004 A 
HETATM   23  C12 UNL     1      27.603   4.848  48.727  1.00  0.00     0.033 A 
HETATM   24  C13 UNL     1      28.772   5.324  48.186  1.00  0.00     0.117 A 
HETATM   25  N3  UNL     1      28.748   6.620  47.792  1.00  0.00    -0.273 NA
HETATM   26  C14 UNL     1      27.659   7.379  47.922  1.00  0.00     0.117 A 
HETATM   27  C15 UNL     1      26.509   6.864  48.469  1.00  0.00     0.033 A 
ENDBRANCH  20  22
ENDBRANCH   1  16
TORSDOF 6
ENDMDL
MODEL 2
REMARK VINA RESULT:      -8.3      2.205      3.353
REMARK  6 active torsions:
REMARK  status: ('A' for Active; 'I' for Inactive)
REMARK    1  A    between atoms: C1_2  and  C2_4 
REMARK    2  A    between atoms: C2_4  and  O1_7 
REMARK    3  A    between atoms: O1_7  and  C3_8 
REMARK    4  A    between atoms: C6_12  and  N1_13 
REMARK    5  A    between atoms: N1_13  and  C7_14 
REMARK    6  A    between atoms: C10_18  and  C11_19 
ROOT
HETATM    1  N1  UNL     1      26.446   3.355  49.390  1.00  0.00    -0.182 N 
HETATM    2  H5  UNL     1      26.404   2.528  48.766  1.00  0.00     0.185 HD
ENDROOT
BRANCH   1   3
HETATM    3  C6  UNL     1      25.937   2.986  50.664  1.00  0.00     0.089 A 
HETATM    4  S1  UNL     1      24.510   3.650  51.500  1.00  0.00    -0.108 SA
HETATM    5  C5  UNL     1      24.375   2.735  53.056  1.00  0.00     0.110 A 
HETATM    6  C4  UNL     1      25.488   1.763  53.115  1.00  0.00     0.021 A 
HETATM    7  C3  UNL     1      26.548   1.308  52.443  1.00  0.00     0.075 A 
HETATM    8  C16 UNL     1      26.723   2.003  51.149  1.00  0.00     0.074 A 
BRANCH   7   9
HETATM    9  O1  UNL     1      27.397   0.310  52.883  1.00  0.00    -0.280 OA
BRANCH   9  10
HETATM   10  C2  UNL     1      28.186   0.390  54.027  1.00  0.00     0.418 C 
HETATM   11  F3  UNL     1      28.695   1.670  54.134  1.00  0.00    -0.169 F 
HETATM   12  F4  UNL     1      27.461   0.176  55.202  1.00  0.00    -0.169 F 
BRANCH  10  13
HETATM   13  C1  UNL     1      29.357  -0.560  54.005  1.00  0.00     0.455 C 
HETATM   14  F1  UNL     1      28.996  -1.742  53.374  1.00  0.00    -0.205 F 
HETATM   15  F2  UNL     1      30.412   0.048  53.331  1.00  0.00    -0.205 F 
ENDBRANCH  10  13
ENDBRANCH   9  10
ENDBRANCH   7   9
ENDBRANCH   1   3
BRANCH   1  16
HETATM   16  C7  UNL     1      26.943   4.590  48.937  1.00  0.00     0.727 A 
HETATM   17  N2  UNL     1      26.269   5.719  48.754  1.00  0.00    -0.075 NA
HETATM   18  C8  UNL     1      26.855   6.880  48.356  1.00  0.00     0.139 A 
HETATM   19  C9  UNL     1      28.230   6.936  48.119  1.00  0.00     0.053 A 
HETATM   20  C10 UNL     1      28.920   5.747  48.317  1.00  0.00     0.087 A 
HETATM   21  N4  UNL     1      28.199   4.739  48.693  1.00  0.00    -0.062 NA
BRANCH  20  22
HETATM   22  C11 UNL     1      30.363   5.644  48.186  1.00  0.00    -0.004 A 
HETATM   23  C12 UNL     1      31.110   4.752  47.465  1.00  0.00     0.033 A 
HETATM   24  C13 UNL     1      32.475   4.720  47.326  1.00  0.00     0.117 A 
HETATM   25  N3  UNL     1      33.152   5.693  47.985  1.00  0.00    -0.273 NA
HETATM   26  C14 UNL     1      32.528   6.616  48.718  1.00  0.00     0.117 A 
HETATM   27  C15 UNL     1      31.159   6.611  48.831  1.00  0.00     0.033 A 
ENDBRANCH  20  22
ENDBRANCH   1  16
TORSDOF 6
ENDMDL
MODEL 3
REMARK VINA RESULT:      -8.2      3.462      4.386
REMARK  6 active torsions:
REMARK  status: ('A' for Active; 'I' for Inactive)
REMARK    1  A    between atoms: C1_2  and  C2_4 
REMARK    2  A    between atoms: C2_4  and  O1_7 
REMARK    3  A    between atoms: O1_7  and  C3_8 
REMARK    4  A    between atoms: C6_12  and  N1_13 
REMARK    5  A    between atoms: N1_13  and  C7_14 
REMARK    6  A    between atoms: C10_18  and  C11_19 
ROOT
HETATM    1  N1  UNL     1      24.434   3.428  52.727  1.00  0.00    -0.182 N 
HETATM    2  H5  UNL     1      24.315   4.044  53.553  1.00  0.00     0.185 HD
ENDROOT
BRANCH   1   3
HETATM    3  C6  UNL     1      24.870   2.152  53.173  1.00  0.00     0.089 A 
HETATM    4  S1  UNL     1      26.476   1.713  53.810  1.00  0.00    -0.108 SA
HETATM    5  C5  UNL     1      26.377  -0.044  54.238  1.00  0.00     0.110 A 
HETATM    6  C4  UNL     1      25.016  -0.521  53.909  1.00  0.00     0.021 A 
HETATM    7  C3  UNL     1      23.835  -0.133  53.421  1.00  0.00     0.075 A 
HETATM    8  C16 UNL     1      23.832   1.299  53.053  1.00  0.00     0.074 A 
BRANCH   7   9
HETATM    9  O1  UNL     1      22.733  -0.954  53.266  1.00  0.00    -0.280 OA
BRANCH   9  10
HETATM   10  C2  UNL     1      21.558  -0.848  54.004  1.00  0.00     0.418 C 
HETATM   11  F3  UNL     1      21.090  -2.116  54.289  1.00  0.00    -0.169 F 
HETATM   12  F4  UNL     1      21.749  -0.232  55.243  1.00  0.00    -0.169 F 
BRANCH  10  13
HETATM   13  C1  UNL     1      20.463  -0.118  53.268  1.00  0.00     0.455 C 
HETATM   14  F1  UNL     1      20.386   1.194  53.713  1.00  0.00    -0.205 F 
HETATM   15  F2  UNL     1      20.741  -0.152  51.905  1.00  0.00    -0.205 F 
ENDBRANCH  10  13
ENDBRANCH   9  10
ENDBRANCH   7   9
ENDBRANCH   1   3
BRANCH   1  16
HETATM   16  C7  UNL     1      24.178   3.892  51.424  1.00  0.00     0.727 A 
HETATM   17  N2  UNL     1      23.008   3.964  50.802  1.00  0.00    -0.075 NA
HETATM   18  C8  UNL     1      22.859   4.476  49.551  1.00  0.00     0.139 A 
HETATM   19  C9  UNL     1      23.963   4.964  48.848  1.00  0.00     0.053 A 
HETATM   20  C10 UNL     1      25.179   4.882  49.514  1.00  0.00     0.087 A 
HETATM   21  N4  UNL     1      25.134   4.362  50.699  1.00  0.00    -0.062 NA
BRANCH  20  22
HETATM   22  C11 UNL     1      26.415   5.408  48.960  1.00  0.00    -0.004 A 
HETATM   23  C12 UNL     1      27.618   4.784  48.772  1.00  0.00     0.033 A 
HETATM   24  C13 UNL     1      28.751   5.304  48.195  1.00  0.00     0.117 A 
HETATM   25  N3  UNL     1      28.652   6.586  47.766  1.00  0.00    -0.273 NA
HETATM   26  C14 UNL     1      27.528   7.291  47.897  1.00  0.00     0.117 A 
HETATM   27  C15 UNL     1      26.417   6.733  48.481  1.00  0.00     0.033 A 
ENDBRANCH  20  22
ENDBRANCH   1  16
TORSDOF 6
ENDMDL
MODEL 4
REMARK VINA RESULT:      -8.0      1.374      2.034
REMARK  6 active torsions:
REMARK  status: ('A' for Active; 'I' for Inactive)
REMARK    1  A    between atoms: C1_2  and  C2_4 
REMARK    2  A    between atoms: C2_4  and  O1_7 
REMARK    3  A    between atoms: O1_7  and  C3_8 
REMARK    4  A    between atoms: C6_12  and  N1_13 
REMARK    5  A    between atoms: N1_13  and  C7_14 
REMARK    6  A    between atoms: C10_18  and  C11_19 
ROOT
HETATM    1  N1  UNL     1      23.655   1.592  51.419  1.00  0.00    -0.182 N 
HETATM    2  H5  UNL     1      23.760   1.007  50.569  1.00  0.00     0.185 HD
ENDROOT
BRANCH   1   3
HETATM    3  C6  UNL     1      23.657   0.741  52.557  1.00  0.00     0.089 A 
HETATM    4  S1  UNL     1      22.248   0.051  53.402  1.00  0.00    -0.108 SA
HETATM    5  C5  UNL     1      22.922  -0.973  54.735  1.00  0.00     0.110 A 
HETATM    6  C4  UNL     1      24.397  -0.886  54.681  1.00  0.00     0.021 A 
HETATM    7  C3  UNL     1      25.412  -0.337  54.010  1.00  0.00     0.075 A 
HETATM    8  C16 UNL     1      24.944   0.512  52.894  1.00  0.00     0.074 A 
BRANCH   7   9
HETATM    9  O1  UNL     1      26.750  -0.523  54.305  1.00  0.00    -0.280 OA
BRANCH   9  10
HETATM   10  C2  UNL     1      27.748  -0.730  53.356  1.00  0.00     0.418 C 
HETATM   11  F3  UNL     1      27.534  -1.946  52.736  1.00  0.00    -0.169 F 
HETATM   12  F4  UNL     1      27.729   0.221  52.333  1.00  0.00    -0.169 F 
BRANCH  10  13
HETATM   13  C1  UNL     1      29.132  -0.765  53.953  1.00  0.00     0.455 C 
HETATM   14  F1  UNL     1      30.051  -0.253  53.049  1.00  0.00    -0.205 F 
HETATM   15  F2  UNL     1      29.132  -0.014  55.125  1.00  0.00    -0.205 F 
ENDBRANCH  10  13
ENDBRANCH   9  10
ENDBRANCH   7   9
ENDBRANCH   1   3
BRANCH   1  16
HETATM   16  C7  UNL     1      23.535   2.991  51.337  1.00  0.00     0.727 A 
HETATM   17  N2  UNL     1      22.617   3.763  51.905  1.00  0.00    -0.075 NA
HETATM   18  C8  UNL     1      22.616   5.119  51.803  1.00  0.00     0.139 A 
HETATM   19  C9  UNL     1      23.611   5.776  51.076  1.00  0.00     0.053 A 
HETATM   20  C10 UNL     1      24.563   4.954  50.489  1.00  0.00     0.087 A 
HETATM   21  N4  UNL     1      24.406   3.684  50.688  1.00  0.00    -0.062 NA
BRANCH  20  22
HETATM   22  C11 UNL     1      25.707   5.473  49.759  1.00  0.00    -0.004 A 
HETATM   23  C12 UNL     1      26.087   6.771  49.546  1.00  0.00     0.033 A 
HETATM   24  C13 UNL     1      27.208   7.220  48.892  1.00  0.00     0.117 A 
HETATM   25  N3  UNL     1      28.026   6.256  48.406  1.00  0.00    -0.273 NA
HETATM   26  C14 UNL     1      27.757   4.958  48.556  1.00  0.00     0.117 A 
HETATM   27  C15 UNL     1      26.624   4.551  49.217  1.00  0.00     0.033 A 
ENDBRANCH  20  22
ENDBRANCH   1  16
TORSDOF 6
ENDMDL
MODEL 5
REMARK VINA RESULT:      -7.7      4.693      7.791
REMARK  6 active torsions:
REMARK  status: ('A' for Active; 'I' for Inactive)
REMARK    1  A    between atoms: C1_2  and  C2_4 
REMARK    2  A    between atoms: C2_4  and  O1_7 
REMARK    3  A    between atoms: O1_7  and  C3_8 
REMARK    4  A    between atoms: C6_12  and  N1_13 
REMARK    5  A    between atoms: N1_13  and  C7_14 
REMARK    6  A    between atoms: C10_18  and  C11_19 
ROOT
HETATM    1  N1  UNL     1      27.229   4.223  48.848  1.00  0.00    -0.182 N 
HETATM    2  H5  UNL     1      27.596   3.593  48.111  1.00  0.00     0.185 HD
ENDROOT
BRANCH   1   3
HETATM    3  C6  UNL     1      27.714   5.536  48.603  1.00  0.00     0.089 A 
HETATM    4  S1  UNL     1      26.788   7.058  48.615  1.00  0.00    -0.108 SA
HETATM    5  C5  UNL     1      27.986   8.371  48.272  1.00  0.00     0.110 A 
HETATM    6  C4  UNL     1      29.313   7.746  48.088  1.00  0.00     0.021 A 
HETATM    7  C3  UNL     1      29.953   6.574  48.089  1.00  0.00     0.075 A 
HETATM    8  C16 UNL     1      29.040   5.445  48.371  1.00  0.00     0.074 A 
BRANCH   7   9
HETATM    9  O1  UNL     1      31.305   6.408  47.853  1.00  0.00    -0.280 OA
BRANCH   9  10
HETATM   10  C2  UNL     1      32.298   6.538  48.821  1.00  0.00     0.418 C 
HETATM   11  F3  UNL     1      31.725   6.420  50.072  1.00  0.00    -0.169 F 
HETATM   12  F4  UNL     1      33.258   5.526  48.751  1.00  0.00    -0.169 F 
BRANCH  10  13
HETATM   13  C1  UNL     1      33.001   7.871  48.770  1.00  0.00     0.455 C 
HETATM   14  F1  UNL     1      34.370   7.689  48.895  1.00  0.00    -0.205 F 
HETATM   15  F2  UNL     1      32.701   8.488  47.559  1.00  0.00    -0.205 F 
ENDBRANCH  10  13
ENDBRANCH   9  10
ENDBRANCH   7   9
ENDBRANCH   1   3
BRANCH   1  16
HETATM   16  C7  UNL     1      26.397   3.744  49.875  1.00  0.00     0.727 A 
HETATM   17  N2  UNL     1      25.144   4.096  50.138  1.00  0.00    -0.075 NA
HETATM   18  C8  UNL     1      24.405   3.535  51.132  1.00  0.00     0.139 A 
HETATM   19  C9  UNL     1      24.946   2.532  51.939  1.00  0.00     0.053 A 
HETATM   20  C10 UNL     1      26.256   2.174  51.650  1.00  0.00     0.087 A 
HETATM   21  N4  UNL     1      26.808   2.818  50.671  1.00  0.00    -0.062 NA
BRANCH  20  22
HETATM   22  C11 UNL     1      26.949   1.101  52.342  1.00  0.00    -0.004 A 
HETATM   23  C12 UNL     1      28.025   1.163  53.186  1.00  0.00     0.033 A 
HETATM   24  C13 UNL     1      28.620   0.127  53.863  1.00  0.00     0.117 A 
HETATM   25  N3  UNL     1      28.067  -1.095  53.664  1.00  0.00    -0.273 NA
HETATM   26  C14 UNL     1      27.016  -1.273  52.863  1.00  0.00     0.117 A 
HETATM   27  C15 UNL     1      26.451  -0.209  52.203  1.00  0.00     0.033 A 
ENDBRANCH  20  22
ENDBRANCH   1  16
TORSDOF 6
ENDMDL
MODEL 6
REMARK VINA RESULT:      -7.7      3.974      7.288
REMARK  6 active torsions:
REMARK  status: ('A' for Active; 'I' for Inactive)
REMARK    1  A    between atoms: C1_2  and  C2_4 
REMARK    2  A    between atoms: C2_4  and  O1_7 
REMARK    3  A    between atoms: O1_7  and  C3_8 
REMARK    4  A    between atoms: C6_12  and  N1_13 
REMARK    5  A    between atoms: N1_13  and  C7_14 
REMARK    6  A    between atoms: C10_18  and  C11_19 
ROOT
HETATM    1  N1  UNL     1      22.986   1.983  53.028  1.00  0.00    -0.182 N 
HETATM    2  H5  UNL     1      22.670   2.894  53.410  1.00  0.00     0.185 HD
ENDROOT
BRANCH   1   3
HETATM    3  C6  UNL     1      24.071   2.216  52.141  1.00  0.00     0.089 A 
HETATM    4  S1  UNL     1      24.077   3.224  50.671  1.00  0.00    -0.108 SA
HETATM    5  C5  UNL     1      25.765   3.141  50.020  1.00  0.00     0.110 A 
HETATM    6  C4  UNL     1      26.558   2.266  50.910  1.00  0.00     0.021 A 
HETATM    7  C3  UNL     1      26.492   1.524  52.018  1.00  0.00     0.075 A 
HETATM    8  C16 UNL     1      25.140   1.546  52.618  1.00  0.00     0.074 A 
BRANCH   7   9
HETATM    9  O1  UNL     1      27.544   0.808  52.557  1.00  0.00    -0.280 OA
BRANCH   9  10
HETATM   10  C2  UNL     1      28.388   1.277  53.560  1.00  0.00     0.418 C 
HETATM   11  F3  UNL     1      29.692   1.241  53.104  1.00  0.00    -0.169 F 
HETATM   12  F4  UNL     1      28.145   2.611  53.893  1.00  0.00    -0.169 F 
BRANCH  10  13
HETATM   13  C1  UNL     1      28.327   0.449  54.818  1.00  0.00     0.455 C 
HETATM   14  F1  UNL     1      27.007   0.285  55.214  1.00  0.00    -0.205 F 
HETATM   15  F2  UNL     1      28.916  -0.788  54.567  1.00  0.00    -0.205 F 
ENDBRANCH  10  13
ENDBRANCH   9  10
ENDBRANCH   7   9
ENDBRANCH   1   3
BRANCH   1  16
HETATM   16  C7  UNL     1      22.363   0.777  53.398  1.00  0.00     0.727 A 
HETATM   17  N2  UNL     1      22.826  -0.158  54.218  1.00  0.00    -0.075 NA
HETATM   18  C8  UNL     1      22.121  -1.273  54.551  1.00  0.00     0.139 A 
HETATM   19  C9  UNL     1      20.843  -1.486  54.030  1.00  0.00     0.053 A 
HETATM   20  C10 UNL     1      20.374  -0.497  53.174  1.00  0.00     0.087 A 
HETATM   21  N4  UNL     1      21.182   0.493  52.968  1.00  0.00    -0.062 NA
BRANCH  20  22
HETATM   22  C11 UNL     1      19.039  -0.522  52.601  1.00  0.00    -0.004 A 
HETATM   23  C12 UNL     1      18.584   0.027  51.432  1.00  0.00     0.033 A 
HETATM   24  C13 UNL     1      17.322  -0.064  50.899  1.00  0.00     0.117 A 
HETATM   25  N3  UNL     1      16.432  -0.785  51.624  1.00  0.00    -0.273 NA
HETATM   26  C14 UNL     1      16.765  -1.365  52.778  1.00  0.00     0.117 A 
HETATM   27  C15 UNL     1      18.039  -1.249  53.277  1.00  0.00     0.033 A 
ENDBRANCH  20  22
ENDBRANCH   1  16
TORSDOF 6
ENDMDL
MODEL 7
REMARK VINA RESULT:      -7.7      2.190      2.813
REMARK  6 active torsions:
REMARK  status: ('A' for Active; 'I' for Inactive)
REMARK    1  A    between atoms: C1_2  and  C2_4 
REMARK    2  A    between atoms: C2_4  and  O1_7 
REMARK    3  A    between atoms: O1_7  and  C3_8 
REMARK    4  A    between atoms: C6_12  and  N1_13 
REMARK    5  A    between atoms: N1_13  and  C7_14 
REMARK    6  A    between atoms: C10_18  and  C11_19 
ROOT
HETATM    1  N1  UNL     1      21.653   1.409  52.335  1.00  0.00    -0.182 N 
HETATM    2  H5  UNL     1      20.919   1.955  52.823  1.00  0.00     0.185 HD
ENDROOT
BRANCH   1   3
HETATM    3  C6  UNL     1      22.253   0.523  53.270  1.00  0.00     0.089 A 
HETATM    4  S1  UNL     1      21.441  -0.445  54.527  1.00  0.00    -0.108 SA
HETATM    5  C5  UNL     1      22.749  -1.390  55.348  1.00  0.00     0.110 A 
HETATM    6  C4  UNL     1      24.038  -1.037  54.715  1.00  0.00     0.021 A 
HETATM    7  C3  UNL     1      24.590  -0.286  53.758  1.00  0.00     0.075 A 
HETATM    8  C16 UNL     1      23.581   0.514  53.031  1.00  0.00     0.074 A 
BRANCH   7   9
HETATM    9  O1  UNL     1      25.940  -0.242  53.465  1.00  0.00    -0.280 OA
BRANCH   9  10
HETATM   10  C2  UNL     1      26.868   0.555  54.130  1.00  0.00     0.418 C 
HETATM   11  F3  UNL     1      26.262   1.743  54.493  1.00  0.00    -0.169 F 
HETATM   12  F4  UNL     1      27.317  -0.016  55.323  1.00  0.00    -0.169 F 
BRANCH  10  13
HETATM   13  C1  UNL     1      28.065   0.900  53.281  1.00  0.00     0.455 C 
HETATM   14  F1  UNL     1      28.764  -0.254  52.957  1.00  0.00    -0.205 F 
HETATM   15  F2  UNL     1      27.624   1.542  52.127  1.00  0.00    -0.205 F 
ENDBRANCH  10  13
ENDBRANCH   9  10
ENDBRANCH   7   9
ENDBRANCH   1   3
BRANCH   1  16
HETATM   16  C7  UNL     1      21.926   1.604  50.970  1.00  0.00     0.727 A 
HETATM   17  N2  UNL     1      21.246   1.136  49.930  1.00  0.00    -0.075 NA
HETATM   18  C8  UNL     1      21.566   1.423  48.640  1.00  0.00     0.139 A 
HETATM   19  C9  UNL     1      22.653   2.248  48.345  1.00  0.00     0.053 A 
HETATM   20  C10 UNL     1      23.353   2.730  49.443  1.00  0.00     0.087 A 
HETATM   21  N4  UNL     1      22.909   2.350  50.599  1.00  0.00    -0.062 NA
BRANCH  20  22
HETATM   22  C11 UNL     1      24.465   3.657  49.322  1.00  0.00    -0.004 A 
HETATM   23  C12 UNL     1      25.806   3.431  49.475  1.00  0.00     0.033 A 
HETATM   24  C13 UNL     1      26.832   4.327  49.300  1.00  0.00     0.117 A 
HETATM   25  N3  UNL     1      26.460   5.577  48.933  1.00  0.00    -0.273 NA
HETATM   26  C14 UNL     1      25.181   5.910  48.755  1.00  0.00     0.117 A 
HETATM   27  C15 UNL     1      24.184   4.984  48.940  1.00  0.00     0.033 A 
ENDBRANCH  20  22
ENDBRANCH   1  16
TORSDOF 6
ENDMDL
MODEL 8
REMARK VINA RESULT:      -7.6      3.963      7.061
REMARK  6 active torsions:
REMARK  status: ('A' for Active; 'I' for Inactive)
REMARK    1  A    between atoms: C1_2  and  C2_4 
REMARK    2  A    between atoms: C2_4  and  O1_7 
REMARK    3  A    between atoms: O1_7  and  C3_8 
REMARK    4  A    between atoms: C6_12  and  N1_13 
REMARK    5  A    between atoms: N1_13  and  C7_14 
REMARK    6  A    between atoms: C10_18  and  C11_19 
ROOT
HETATM    1  N1  UNL     1      22.951   1.786  50.830  1.00  0.00    -0.182 N 
HETATM    2  H5  UNL     1      22.768   1.355  49.905  1.00  0.00     0.185 HD
ENDROOT
BRANCH   1   3
HETATM    3  C6  UNL     1      22.694   3.180  50.737  1.00  0.00     0.089 A 
HETATM    4  S1  UNL     1      21.443   4.115  51.597  1.00  0.00    -0.108 SA
HETATM    5  C5  UNL     1      21.665   5.835  51.078  1.00  0.00     0.110 A 
HETATM    6  C4  UNL     1      22.788   5.884  50.118  1.00  0.00     0.021 A 
HETATM    7  C3  UNL     1      23.702   5.132  49.501  1.00  0.00     0.075 A 
HETATM    8  C16 UNL     1      23.592   3.706  49.880  1.00  0.00     0.074 A 
BRANCH   7   9
HETATM    9  O1  UNL     1      24.646   5.603  48.607  1.00  0.00    -0.280 OA
BRANCH   9  10
HETATM   10  C2  UNL     1      25.982   5.839  48.920  1.00  0.00     0.418 C 
HETATM   11  F3  UNL     1      26.081   6.155  50.261  1.00  0.00    -0.169 F 
HETATM   12  F4  UNL     1      26.788   4.714  48.738  1.00  0.00    -0.169 F 
BRANCH  10  13
HETATM   13  C1  UNL     1      26.576   6.986  48.141  1.00  0.00     0.455 C 
HETATM   14  F1  UNL     1      27.739   6.576  47.506  1.00  0.00    -0.205 F 
HETATM   15  F2  UNL     1      25.641   7.423  47.207  1.00  0.00    -0.205 F 
ENDBRANCH  10  13
ENDBRANCH   9  10
ENDBRANCH   7   9
ENDBRANCH   1   3
BRANCH   1  16
HETATM   16  C7  UNL     1      23.385   1.017  51.924  1.00  0.00     0.727 A 
HETATM   17  N2  UNL     1      22.732   0.038  52.539  1.00  0.00    -0.075 NA
HETATM   18  C8  UNL     1      23.261  -0.681  53.565  1.00  0.00     0.139 A 
HETATM   19  C9  UNL     1      24.552  -0.414  54.027  1.00  0.00     0.053 A 
HETATM   20  C10 UNL     1      25.221   0.612  53.373  1.00  0.00     0.087 A 
HETATM   21  N4  UNL     1      24.561   1.191  52.420  1.00  0.00    -0.062 NA
BRANCH  20  22
HETATM   22  C11 UNL     1      26.595   0.973  53.676  1.00  0.00    -0.004 A 
HETATM   23  C12 UNL     1      27.303   2.085  53.307  1.00  0.00     0.033 A 
HETATM   24  C13 UNL     1      28.589   2.415  53.659  1.00  0.00     0.117 A 
HETATM   25  N3  UNL     1      29.219   1.528  54.467  1.00  0.00    -0.273 NA
HETATM   26  C14 UNL     1      28.626   0.410  54.889  1.00  0.00     0.117 A 
HETATM   27  C15 UNL     1      27.337   0.118  54.513  1.00  0.00     0.033 A 
ENDBRANCH  20  22
ENDBRANCH   1  16
TORSDOF 6
ENDMDL
MODEL 9
REMARK VINA RESULT:      -7.6      4.059      7.723
REMARK  6 active torsions:
REMARK  status: ('A' for Active; 'I' for Inactive)
REMARK    1  A    between atoms: C1_2  and  C2_4 
REMARK    2  A    between atoms: C2_4  and  O1_7 
REMARK    3  A    between atoms: O1_7  and  C3_8 
REMARK    4  A    between atoms: C6_12  and  N1_13 
REMARK    5  A    between atoms: N1_13  and  C7_14 
REMARK    6  A    between atoms: C10_18  and  C11_19 
ROOT
HETATM    1  N1  UNL     1      26.462   3.132  49.817  1.00  0.00    -0.182 N 
HETATM    2  H5  UNL     1      26.452   2.571  48.945  1.00  0.00     0.185 HD
ENDROOT
BRANCH   1   3
HETATM    3  C6  UNL     1      26.434   4.509  49.468  1.00  0.00     0.089 A 
HETATM    4  S1  UNL     1      25.187   5.712  49.887  1.00  0.00    -0.108 SA
HETATM    5  C5  UNL     1      25.755   7.281  49.184  1.00  0.00     0.110 A 
HETATM    6  C4  UNL     1      27.042   7.037  48.497  1.00  0.00     0.021 A 
HETATM    7  C3  UNL     1      27.940   6.092  48.211  1.00  0.00     0.075 A 
HETATM    8  C16 UNL     1      27.551   4.775  48.760  1.00  0.00     0.074 A 
BRANCH   7   9
HETATM    9  O1  UNL     1      29.100   6.293  47.486  1.00  0.00    -0.280 OA
BRANCH   9  10
HETATM   10  C2  UNL     1      30.265   6.857  48.000  1.00  0.00     0.418 C 
HETATM   11  F3  UNL     1      30.832   7.672  47.038  1.00  0.00    -0.169 F 
HETATM   12  F4  UNL     1      30.028   7.684  49.100  1.00  0.00    -0.169 F 
BRANCH  10  13
HETATM   13  C1  UNL     1      31.298   5.828  48.385  1.00  0.00     0.455 C 
HETATM   14  F1  UNL     1      31.355   5.709  49.766  1.00  0.00    -0.205 F 
HETATM   15  F2  UNL     1      30.953   4.610  47.807  1.00  0.00    -0.205 F 
ENDBRANCH  10  13
ENDBRANCH   9  10
ENDBRANCH   7   9
ENDBRANCH   1   3
BRANCH   1  16
HETATM   16  C7  UNL     1      26.503   2.520  51.083  1.00  0.00     0.727 A 
HETATM   17  N2  UNL     1      27.517   2.488  51.938  1.00  0.00    -0.075 NA
HETATM   18  C8  UNL     1      27.439   1.907  53.166  1.00  0.00     0.139 A 
HETATM   19  C9  UNL     1      26.253   1.305  53.591  1.00  0.00     0.053 A 
HETATM   20  C10 UNL     1      25.202   1.349  52.685  1.00  0.00     0.087 A 
HETATM   21  N4  UNL     1      25.457   1.940  51.561  1.00  0.00    -0.062 NA
BRANCH  20  22
HETATM   22  C11 UNL     1      23.878   0.836  52.992  1.00  0.00    -0.004 A 
HETATM   23  C12 UNL     1      22.650   1.349  52.670  1.00  0.00     0.033 A 
HETATM   24  C13 UNL     1      21.418   0.804  52.935  1.00  0.00     0.117 A 
HETATM   25  N3  UNL     1      21.433  -0.381  53.594  1.00  0.00    -0.273 NA
HETATM   26  C14 UNL     1      22.571  -0.973  53.958  1.00  0.00     0.117 A 
HETATM   27  C15 UNL     1      23.783  -0.394  53.673  1.00  0.00     0.033 A 
ENDBRANCH  20  22
ENDBRANCH   1  16
TORSDOF 6
ENDMDL
