MODEL 1
REMARK VINA RESULT:      -8.6      0.000      0.000
REMARK  5 active torsions:
REMARK  status: ('A' for Active; 'I' for Inactive)
REMARK    1  A    between atoms: C2_2  and  C3_3 
REMARK       I    between atoms: C3_3  and  N1_5 
REMARK    2  A    between atoms: N1_5  and  C4_6 
REMARK    3  A    between atoms: C7_9  and  N2_10 
REMARK    4  A    between atoms: N2_10  and  C8_11 
REMARK    5  A    between atoms: C8_11  and  C10_13 
ROOT
HETATM    1  C4  UNL     1      25.883   1.052  52.472  1.00  0.00     0.041 A 
HETATM    2  C5  UNL     1      25.483   2.281  52.012  1.00  0.00     0.048 A 
HETATM    3  C6  UNL     1      24.177   2.719  52.041  1.00  0.00     0.041 A 
HETATM    4  C7  UNL     1      23.860   3.969  51.557  1.00  0.00     0.138 A 
HETATM    5  N3  UNL     1      22.558   4.247  51.654  1.00  0.00    -0.224 NA
HETATM    6  C16 UNL     1      21.645   3.405  52.166  1.00  0.00     0.235 A 
HETATM    7  N4  UNL     1      21.977   2.175  52.638  1.00  0.00    -0.241 NA
HETATM    8  C17 UNL     1      23.278   1.819  52.576  1.00  0.00     0.072 A 
HETATM    9  C18 UNL     1      23.644   0.578  53.047  1.00  0.00     0.041 A 
HETATM   10  C19 UNL     1      24.961   0.174  53.002  1.00  0.00    -0.033 A 
HETATM   11  C20 UNL     1      25.393  -1.155  53.500  1.00  0.00     0.050 C 
ENDROOT
BRANCH   4  12
HETATM   12  N2  UNL     1      24.803   4.863  51.023  1.00  0.00    -0.366 N 
HETATM   13  H8  UNL     1      25.609   5.250  51.508  1.00  0.00     0.161 HD
BRANCH  12  14
HETATM   14  C8  UNL     1      24.654   5.313  49.634  1.00  0.00     0.112 C 
HETATM   15  C9  UNL     1      24.056   4.233  48.785  1.00  0.00     0.037 C 
BRANCH  14  16
HETATM   16  C10 UNL     1      25.944   5.793  49.074  1.00  0.00    -0.036 A 
HETATM   17  C11 UNL     1      26.852   4.741  49.013  1.00  0.00     0.009 A 
HETATM   18  C12 UNL     1      28.147   4.921  48.523  1.00  0.00     0.001 A 
HETATM   19  C13 UNL     1      28.522   6.181  48.091  1.00  0.00     0.000 A 
HETATM   20  C14 UNL     1      27.611   7.212  48.158  1.00  0.00     0.001 A 
HETATM   21  C15 UNL     1      26.334   7.041  48.639  1.00  0.00     0.009 A 
ENDBRANCH  14  16
ENDBRANCH  12  14
ENDBRANCH   4  12
BRANCH   1  22
HETATM   22  N1  UNL     1      27.257   0.627  52.427  1.00  0.00    -0.327 N 
HETATM   23  C3  UNL     1      28.015   1.043  53.557  1.00  0.00     0.221 C 
HETATM   24  O1  UNL     1      27.529   1.722  54.508  1.00  0.00    -0.273 OA
HETATM   25  H6  UNL     1      27.710   0.062  51.660  1.00  0.00     0.169 HD
BRANCH  23  26
HETATM   26  C2  UNL     1      29.458   0.633  53.576  1.00  0.00     0.098 C 
HETATM   27  C1  UNL     1      29.635  -0.848  53.499  1.00  0.00     0.014 C 
ENDBRANCH  23  26
ENDBRANCH   1  22
TORSDOF 5
ENDMDL
MODEL 2
REMARK VINA RESULT:      -8.5      1.692      2.231
REMARK  5 active torsions:
REMARK  status: ('A' for Active; 'I' for Inactive)
REMARK    1  A    between atoms: C2_2  and  C3_3 
REMARK       I    between atoms: C3_3  and  N1_5 
REMARK    2  A    between atoms: N1_5  and  C4_6 
REMARK    3  A    between atoms: C7_9  and  N2_10 
REMARK    4  A    between atoms: N2_10  and  C8_11 
REMARK    5  A    between atoms: C8_11  and  C10_13 
ROOT
HETATM    1  C4  UNL     1      24.682  -0.331  53.789  1.00  0.00     0.041 A 
HETATM    2  C5  UNL     1      24.285   0.439  52.726  1.00  0.00     0.048 A 
HETATM    3  C6  UNL     1      22.982   0.830  52.510  1.00  0.00     0.041 A 
HETATM    4  C7  UNL     1      22.668   1.605  51.415  1.00  0.00     0.138 A 
HETATM    5  N3  UNL     1      21.368   1.899  51.345  1.00  0.00    -0.224 NA
HETATM    6  C16 UNL     1      20.453   1.489  52.240  1.00  0.00     0.235 A 
HETATM    7  N4  UNL     1      20.782   0.725  53.314  1.00  0.00    -0.241 NA
HETATM    8  C17 UNL     1      22.082   0.383  53.456  1.00  0.00     0.072 A 
HETATM    9  C18 UNL     1      22.444  -0.391  54.536  1.00  0.00     0.041 A 
HETATM   10  C19 UNL     1      23.759  -0.762  54.720  1.00  0.00    -0.033 A 
HETATM   11  C20 UNL     1      24.188  -1.595  55.869  1.00  0.00     0.050 C 
ENDROOT
BRANCH   4  12
HETATM   12  N2  UNL     1      23.612   2.046  50.474  1.00  0.00    -0.366 N 
HETATM   13  H8  UNL     1      24.564   1.704  50.368  1.00  0.00     0.161 HD
BRANCH  12  14
HETATM   14  C8  UNL     1      23.237   3.103  49.528  1.00  0.00     0.112 C 
HETATM   15  C9  UNL     1      22.706   2.517  48.255  1.00  0.00     0.037 C 
BRANCH  14  16
HETATM   16  C10 UNL     1      24.367   4.031  49.268  1.00  0.00    -0.036 A 
HETATM   17  C11 UNL     1      25.574   3.382  49.504  1.00  0.00     0.009 A 
HETATM   18  C12 UNL     1      26.798   4.030  49.335  1.00  0.00     0.001 A 
HETATM   19  C13 UNL     1      26.796   5.351  48.921  1.00  0.00     0.000 A 
HETATM   20  C14 UNL     1      25.593   5.981  48.693  1.00  0.00     0.001 A 
HETATM   21  C15 UNL     1      24.384   5.347  48.857  1.00  0.00     0.009 A 
ENDBRANCH  14  16
ENDBRANCH  12  14
ENDBRANCH   4  12
BRANCH   1  22
HETATM   22  N1  UNL     1      26.053  -0.719  53.984  1.00  0.00    -0.327 N 
HETATM   23  C3  UNL     1      26.874   0.332  54.479  1.00  0.00     0.221 C 
HETATM   24  O1  UNL     1      26.442   1.495  54.723  1.00  0.00    -0.273 OA
HETATM   25  H6  UNL     1      26.464  -1.674  53.798  1.00  0.00     0.169 HD
BRANCH  23  26
HETATM   26  C2  UNL     1      28.319  -0.005  54.707  1.00  0.00     0.098 C 
HETATM   27  C1  UNL     1      28.912  -0.783  53.578  1.00  0.00     0.014 C 
ENDBRANCH  23  26
ENDBRANCH   1  22
TORSDOF 5
ENDMDL
MODEL 3
REMARK VINA RESULT:      -8.4      3.789      6.983
REMARK  5 active torsions:
REMARK  status: ('A' for Active; 'I' for Inactive)
REMARK    1  A    between atoms: C2_2  and  C3_3 
REMARK       I    between atoms: C3_3  and  N1_5 
REMARK    2  A    between atoms: N1_5  and  C4_6 
REMARK    3  A    between atoms: C7_9  and  N2_10 
REMARK    4  A    between atoms: N2_10  and  C8_11 
REMARK    5  A    between atoms: C8_11  and  C10_13 
ROOT
HETATM    1  C4  UNL     1      20.944  -0.045  52.320  1.00  0.00     0.041 A 
HETATM    2  C5  UNL     1      22.307   0.028  52.460  1.00  0.00     0.048 A 
HETATM    3  C6  UNL     1      22.991  -0.468  53.548  1.00  0.00     0.041 A 
HETATM    4  C7  UNL     1      24.362  -0.354  53.609  1.00  0.00     0.138 A 
HETATM    5  N3  UNL     1      24.876  -0.881  54.723  1.00  0.00    -0.224 NA
HETATM    6  C16 UNL     1      24.145  -1.464  55.687  1.00  0.00     0.235 A 
HETATM    7  N4  UNL     1      22.793  -1.567  55.609  1.00  0.00    -0.241 NA
HETATM    8  C17 UNL     1      22.195  -1.057  54.510  1.00  0.00     0.072 A 
HETATM    9  C18 UNL     1      20.825  -1.147  54.403  1.00  0.00     0.041 A 
HETATM   10  C19 UNL     1      20.176  -0.640  53.299  1.00  0.00    -0.033 A 
HETATM   11  C20 UNL     1      18.702  -0.719  53.148  1.00  0.00     0.050 C 
ENDROOT
BRANCH   4  12
HETATM   12  N2  UNL     1      25.142   0.248  52.608  1.00  0.00    -0.366 N 
HETATM   13  H8  UNL     1      24.987   0.188  51.605  1.00  0.00     0.161 HD
BRANCH  12  14
HETATM   14  C8  UNL     1      26.307   1.052  52.996  1.00  0.00     0.112 C 
HETATM   15  C9  UNL     1      26.527   2.176  52.030  1.00  0.00     0.037 C 
BRANCH  14  16
HETATM   16  C10 UNL     1      27.525   0.214  53.141  1.00  0.00    -0.036 A 
HETATM   17  C11 UNL     1      28.596   1.003  53.547  1.00  0.00     0.009 A 
HETATM   18  C12 UNL     1      29.865   0.462  53.757  1.00  0.00     0.001 A 
HETATM   19  C13 UNL     1      30.048  -0.894  53.555  1.00  0.00     0.000 A 
HETATM   20  C14 UNL     1      28.978  -1.663  53.152  1.00  0.00     0.001 A 
HETATM   21  C15 UNL     1      27.725  -1.136  52.944  1.00  0.00     0.009 A 
ENDBRANCH  14  16
ENDBRANCH  12  14
ENDBRANCH   4  12
BRANCH   1  22
HETATM   22  N1  UNL     1      20.263   0.484  51.169  1.00  0.00    -0.327 N 
HETATM   23  C3  UNL     1      20.030   1.885  51.243  1.00  0.00     0.221 C 
HETATM   24  O1  UNL     1      20.387   2.598  52.225  1.00  0.00    -0.273 OA
HETATM   25  H6  UNL     1      19.945  -0.066  50.325  1.00  0.00     0.169 HD
BRANCH  23  26
HETATM   26  C2  UNL     1      19.323   2.504  50.073  1.00  0.00     0.098 C 
HETATM   27  C1  UNL     1      18.142   1.704  49.628  1.00  0.00     0.014 C 
ENDBRANCH  23  26
ENDBRANCH   1  22
TORSDOF 5
ENDMDL
MODEL 4
REMARK VINA RESULT:      -8.4      2.287      5.375
REMARK  5 active torsions:
REMARK  status: ('A' for Active; 'I' for Inactive)
REMARK    1  A    between atoms: C2_2  and  C3_3 
REMARK       I    between atoms: C3_3  and  N1_5 
REMARK    2  A    between atoms: N1_5  and  C4_6 
REMARK    3  A    between atoms: C7_9  and  N2_10 
REMARK    4  A    between atoms: N2_10  and  C8_11 
REMARK    5  A    between atoms: C8_11  and  C10_13 
ROOT
HETATM    1  C4  UNL     1      26.335   0.873  52.397  1.00  0.00     0.041 A 
HETATM    2  C5  UNL     1      25.043   0.426  52.513  1.00  0.00     0.048 A 
HETATM    3  C6  UNL     1      24.557  -0.227  53.625  1.00  0.00     0.041 A 
HETATM    4  C7  UNL     1      23.245  -0.643  53.660  1.00  0.00     0.138 A 
HETATM    5  N3  UNL     1      22.927  -1.258  54.801  1.00  0.00    -0.224 NA
HETATM    6  C16 UNL     1      23.787  -1.456  55.814  1.00  0.00     0.235 A 
HETATM    7  N4  UNL     1      25.078  -1.038  55.761  1.00  0.00    -0.241 NA
HETATM    8  C17 UNL     1      25.479  -0.405  54.637  1.00  0.00     0.072 A 
HETATM    9  C18 UNL     1      26.783   0.030  54.555  1.00  0.00     0.041 A 
HETATM   10  C19 UNL     1      27.233   0.680  53.427  1.00  0.00    -0.033 A 
HETATM   11  C20 UNL     1      28.629   1.163  53.302  1.00  0.00     0.050 C 
ENDROOT
BRANCH   4  12
HETATM   12  N2  UNL     1      22.332  -0.440  52.611  1.00  0.00    -0.366 N 
HETATM   13  H8  UNL     1      22.276  -0.975  51.749  1.00  0.00     0.161 HD
BRANCH  12  14
HETATM   14  C8  UNL     1      21.343   0.639  52.725  1.00  0.00     0.112 C 
HETATM   15  C9  UNL     1      19.954   0.113  52.525  1.00  0.00     0.037 C 
BRANCH  14  16
HETATM   16  C10 UNL     1      21.641   1.754  51.790  1.00  0.00    -0.036 A 
HETATM   17  C11 UNL     1      22.098   1.245  50.579  1.00  0.00     0.009 A 
HETATM   18  C12 UNL     1      22.451   2.083  49.520  1.00  0.00     0.001 A 
HETATM   19  C13 UNL     1      22.339   3.452  49.694  1.00  0.00     0.000 A 
HETATM   20  C14 UNL     1      21.885   3.940  50.899  1.00  0.00     0.001 A 
HETATM   21  C15 UNL     1      21.535   3.119  51.945  1.00  0.00     0.009 A 
ENDBRANCH  14  16
ENDBRANCH  12  14
ENDBRANCH   4  12
BRANCH   1  22
HETATM   22  N1  UNL     1      26.808   1.552  51.221  1.00  0.00    -0.327 N 
HETATM   23  C3  UNL     1      26.136   2.780  50.968  1.00  0.00     0.221 C 
HETATM   24  O1  UNL     1      25.211   3.232  51.705  1.00  0.00    -0.273 OA
HETATM   25  H6  UNL     1      27.574   1.221  50.575  1.00  0.00     0.169 HD
BRANCH  23  26
HETATM   26  C2  UNL     1      26.580   3.543  49.755  1.00  0.00     0.098 C 
HETATM   27  C1  UNL     1      25.790   4.793  49.541  1.00  0.00     0.014 C 
ENDBRANCH  23  26
ENDBRANCH   1  22
TORSDOF 5
ENDMDL
MODEL 5
REMARK VINA RESULT:      -8.3      2.338      5.279
REMARK  5 active torsions:
REMARK  status: ('A' for Active; 'I' for Inactive)
REMARK    1  A    between atoms: C2_2  and  C3_3 
REMARK       I    between atoms: C3_3  and  N1_5 
REMARK    2  A    between atoms: N1_5  and  C4_6 
REMARK    3  A    between atoms: C7_9  and  N2_10 
REMARK    4  A    between atoms: N2_10  and  C8_11 
REMARK    5  A    between atoms: C8_11  and  C10_13 
ROOT
HETATM    1  C4  UNL     1      22.743   0.814  53.064  1.00  0.00     0.041 A 
HETATM    2  C5  UNL     1      23.727   1.607  52.531  1.00  0.00     0.048 A 
HETATM    3  C6  UNL     1      25.074   1.357  52.681  1.00  0.00     0.041 A 
HETATM    4  C7  UNL     1      25.998   2.206  52.112  1.00  0.00     0.138 A 
HETATM    5  N3  UNL     1      27.258   1.830  52.346  1.00  0.00    -0.224 NA
HETATM    6  C16 UNL     1      27.600   0.744  53.059  1.00  0.00     0.235 A 
HETATM    7  N4  UNL     1      26.673  -0.081  53.613  1.00  0.00    -0.241 NA
HETATM    8  C17 UNL     1      25.372   0.231  53.420  1.00  0.00     0.072 A 
HETATM    9  C18 UNL     1      24.411  -0.587  53.970  1.00  0.00     0.041 A 
HETATM   10  C19 UNL     1      23.073  -0.306  53.798  1.00  0.00    -0.033 A 
HETATM   11  C20 UNL     1      22.009  -1.163  54.374  1.00  0.00     0.050 C 
ENDROOT
BRANCH   4  12
HETATM   12  N2  UNL     1      25.658   3.342  51.360  1.00  0.00    -0.366 N 
HETATM   13  H8  UNL     1      25.368   4.244  51.728  1.00  0.00     0.161 HD
BRANCH  12  14
HETATM   14  C8  UNL     1      25.710   3.271  49.895  1.00  0.00     0.112 C 
HETATM   15  C9  UNL     1      26.806   4.139  49.357  1.00  0.00     0.037 C 
BRANCH  14  16
HETATM   16  C10 UNL     1      24.399   3.611  49.285  1.00  0.00    -0.036 A 
HETATM   17  C11 UNL     1      24.378   4.954  48.928  1.00  0.00     0.009 A 
HETATM   18  C12 UNL     1      23.259   5.536  48.332  1.00  0.00     0.001 A 
HETATM   19  C13 UNL     1      22.149   4.743  48.095  1.00  0.00     0.000 A 
HETATM   20  C14 UNL     1      22.184   3.414  48.454  1.00  0.00     0.001 A 
HETATM   21  C15 UNL     1      23.285   2.836  49.041  1.00  0.00     0.009 A 
ENDBRANCH  14  16
ENDBRANCH  12  14
ENDBRANCH   4  12
BRANCH   1  22
HETATM   22  N1  UNL     1      21.345   1.105  52.886  1.00  0.00    -0.327 N 
HETATM   23  C3  UNL     1      20.843   0.714  51.614  1.00  0.00     0.221 C 
HETATM   24  O1  UNL     1      21.556   0.164  50.724  1.00  0.00    -0.273 OA
HETATM   25  H6  UNL     1      20.708   1.559  53.594  1.00  0.00     0.169 HD
BRANCH  23  26
HETATM   26  C2  UNL     1      19.390   0.987  51.361  1.00  0.00     0.098 C 
HETATM   27  C1  UNL     1      18.509  -0.137  51.800  1.00  0.00     0.014 C 
ENDBRANCH  23  26
ENDBRANCH   1  22
TORSDOF 5
ENDMDL
MODEL 6
REMARK VINA RESULT:      -8.0      2.926      5.896
REMARK  5 active torsions:
REMARK  status: ('A' for Active; 'I' for Inactive)
REMARK    1  A    between atoms: C2_2  and  C3_3 
REMARK       I    between atoms: C3_3  and  N1_5 
REMARK    2  A    between atoms: N1_5  and  C4_6 
REMARK    3  A    between atoms: C7_9  and  N2_10 
REMARK    4  A    between atoms: N2_10  and  C8_11 
REMARK    5  A    between atoms: C8_11  and  C10_13 
ROOT
HETATM    1  C4  UNL     1      21.329  -0.069  52.406  1.00  0.00     0.041 A 
HETATM    2  C5  UNL     1      22.697  -0.015  52.501  1.00  0.00     0.048 A 
HETATM    3  C6  UNL     1      23.405  -0.466  53.593  1.00  0.00     0.041 A 
HETATM    4  C7  UNL     1      24.779  -0.374  53.607  1.00  0.00     0.138 A 
HETATM    5  N3  UNL     1      25.318  -0.852  54.731  1.00  0.00    -0.224 NA
HETATM    6  C16 UNL     1      24.607  -1.369  55.747  1.00  0.00     0.235 A 
HETATM    7  N4  UNL     1      23.251  -1.452  55.714  1.00  0.00    -0.241 NA
HETATM    8  C17 UNL     1      22.629  -0.988  54.608  1.00  0.00     0.072 A 
HETATM    9  C18 UNL     1      21.255  -1.059  54.547  1.00  0.00     0.041 A 
HETATM   10  C19 UNL     1      20.581  -0.598  53.437  1.00  0.00    -0.033 A 
HETATM   11  C20 UNL     1      19.102  -0.657  53.335  1.00  0.00     0.050 C 
ENDROOT
BRANCH   4  12
HETATM   12  N2  UNL     1      25.538   0.160  52.553  1.00  0.00    -0.366 N 
HETATM   13  H8  UNL     1      25.802  -0.320  51.696  1.00  0.00     0.161 HD
BRANCH  12  14
HETATM   14  C8  UNL     1      26.023   1.542  52.650  1.00  0.00     0.112 C 
HETATM   15  C9  UNL     1      25.634   2.153  53.962  1.00  0.00     0.037 C 
BRANCH  14  16
HETATM   16  C10 UNL     1      25.555   2.366  51.506  1.00  0.00    -0.036 A 
HETATM   17  C11 UNL     1      26.639   2.741  50.720  1.00  0.00     0.009 A 
HETATM   18  C12 UNL     1      26.477   3.524  49.576  1.00  0.00     0.001 A 
HETATM   19  C13 UNL     1      25.200   3.929  49.227  1.00  0.00     0.000 A 
HETATM   20  C14 UNL     1      24.137   3.550  50.016  1.00  0.00     0.001 A 
HETATM   21  C15 UNL     1      24.291   2.779  51.144  1.00  0.00     0.009 A 
ENDBRANCH  14  16
ENDBRANCH  12  14
ENDBRANCH   4  12
BRANCH   1  22
HETATM   22  N1  UNL     1      20.622   0.411  51.249  1.00  0.00    -0.327 N 
HETATM   23  C3  UNL     1      20.471   1.825  51.225  1.00  0.00     0.221 C 
HETATM   24  O1  UNL     1      20.914   2.588  52.133  1.00  0.00    -0.273 OA
HETATM   25  H6  UNL     1      20.234  -0.180  50.466  1.00  0.00     0.169 HD
BRANCH  23  26
HETATM   26  C2  UNL     1      19.742   2.396  50.045  1.00  0.00     0.098 C 
HETATM   27  C1  UNL     1      18.512   1.620  49.700  1.00  0.00     0.014 C 
ENDBRANCH  23  26
ENDBRANCH   1  22
TORSDOF 5
ENDMDL
MODEL 7
REMARK VINA RESULT:      -8.0      2.499      4.922
REMARK  5 active torsions:
REMARK  status: ('A' for Active; 'I' for Inactive)
REMARK    1  A    between atoms: C2_2  and  C3_3 
REMARK       I    between atoms: C3_3  and  N1_5 
REMARK    2  A    between atoms: N1_5  and  C4_6 
REMARK    3  A    between atoms: C7_9  and  N2_10 
REMARK    4  A    between atoms: N2_10  and  C8_11 
REMARK    5  A    between atoms: C8_11  and  C10_13 
ROOT
HETATM    1  C4  UNL     1      22.227   0.530  52.996  1.00  0.00     0.041 A 
HETATM    2  C5  UNL     1      23.098   1.237  52.207  1.00  0.00     0.048 A 
HETATM    3  C6  UNL     1      24.465   1.070  52.238  1.00  0.00     0.041 A 
HETATM    4  C7  UNL     1      25.269   1.822  51.411  1.00  0.00     0.138 A 
HETATM    5  N3  UNL     1      26.566   1.545  51.558  1.00  0.00    -0.224 NA
HETATM    6  C16 UNL     1      27.049   0.632  52.418  1.00  0.00     0.235 A 
HETATM    7  N4  UNL     1      26.239  -0.101  53.226  1.00  0.00    -0.241 NA
HETATM    8  C17 UNL     1      24.910   0.121  53.137  1.00  0.00     0.072 A 
HETATM    9  C18 UNL     1      24.065  -0.607  53.944  1.00  0.00     0.041 A 
HETATM   10  C19 UNL     1      22.702  -0.413  53.885  1.00  0.00    -0.033 A 
HETATM   11  C20 UNL     1      21.761  -1.178  54.738  1.00  0.00     0.050 C 
ENDROOT
BRANCH   4  12
HETATM   12  N2  UNL     1      24.781   2.777  50.503  1.00  0.00    -0.366 N 
HETATM   13  H8  UNL     1      24.281   2.586  49.638  1.00  0.00     0.161 HD
BRANCH  12  14
HETATM   14  C8  UNL     1      24.988   4.202  50.785  1.00  0.00     0.112 C 
HETATM   15  C9  UNL     1      23.685   4.942  50.778  1.00  0.00     0.037 C 
BRANCH  14  16
HETATM   16  C10 UNL     1      25.963   4.810  49.844  1.00  0.00    -0.036 A 
HETATM   17  C11 UNL     1      25.533   6.079  49.473  1.00  0.00     0.009 A 
HETATM   18  C12 UNL     1      26.269   6.872  48.592  1.00  0.00     0.001 A 
HETATM   19  C13 UNL     1      27.454   6.370  48.082  1.00  0.00     0.000 A 
HETATM   20  C14 UNL     1      27.866   5.111  48.458  1.00  0.00     0.001 A 
HETATM   21  C15 UNL     1      27.145   4.326  49.327  1.00  0.00     0.009 A 
ENDBRANCH  14  16
ENDBRANCH  12  14
ENDBRANCH   4  12
BRANCH   1  22
HETATM   22  N1  UNL     1      20.804   0.730  52.937  1.00  0.00    -0.327 N 
HETATM   23  C3  UNL     1      20.248   0.463  51.655  1.00  0.00     0.221 C 
HETATM   24  O1  UNL     1      20.937   0.087  50.663  1.00  0.00    -0.273 OA
HETATM   25  H6  UNL     1      20.184   1.041  53.733  1.00  0.00     0.169 HD
BRANCH  23  26
HETATM   26  C2  UNL     1      18.765   0.651  51.522  1.00  0.00     0.098 C 
HETATM   27  C1  UNL     1      17.987  -0.470  52.130  1.00  0.00     0.014 C 
ENDBRANCH  23  26
ENDBRANCH   1  22
TORSDOF 5
ENDMDL
MODEL 8
REMARK VINA RESULT:      -8.0      2.412      5.582
REMARK  5 active torsions:
REMARK  status: ('A' for Active; 'I' for Inactive)
REMARK    1  A    between atoms: C2_2  and  C3_3 
REMARK       I    between atoms: C3_3  and  N1_5 
REMARK    2  A    between atoms: N1_5  and  C4_6 
REMARK    3  A    between atoms: C7_9  and  N2_10 
REMARK    4  A    between atoms: N2_10  and  C8_11 
REMARK    5  A    between atoms: C8_11  and  C10_13 
ROOT
HETATM    1  C4  UNL     1      24.886   0.707  53.102  1.00  0.00     0.041 A 
HETATM    2  C5  UNL     1      24.375   1.892  52.638  1.00  0.00     0.048 A 
HETATM    3  C6  UNL     1      24.996   2.671  51.687  1.00  0.00     0.041 A 
HETATM    4  C7  UNL     1      24.414   3.850  51.276  1.00  0.00     0.138 A 
HETATM    5  N3  UNL     1      25.136   4.489  50.353  1.00  0.00    -0.224 NA
HETATM    6  C16 UNL     1      26.307   4.041  49.869  1.00  0.00     0.235 A 
HETATM    7  N4  UNL     1      26.865   2.876  50.287  1.00  0.00    -0.241 NA
HETATM    8  C17 UNL     1      26.195   2.168  51.222  1.00  0.00     0.072 A 
HETATM    9  C18 UNL     1      26.737   0.983  51.665  1.00  0.00     0.041 A 
HETATM   10  C19 UNL     1      26.086   0.229  52.618  1.00  0.00    -0.033 A 
HETATM   11  C20 UNL     1      26.639  -1.052  53.120  1.00  0.00     0.050 C 
ENDROOT
BRANCH   4  12
HETATM   12  N2  UNL     1      23.189   4.330  51.767  1.00  0.00    -0.366 N 
HETATM   13  H8  UNL     1      23.018   4.709  52.695  1.00  0.00     0.161 HD
BRANCH  12  14
HETATM   14  C8  UNL     1      22.009   4.301  50.895  1.00  0.00     0.112 C 
HETATM   15  C9  UNL     1      21.221   5.569  51.021  1.00  0.00     0.037 C 
BRANCH  14  16
HETATM   16  C10 UNL     1      21.164   3.108  51.157  1.00  0.00    -0.036 A 
HETATM   17  C11 UNL     1      21.173   2.270  50.048  1.00  0.00     0.009 A 
HETATM   18  C12 UNL     1      20.456   1.073  50.030  1.00  0.00     0.001 A 
HETATM   19  C13 UNL     1      19.723   0.723  51.151  1.00  0.00     0.000 A 
HETATM   20  C14 UNL     1      19.724   1.564  52.242  1.00  0.00     0.001 A 
HETATM   21  C15 UNL     1      20.429   2.744  52.265  1.00  0.00     0.009 A 
ENDBRANCH  14  16
ENDBRANCH  12  14
ENDBRANCH   4  12
BRANCH   1  22
HETATM   22  N1  UNL     1      24.209  -0.083  54.096  1.00  0.00    -0.327 N 
HETATM   23  C3  UNL     1      22.997  -0.662  53.630  1.00  0.00     0.221 C 
HETATM   24  O1  UNL     1      22.555  -0.499  52.455  1.00  0.00    -0.273 OA
HETATM   25  H6  UNL     1      24.534  -0.250  55.087  1.00  0.00     0.169 HD
BRANCH  23  26
HETATM   26  C2  UNL     1      22.238  -1.500  54.616  1.00  0.00     0.098 C 
HETATM   27  C1  UNL     1      20.787  -1.608  54.280  1.00  0.00     0.014 C 
ENDBRANCH  23  26
ENDBRANCH   1  22
TORSDOF 5
ENDMDL
MODEL 9
REMARK VINA RESULT:      -7.7      2.720      5.282
REMARK  5 active torsions:
REMARK  status: ('A' for Active; 'I' for Inactive)
REMARK    1  A    between atoms: C2_2  and  C3_3 
REMARK       I    between atoms: C3_3  and  N1_5 
REMARK    2  A    between atoms: N1_5  and  C4_6 
REMARK    3  A    between atoms: C7_9  and  N2_10 
REMARK    4  A    between atoms: N2_10  and  C8_11 
REMARK    5  A    between atoms: C8_11  and  C10_13 
ROOT
HETATM    1  C4  UNL     1      21.563   1.254  52.242  1.00  0.00     0.041 A 
HETATM    2  C5  UNL     1      22.620   2.063  51.914  1.00  0.00     0.048 A 
HETATM    3  C6  UNL     1      22.778   2.652  50.678  1.00  0.00     0.041 A 
HETATM    4  C7  UNL     1      23.871   3.452  50.432  1.00  0.00     0.138 A 
HETATM    5  N3  UNL     1      23.881   3.947  49.192  1.00  0.00    -0.224 NA
HETATM    6  C16 UNL     1      22.931   3.699  48.274  1.00  0.00     0.235 A 
HETATM    7  N4  UNL     1      21.860   2.906  48.537  1.00  0.00    -0.241 NA
HETATM    8  C17 UNL     1      21.777   2.366  49.772  1.00  0.00     0.072 A 
HETATM    9  C18 UNL     1      20.701   1.558  50.066  1.00  0.00     0.041 A 
HETATM   10  C19 UNL     1      20.577   0.987  51.314  1.00  0.00    -0.033 A 
HETATM   11  C20 UNL     1      19.433   0.112  51.669  1.00  0.00     0.050 C 
ENDROOT
BRANCH   4  12
HETATM   12  N2  UNL     1      24.869   3.726  51.381  1.00  0.00    -0.366 N 
HETATM   13  H8  UNL     1      24.777   4.324  52.198  1.00  0.00     0.161 HD
BRANCH  12  14
HETATM   14  C8  UNL     1      26.194   3.114  51.221  1.00  0.00     0.112 C 
HETATM   15  C9  UNL     1      26.525   2.928  49.772  1.00  0.00     0.037 C 
BRANCH  14  16
HETATM   16  C10 UNL     1      26.298   1.835  51.971  1.00  0.00    -0.036 A 
HETATM   17  C11 UNL     1      26.099   2.066  53.327  1.00  0.00     0.009 A 
HETATM   18  C12 UNL     1      26.145   1.029  54.260  1.00  0.00     0.001 A 
HETATM   19  C13 UNL     1      26.395  -0.256  53.809  1.00  0.00     0.000 A 
HETATM   20  C14 UNL     1      26.590  -0.468  52.462  1.00  0.00     0.001 A 
HETATM   21  C15 UNL     1      26.546   0.550  51.539  1.00  0.00     0.009 A 
ENDBRANCH  14  16
ENDBRANCH  12  14
ENDBRANCH   4  12
BRANCH   1  22
HETATM   22  N1  UNL     1      21.430   0.656  53.543  1.00  0.00    -0.327 N 
HETATM   23  C3  UNL     1      22.274  -0.473  53.736  1.00  0.00     0.221 C 
HETATM   24  O1  UNL     1      23.064  -0.910  52.850  1.00  0.00    -0.273 OA
HETATM   25  H6  UNL     1      20.789   0.981  54.316  1.00  0.00     0.169 HD
BRANCH  23  26
HETATM   26  C2  UNL     1      22.187  -1.146  55.074  1.00  0.00     0.098 C 
HETATM   27  C1  UNL     1      23.531  -1.432  55.661  1.00  0.00     0.014 C 
ENDBRANCH  23  26
ENDBRANCH   1  22
TORSDOF 5
ENDMDL
