MODEL 1
REMARK VINA RESULT:      -8.6      0.000      0.000
REMARK  9 active torsions:
REMARK  status: ('A' for Active; 'I' for Inactive)
REMARK    1  A    between atoms: C2_2  and  O1_3 
REMARK    2  A    between atoms: O1_3  and  C3_4 
REMARK    3  A    between atoms: C3_4  and  C4_6 
REMARK    4  A    between atoms: C8_12  and  N3_13 
REMARK    5  A    between atoms: N3_13  and  C9_14 
REMARK    6  A    between atoms: C16_23  and  O3_24 
REMARK    7  A    between atoms: O3_24  and  C17_25 
REMARK    8  A    between atoms: C17_25  and  C18_26 
REMARK    9  A    between atoms: C18_26  and  O4_27 
ROOT
HETATM    1  C9  UNL     1      26.759  -0.971  52.928  1.00  0.00     0.031 A 
HETATM    2  C10 UNL     1      27.578  -2.093  52.752  1.00  0.00     0.032 A 
HETATM    3  C11 UNL     1      28.885  -2.063  53.137  1.00  0.00     0.046 A 
HETATM    4  C12 UNL     1      29.489  -0.965  53.712  1.00  0.00     0.137 A 
HETATM    5  F1  UNL     1      30.795  -1.059  54.052  1.00  0.00    -0.204 F 
HETATM    6  C13 UNL     1      28.709   0.157  53.899  1.00  0.00     0.085 A 
HETATM    7  C14 UNL     1      29.309   1.315  54.495  1.00  0.00     0.102 C 
HETATM    8  N4  UNL     1      29.808   2.253  54.962  1.00  0.00    -0.191 NA
HETATM    9  C15 UNL     1      27.388   0.113  53.504  1.00  0.00     0.055 A 
ENDROOT
BRANCH   1  10
HETATM   10  N3  UNL     1      25.412  -0.962  52.549  1.00  0.00    -0.362 N 
HETATM   11  H10 UNL     1      25.215  -1.224  51.537  1.00  0.00     0.162 HD
BRANCH  10  12
HETATM   12  C8  UNL     1      24.234  -0.622  53.414  1.00  0.00     0.264 C 
HETATM   13  N2  UNL     1      24.561  -0.798  54.766  1.00  0.00    -0.251 NA
HETATM   14  C7  UNL     1      23.713  -1.330  55.628  1.00  0.00     0.224 C 
HETATM   15  N1  UNL     1      22.396  -1.777  55.313  1.00  0.00    -0.272 NA
HETATM   16  C6  UNL     1      21.534  -1.132  54.646  1.00  0.00     0.161 C 
HETATM   17  C5  UNL     1      20.751  -0.141  53.839  1.00  0.00     0.020 C 
HETATM   18  C4  UNL     1      21.186   1.006  53.278  1.00  0.00     0.040 C 
HETATM   19  C19 UNL     1      22.579   1.374  52.964  1.00  0.00     0.053 C 
HETATM   20  C16 UNL     1      23.756   0.704  53.040  1.00  0.00     0.091 C 
BRANCH  18  21
HETATM   21  C3  UNL     1      20.138   1.731  52.606  1.00  0.00     0.293 C 
HETATM   22  O2  UNL     1      19.241   1.172  51.927  1.00  0.00    -0.259 OA
BRANCH  21  23
HETATM   23  O1  UNL     1      20.049   3.095  52.667  1.00  0.00    -0.318 OA
BRANCH  23  24
HETATM   24  C2  UNL     1      19.986   3.947  51.565  1.00  0.00     0.174 C 
HETATM   25  C1  UNL     1      21.149   3.811  50.632  1.00  0.00     0.034 C 
ENDBRANCH  23  24
ENDBRANCH  21  23
ENDBRANCH  18  21
BRANCH  20  26
HETATM   26  O3  UNL     1      24.844   1.518  52.653  1.00  0.00    -0.349 OA
BRANCH  26  27
HETATM   27  C17 UNL     1      24.759   2.604  51.790  1.00  0.00     0.201 C 
BRANCH  27  28
HETATM   28  C18 UNL     1      26.021   2.594  50.915  1.00  0.00     0.190 C 
BRANCH  28  29
HETATM   29  O4  UNL     1      27.138   3.018  51.589  1.00  0.00    -0.399 OA
HETATM   30  H18 UNL     1      27.716   2.271  51.877  1.00  0.00     0.209 HD
ENDBRANCH  28  29
ENDBRANCH  27  28
ENDBRANCH  26  27
ENDBRANCH  20  26
ENDBRANCH  10  12
ENDBRANCH   1  10
TORSDOF 9
ENDMDL
MODEL 2
REMARK VINA RESULT:      -8.1      1.321      2.032
REMARK  9 active torsions:
REMARK  status: ('A' for Active; 'I' for Inactive)
REMARK    1  A    between atoms: C2_2  and  O1_3 
REMARK    2  A    between atoms: O1_3  and  C3_4 
REMARK    3  A    between atoms: C3_4  and  C4_6 
REMARK    4  A    between atoms: C8_12  and  N3_13 
REMARK    5  A    between atoms: N3_13  and  C9_14 
REMARK    6  A    between atoms: C16_23  and  O3_24 
REMARK    7  A    between atoms: O3_24  and  C17_25 
REMARK    8  A    between atoms: C17_25  and  C18_26 
REMARK    9  A    between atoms: C18_26  and  O4_27 
ROOT
HETATM    1  C9  UNL     1      26.587  -0.845  52.831  1.00  0.00     0.031 A 
HETATM    2  C10 UNL     1      27.348  -2.013  52.712  1.00  0.00     0.032 A 
HETATM    3  C11 UNL     1      28.637  -2.049  53.153  1.00  0.00     0.046 A 
HETATM    4  C12 UNL     1      29.277  -0.974  53.734  1.00  0.00     0.137 A 
HETATM    5  F1  UNL     1      30.560  -1.133  54.133  1.00  0.00    -0.204 F 
HETATM    6  C13 UNL     1      28.553   0.193  53.866  1.00  0.00     0.085 A 
HETATM    7  C14 UNL     1      29.192   1.328  54.467  1.00  0.00     0.102 C 
HETATM    8  N4  UNL     1      29.723   2.246  54.939  1.00  0.00    -0.191 NA
HETATM    9  C15 UNL     1      27.250   0.215  53.415  1.00  0.00     0.055 A 
ENDROOT
BRANCH   1  10
HETATM   10  N3  UNL     1      25.259  -0.769  52.393  1.00  0.00    -0.362 N 
HETATM   11  H10 UNL     1      25.118  -0.805  51.340  1.00  0.00     0.162 HD
BRANCH  10  12
HETATM   12  C8  UNL     1      24.034  -0.642  53.249  1.00  0.00     0.264 C 
HETATM   13  N2  UNL     1      24.390  -0.633  54.605  1.00  0.00    -0.251 NA
HETATM   14  C7  UNL     1      23.685  -1.278  55.518  1.00  0.00     0.224 C 
HETATM   15  N1  UNL     1      22.506  -2.037  55.259  1.00  0.00    -0.272 NA
HETATM   16  C6  UNL     1      21.520  -1.659  54.559  1.00  0.00     0.161 C 
HETATM   17  C5  UNL     1      20.532  -0.939  53.692  1.00  0.00     0.020 C 
HETATM   18  C4  UNL     1      20.694   0.231  53.040  1.00  0.00     0.040 C 
HETATM   19  C19 UNL     1      21.966   0.882  52.676  1.00  0.00     0.053 C 
HETATM   20  C16 UNL     1      23.265   0.508  52.784  1.00  0.00     0.091 C 
BRANCH  18  21
HETATM   21  C3  UNL     1      19.508   0.643  52.332  1.00  0.00     0.293 C 
HETATM   22  O2  UNL     1      19.173   1.846  52.195  1.00  0.00    -0.259 OA
BRANCH  21  23
HETATM   23  O1  UNL     1      18.661  -0.262  51.754  1.00  0.00    -0.318 OA
BRANCH  23  24
HETATM   24  C2  UNL     1      17.283  -0.320  51.963  1.00  0.00     0.174 C 
HETATM   25  C1  UNL     1      16.858  -1.437  52.865  1.00  0.00     0.034 C 
ENDBRANCH  23  24
ENDBRANCH  21  23
ENDBRANCH  18  21
BRANCH  20  26
HETATM   26  O3  UNL     1      24.138   1.516  52.320  1.00  0.00    -0.349 OA
BRANCH  26  27
HETATM   27  C17 UNL     1      23.839   2.427  51.314  1.00  0.00     0.201 C 
BRANCH  27  28
HETATM   28  C18 UNL     1      23.777   3.819  51.960  1.00  0.00     0.190 C 
BRANCH  28  29
HETATM   29  O4  UNL     1      24.546   3.913  53.093  1.00  0.00    -0.399 OA
HETATM   30  H18 UNL     1      24.919   3.044  53.373  1.00  0.00     0.209 HD
ENDBRANCH  28  29
ENDBRANCH  27  28
ENDBRANCH  26  27
ENDBRANCH  20  26
ENDBRANCH  10  12
ENDBRANCH   1  10
TORSDOF 9
ENDMDL
MODEL 3
REMARK VINA RESULT:      -7.9      3.785      5.687
REMARK  9 active torsions:
REMARK  status: ('A' for Active; 'I' for Inactive)
REMARK    1  A    between atoms: C2_2  and  O1_3 
REMARK    2  A    between atoms: O1_3  and  C3_4 
REMARK    3  A    between atoms: C3_4  and  C4_6 
REMARK    4  A    between atoms: C8_12  and  N3_13 
REMARK    5  A    between atoms: N3_13  and  C9_14 
REMARK    6  A    between atoms: C16_23  and  O3_24 
REMARK    7  A    between atoms: O3_24  and  C17_25 
REMARK    8  A    between atoms: C17_25  and  C18_26 
REMARK    9  A    between atoms: C18_26  and  O4_27 
ROOT
HETATM    1  C9  UNL     1      25.133   3.543  49.746  1.00  0.00     0.031 A 
HETATM    2  C10 UNL     1      26.496   3.311  49.530  1.00  0.00     0.032 A 
HETATM    3  C11 UNL     1      27.293   4.293  49.018  1.00  0.00     0.046 A 
HETATM    4  C12 UNL     1      26.838   5.550  48.682  1.00  0.00     0.137 A 
HETATM    5  F1  UNL     1      27.727   6.439  48.183  1.00  0.00    -0.204 F 
HETATM    6  C13 UNL     1      25.498   5.810  48.884  1.00  0.00     0.085 A 
HETATM    7  C14 UNL     1      24.995   7.110  48.544  1.00  0.00     0.102 C 
HETATM    8  N4  UNL     1      24.595   8.158  48.251  1.00  0.00    -0.191 NA
HETATM    9  C15 UNL     1      24.704   4.808  49.402  1.00  0.00     0.055 A 
ENDROOT
BRANCH   1  10
HETATM   10  N3  UNL     1      24.282   2.563  50.272  1.00  0.00    -0.362 N 
HETATM   11  H10 UNL     1      23.549   2.181  49.604  1.00  0.00     0.162 HD
BRANCH  10  12
HETATM   12  C8  UNL     1      24.301   2.007  51.665  1.00  0.00     0.264 C 
HETATM   13  N2  UNL     1      25.174   2.752  52.471  1.00  0.00    -0.251 NA
HETATM   14  C7  UNL     1      25.973   2.177  53.354  1.00  0.00     0.224 C 
HETATM   15  N1  UNL     1      26.048   0.775  53.601  1.00  0.00    -0.272 NA
HETATM   16  C6  UNL     1      25.062  -0.000  53.777  1.00  0.00     0.161 C 
HETATM   17  C5  UNL     1      23.719  -0.645  53.940  1.00  0.00     0.020 C 
HETATM   18  C4  UNL     1      22.503  -0.098  53.739  1.00  0.00     0.040 C 
HETATM   19  C19 UNL     1      22.183   1.098  52.937  1.00  0.00     0.053 C 
HETATM   20  C16 UNL     1      22.925   1.907  52.139  1.00  0.00     0.091 C 
BRANCH  18  21
HETATM   21  C3  UNL     1      21.426  -1.008  54.035  1.00  0.00     0.293 C 
HETATM   22  O2  UNL     1      21.362  -1.675  55.098  1.00  0.00    -0.259 OA
BRANCH  21  23
HETATM   23  O1  UNL     1      20.387  -1.205  53.167  1.00  0.00    -0.318 OA
BRANCH  23  24
HETATM   24  C2  UNL     1      19.091  -0.720  53.341  1.00  0.00     0.174 C 
HETATM   25  C1  UNL     1      18.483  -0.166  52.090  1.00  0.00     0.034 C 
ENDBRANCH  23  24
ENDBRANCH  21  23
ENDBRANCH  18  21
BRANCH  20  26
HETATM   26  O3  UNL     1      22.154   2.966  51.611  1.00  0.00    -0.349 OA
BRANCH  26  27
HETATM   27  C17 UNL     1      21.615   4.008  52.357  1.00  0.00     0.201 C 
BRANCH  27  28
HETATM   28  C18 UNL     1      22.480   5.251  52.100  1.00  0.00     0.190 C 
BRANCH  28  29
HETATM   29  O4  UNL     1      23.603   5.289  52.888  1.00  0.00    -0.399 OA
HETATM   30  H18 UNL     1      23.470   4.850  53.762  1.00  0.00     0.209 HD
ENDBRANCH  28  29
ENDBRANCH  27  28
ENDBRANCH  26  27
ENDBRANCH  20  26
ENDBRANCH  10  12
ENDBRANCH   1  10
TORSDOF 9
ENDMDL
MODEL 4
REMARK VINA RESULT:      -7.8      2.234      4.171
REMARK  9 active torsions:
REMARK  status: ('A' for Active; 'I' for Inactive)
REMARK    1  A    between atoms: C2_2  and  O1_3 
REMARK    2  A    between atoms: O1_3  and  C3_4 
REMARK    3  A    between atoms: C3_4  and  C4_6 
REMARK    4  A    between atoms: C8_12  and  N3_13 
REMARK    5  A    between atoms: N3_13  and  C9_14 
REMARK    6  A    between atoms: C16_23  and  O3_24 
REMARK    7  A    between atoms: O3_24  and  C17_25 
REMARK    8  A    between atoms: C17_25  and  C18_26 
REMARK    9  A    between atoms: C18_26  and  O4_27 
ROOT
HETATM    1  C9  UNL     1      26.662   1.427  53.703  1.00  0.00     0.031 A 
HETATM    2  C10 UNL     1      27.744   2.308  53.809  1.00  0.00     0.032 A 
HETATM    3  C11 UNL     1      29.024   1.840  53.763  1.00  0.00     0.046 A 
HETATM    4  C12 UNL     1      29.347   0.508  53.613  1.00  0.00     0.137 A 
HETATM    5  F1  UNL     1      30.656   0.168  53.581  1.00  0.00    -0.204 F 
HETATM    6  C13 UNL     1      28.302  -0.385  53.506  1.00  0.00     0.085 A 
HETATM    7  C14 UNL     1      28.606  -1.778  53.350  1.00  0.00     0.102 C 
HETATM    8  N4  UNL     1      28.863  -2.904  53.240  1.00  0.00    -0.191 NA
HETATM    9  C15 UNL     1      27.012   0.102  53.555  1.00  0.00     0.055 A 
ENDROOT
BRANCH   1  10
HETATM   10  N3  UNL     1      25.333   1.868  53.743  1.00  0.00    -0.362 N 
HETATM   11  H10 UNL     1      24.919   1.997  54.714  1.00  0.00     0.162 HD
BRANCH  10  12
HETATM   12  C8  UNL     1      24.449   2.171  52.570  1.00  0.00     0.264 C 
HETATM   13  N2  UNL     1      25.172   2.049  51.375  1.00  0.00    -0.251 NA
HETATM   14  C7  UNL     1      25.021   2.900  50.376  1.00  0.00     0.224 C 
HETATM   15  N1  UNL     1      24.131   4.014  50.374  1.00  0.00    -0.272 NA
HETATM   16  C6  UNL     1      22.914   3.991  50.726  1.00  0.00     0.161 C 
HETATM   17  C5  UNL     1      21.535   3.647  51.199  1.00  0.00     0.020 C 
HETATM   18  C4  UNL     1      21.106   2.489  51.741  1.00  0.00     0.040 C 
HETATM   19  C19 UNL     1      21.927   1.441  52.375  1.00  0.00     0.053 C 
HETATM   20  C16 UNL     1      23.247   1.350  52.676  1.00  0.00     0.091 C 
BRANCH  18  21
HETATM   21  C3  UNL     1      19.696   2.502  52.041  1.00  0.00     0.293 C 
HETATM   22  O2  UNL     1      19.050   3.557  52.264  1.00  0.00    -0.259 OA
BRANCH  21  23
HETATM   23  O1  UNL     1      18.960   1.351  52.102  1.00  0.00    -0.318 OA
BRANCH  23  24
HETATM   24  C2  UNL     1      18.445   0.666  51.001  1.00  0.00     0.174 C 
HETATM   25  C1  UNL     1      17.480  -0.418  51.365  1.00  0.00     0.034 C 
ENDBRANCH  23  24
ENDBRANCH  21  23
ENDBRANCH  18  21
BRANCH  20  26
HETATM   26  O3  UNL     1      23.565   0.102  53.255  1.00  0.00    -0.349 OA
BRANCH  26  27
HETATM   27  C17 UNL     1      22.659  -0.931  53.467  1.00  0.00     0.201 C 
BRANCH  27  28
HETATM   28  C18 UNL     1      22.278  -0.908  54.955  1.00  0.00     0.190 C 
BRANCH  28  29
HETATM   29  O4  UNL     1      23.011  -1.794  55.704  1.00  0.00    -0.399 OA
HETATM   30  H18 UNL     1      22.823  -1.722  56.671  1.00  0.00     0.209 HD
ENDBRANCH  28  29
ENDBRANCH  27  28
ENDBRANCH  26  27
ENDBRANCH  20  26
ENDBRANCH  10  12
ENDBRANCH   1  10
TORSDOF 9
ENDMDL
MODEL 5
REMARK VINA RESULT:      -7.8      2.076      2.690
REMARK  9 active torsions:
REMARK  status: ('A' for Active; 'I' for Inactive)
REMARK    1  A    between atoms: C2_2  and  O1_3 
REMARK    2  A    between atoms: O1_3  and  C3_4 
REMARK    3  A    between atoms: C3_4  and  C4_6 
REMARK    4  A    between atoms: C8_12  and  N3_13 
REMARK    5  A    between atoms: N3_13  and  C9_14 
REMARK    6  A    between atoms: C16_23  and  O3_24 
REMARK    7  A    between atoms: O3_24  and  C17_25 
REMARK    8  A    between atoms: C17_25  and  C18_26 
REMARK    9  A    between atoms: C18_26  and  O4_27 
ROOT
HETATM    1  C9  UNL     1      26.404   1.094  52.434  1.00  0.00     0.031 A 
HETATM    2  C10 UNL     1      27.225   2.129  52.895  1.00  0.00     0.032 A 
HETATM    3  C11 UNL     1      28.436   1.854  53.457  1.00  0.00     0.046 A 
HETATM    4  C12 UNL     1      28.936   0.578  53.613  1.00  0.00     0.137 A 
HETATM    5  F1  UNL     1      30.153   0.434  54.185  1.00  0.00    -0.204 F 
HETATM    6  C13 UNL     1      28.150  -0.464  53.168  1.00  0.00     0.085 A 
HETATM    7  C14 UNL     1      28.643  -1.803  53.316  1.00  0.00     0.102 C 
HETATM    8  N4  UNL     1      29.043  -2.883  53.455  1.00  0.00    -0.191 NA
HETATM    9  C15 UNL     1      26.926  -0.171  52.602  1.00  0.00     0.055 A 
ENDROOT
BRANCH   1  10
HETATM   10  N3  UNL     1      25.155   1.335  51.849  1.00  0.00    -0.362 N 
HETATM   11  H10 UNL     1      25.176   1.760  50.875  1.00  0.00     0.162 HD
BRANCH  10  12
HETATM   12  C8  UNL     1      23.809   1.056  52.451  1.00  0.00     0.264 C 
HETATM   13  N2  UNL     1      23.957   0.470  53.716  1.00  0.00    -0.251 NA
HETATM   14  C7  UNL     1      23.182  -0.519  54.124  1.00  0.00     0.224 C 
HETATM   15  N1  UNL     1      22.125  -1.100  53.363  1.00  0.00    -0.272 NA
HETATM   16  C6  UNL     1      21.225  -0.464  52.738  1.00  0.00     0.161 C 
HETATM   17  C5  UNL     1      20.319   0.553  52.113  1.00  0.00     0.020 C 
HETATM   18  C4  UNL     1      20.474   1.891  52.069  1.00  0.00     0.040 C 
HETATM   19  C19 UNL     1      21.725   2.652  52.247  1.00  0.00     0.053 C 
HETATM   20  C16 UNL     1      23.022   2.284  52.404  1.00  0.00     0.091 C 
BRANCH  18  21
HETATM   21  C3  UNL     1      19.377   2.559  51.417  1.00  0.00     0.293 C 
HETATM   22  O2  UNL     1      18.712   3.478  51.958  1.00  0.00    -0.259 OA
BRANCH  21  23
HETATM   23  O1  UNL     1      18.982   2.232  50.149  1.00  0.00    -0.318 OA
BRANCH  23  24
HETATM   24  C2  UNL     1      19.527   2.756  48.976  1.00  0.00     0.174 C 
HETATM   25  C1  UNL     1      20.726   2.008  48.483  1.00  0.00     0.034 C 
ENDBRANCH  23  24
ENDBRANCH  21  23
ENDBRANCH  18  21
BRANCH  20  26
HETATM   26  O3  UNL     1      23.864   3.404  52.579  1.00  0.00    -0.349 OA
BRANCH  26  27
HETATM   27  C17 UNL     1      23.424   4.708  52.774  1.00  0.00     0.201 C 
BRANCH  27  28
HETATM   28  C18 UNL     1      23.920   5.541  51.583  1.00  0.00     0.190 C 
BRANCH  28  29
HETATM   29  O4  UNL     1      24.541   6.702  51.969  1.00  0.00    -0.399 OA
HETATM   30  H18 UNL     1      23.915   7.358  52.359  1.00  0.00     0.209 HD
ENDBRANCH  28  29
ENDBRANCH  27  28
ENDBRANCH  26  27
ENDBRANCH  20  26
ENDBRANCH  10  12
ENDBRANCH   1  10
TORSDOF 9
ENDMDL
MODEL 6
REMARK VINA RESULT:      -7.7      3.091      4.214
REMARK  9 active torsions:
REMARK  status: ('A' for Active; 'I' for Inactive)
REMARK    1  A    between atoms: C2_2  and  O1_3 
REMARK    2  A    between atoms: O1_3  and  C3_4 
REMARK    3  A    between atoms: C3_4  and  C4_6 
REMARK    4  A    between atoms: C8_12  and  N3_13 
REMARK    5  A    between atoms: N3_13  and  C9_14 
REMARK    6  A    between atoms: C16_23  and  O3_24 
REMARK    7  A    between atoms: O3_24  and  C17_25 
REMARK    8  A    between atoms: C17_25  and  C18_26 
REMARK    9  A    between atoms: C18_26  and  O4_27 
ROOT
HETATM    1  C9  UNL     1      27.031   1.942  52.382  1.00  0.00     0.031 A 
HETATM    2  C10 UNL     1      28.020   2.443  53.236  1.00  0.00     0.032 A 
HETATM    3  C11 UNL     1      28.854   1.595  53.902  1.00  0.00     0.046 A 
HETATM    4  C12 UNL     1      28.795   0.221  53.793  1.00  0.00     0.137 A 
HETATM    5  F1  UNL     1      29.680  -0.514  54.505  1.00  0.00    -0.204 F 
HETATM    6  C13 UNL     1      27.830  -0.303  52.959  1.00  0.00     0.085 A 
HETATM    7  C14 UNL     1      27.744  -1.729  52.825  1.00  0.00     0.102 C 
HETATM    8  N4  UNL     1      27.672  -2.883  52.737  1.00  0.00    -0.191 NA
HETATM    9  C15 UNL     1      26.993   0.566  52.292  1.00  0.00     0.055 A 
ENDROOT
BRANCH   1  10
HETATM   10  N3  UNL     1      26.156   2.780  51.679  1.00  0.00    -0.362 N 
HETATM   11  H10 UNL     1      26.600   3.629  51.219  1.00  0.00     0.162 HD
BRANCH  10  12
HETATM   12  C8  UNL     1      24.676   2.601  51.513  1.00  0.00     0.264 C 
HETATM   13  N2  UNL     1      24.054   2.525  52.768  1.00  0.00    -0.251 NA
HETATM   14  C7  UNL     1      23.073   1.674  53.012  1.00  0.00     0.224 C 
HETATM   15  N1  UNL     1      22.529   0.756  52.067  1.00  0.00    -0.272 NA
HETATM   16  C6  UNL     1      22.185   1.031  50.879  1.00  0.00     0.161 C 
HETATM   17  C5  UNL     1      21.879   1.659  49.553  1.00  0.00     0.020 C 
HETATM   18  C4  UNL     1      22.188   2.902  49.130  1.00  0.00     0.040 C 
HETATM   19  C19 UNL     1      23.226   3.798  49.671  1.00  0.00     0.053 C 
HETATM   20  C16 UNL     1      24.185   3.644  50.619  1.00  0.00     0.091 C 
BRANCH  18  21
HETATM   21  C3  UNL     1      21.696   3.178  47.804  1.00  0.00     0.293 C 
HETATM   22  O2  UNL     1      20.583   2.772  47.385  1.00  0.00    -0.259 OA
BRANCH  21  23
HETATM   23  O1  UNL     1      22.419   3.909  46.903  1.00  0.00    -0.318 OA
BRANCH  23  24
HETATM   24  C2  UNL     1      22.005   5.109  46.324  1.00  0.00     0.174 C 
HETATM   25  C1  UNL     1      22.675   6.317  46.900  1.00  0.00     0.034 C 
ENDBRANCH  23  24
ENDBRANCH  21  23
ENDBRANCH  18  21
BRANCH  20  26
HETATM   26  O3  UNL     1      24.924   4.831  50.810  1.00  0.00    -0.349 OA
BRANCH  26  27
HETATM   27  C17 UNL     1      24.746   6.006  50.089  1.00  0.00     0.201 C 
BRANCH  27  28
HETATM   28  C18 UNL     1      24.152   7.047  51.048  1.00  0.00     0.190 C 
BRANCH  28  29
HETATM   29  O4  UNL     1      24.468   6.802  52.361  1.00  0.00    -0.399 OA
HETATM   30  H18 UNL     1      25.084   7.475  52.736  1.00  0.00     0.209 HD
ENDBRANCH  28  29
ENDBRANCH  27  28
ENDBRANCH  26  27
ENDBRANCH  20  26
ENDBRANCH  10  12
ENDBRANCH   1  10
TORSDOF 9
ENDMDL
MODEL 7
REMARK VINA RESULT:      -7.6      3.836      5.961
REMARK  9 active torsions:
REMARK  status: ('A' for Active; 'I' for Inactive)
REMARK    1  A    between atoms: C2_2  and  O1_3 
REMARK    2  A    between atoms: O1_3  and  C3_4 
REMARK    3  A    between atoms: C3_4  and  C4_6 
REMARK    4  A    between atoms: C8_12  and  N3_13 
REMARK    5  A    between atoms: N3_13  and  C9_14 
REMARK    6  A    between atoms: C16_23  and  O3_24 
REMARK    7  A    between atoms: O3_24  and  C17_25 
REMARK    8  A    between atoms: C17_25  and  C18_26 
REMARK    9  A    between atoms: C18_26  and  O4_27 
ROOT
HETATM    1  C9  UNL     1      25.723   4.397  49.348  1.00  0.00     0.031 A 
HETATM    2  C10 UNL     1      25.161   5.672  49.215  1.00  0.00     0.032 A 
HETATM    3  C11 UNL     1      25.916   6.718  48.773  1.00  0.00     0.046 A 
HETATM    4  C12 UNL     1      27.248   6.611  48.432  1.00  0.00     0.137 A 
HETATM    5  F1  UNL     1      27.889   7.723  48.006  1.00  0.00    -0.204 F 
HETATM    6  C13 UNL     1      27.830   5.367  48.553  1.00  0.00     0.085 A 
HETATM    7  C14 UNL     1      29.215   5.225  48.206  1.00  0.00     0.102 C 
HETATM    8  N4  UNL     1      30.340   5.124  47.939  1.00  0.00    -0.191 NA
HETATM    9  C15 UNL     1      27.056   4.318  49.002  1.00  0.00     0.055 A 
ENDROOT
BRANCH   1  10
HETATM   10  N3  UNL     1      24.982   3.296  49.796  1.00  0.00    -0.362 N 
HETATM   11  H10 UNL     1      24.187   2.987  49.162  1.00  0.00     0.162 HD
BRANCH  10  12
HETATM   12  C8  UNL     1      25.196   2.522  51.063  1.00  0.00     0.264 C 
HETATM   13  N2  UNL     1      26.396   2.913  51.673  1.00  0.00    -0.251 NA
HETATM   14  C7  UNL     1      27.212   2.040  52.236  1.00  0.00     0.224 C 
HETATM   15  N1  UNL     1      26.988   0.633  52.303  1.00  0.00    -0.272 NA
HETATM   16  C6  UNL     1      25.910   0.070  52.659  1.00  0.00     0.161 C 
HETATM   17  C5  UNL     1      24.529  -0.287  53.115  1.00  0.00     0.020 C 
HETATM   18  C4  UNL     1      23.479   0.535  53.314  1.00  0.00     0.040 C 
HETATM   19  C19 UNL     1      23.288   1.890  52.763  1.00  0.00     0.053 C 
HETATM   20  C16 UNL     1      23.995   2.642  51.883  1.00  0.00     0.091 C 
BRANCH  18  21
HETATM   21  C3  UNL     1      22.311  -0.158  53.797  1.00  0.00     0.293 C 
HETATM   22  O2  UNL     1      22.318  -1.370  54.128  1.00  0.00    -0.259 OA
BRANCH  21  23
HETATM   23  O1  UNL     1      21.103   0.469  53.928  1.00  0.00    -0.318 OA
BRANCH  23  24
HETATM   24  C2  UNL     1      19.949   0.152  53.210  1.00  0.00     0.174 C 
HETATM   25  C1  UNL     1      20.120   0.248  51.726  1.00  0.00     0.034 C 
ENDBRANCH  23  24
ENDBRANCH  21  23
ENDBRANCH  18  21
BRANCH  20  26
HETATM   26  O3  UNL     1      23.413   3.916  51.702  1.00  0.00    -0.349 OA
BRANCH  26  27
HETATM   27  C17 UNL     1      22.120   4.262  52.079  1.00  0.00     0.201 C 
BRANCH  27  28
HETATM   28  C18 UNL     1      21.669   5.411  51.165  1.00  0.00     0.190 C 
BRANCH  28  29
HETATM   29  O4  UNL     1      21.908   6.648  51.709  1.00  0.00    -0.399 OA
HETATM   30  H18 UNL     1      22.055   6.613  52.684  1.00  0.00     0.209 HD
ENDBRANCH  28  29
ENDBRANCH  27  28
ENDBRANCH  26  27
ENDBRANCH  20  26
ENDBRANCH  10  12
ENDBRANCH   1  10
TORSDOF 9
ENDMDL
MODEL 8
REMARK VINA RESULT:      -7.5      3.887      7.313
REMARK  9 active torsions:
REMARK  status: ('A' for Active; 'I' for Inactive)
REMARK    1  A    between atoms: C2_2  and  O1_3 
REMARK    2  A    between atoms: O1_3  and  C3_4 
REMARK    3  A    between atoms: C3_4  and  C4_6 
REMARK    4  A    between atoms: C8_12  and  N3_13 
REMARK    5  A    between atoms: N3_13  and  C9_14 
REMARK    6  A    between atoms: C16_23  and  O3_24 
REMARK    7  A    between atoms: O3_24  and  C17_25 
REMARK    8  A    between atoms: C17_25  and  C18_26 
REMARK    9  A    between atoms: C18_26  and  O4_27 
ROOT
HETATM    1  C9  UNL     1      22.862   0.797  51.944  1.00  0.00     0.031 A 
HETATM    2  C10 UNL     1      23.460   0.103  53.001  1.00  0.00     0.032 A 
HETATM    3  C11 UNL     1      22.704  -0.647  53.853  1.00  0.00     0.046 A 
HETATM    4  C12 UNL     1      21.335  -0.778  53.747  1.00  0.00     0.137 A 
HETATM    5  F1  UNL     1      20.695  -1.552  54.654  1.00  0.00    -0.204 F 
HETATM    6  C13 UNL     1      20.716  -0.106  52.714  1.00  0.00     0.085 A 
HETATM    7  C14 UNL     1      19.293  -0.224  52.578  1.00  0.00     0.102 C 
HETATM    8  N4  UNL     1      18.140  -0.312  52.486  1.00  0.00    -0.191 NA
HETATM    9  C15 UNL     1      21.493   0.649  51.860  1.00  0.00     0.055 A 
ENDROOT
BRANCH   1  10
HETATM   10  N3  UNL     1      23.604   1.575  51.046  1.00  0.00    -0.362 N 
HETATM   11  H10 UNL     1      23.967   1.067  50.186  1.00  0.00     0.162 HD
BRANCH  10  12
HETATM   12  C8  UNL     1      23.932   3.033  51.176  1.00  0.00     0.264 C 
HETATM   13  N2  UNL     1      23.587   3.495  52.453  1.00  0.00    -0.251 NA
HETATM   14  C7  UNL     1      23.027   4.677  52.642  1.00  0.00     0.224 C 
HETATM   15  N1  UNL     1      22.715   5.611  51.611  1.00  0.00    -0.272 NA
HETATM   16  C6  UNL     1      23.491   5.970  50.677  1.00  0.00     0.161 C 
HETATM   17  C5  UNL     1      24.619   6.186  49.714  1.00  0.00     0.020 C 
HETATM   18  C4  UNL     1      25.785   5.513  49.633  1.00  0.00     0.040 C 
HETATM   19  C19 UNL     1      26.082   4.172  50.171  1.00  0.00     0.053 C 
HETATM   20  C16 UNL     1      25.323   3.227  50.781  1.00  0.00     0.091 C 
BRANCH  18  21
HETATM   21  C3  UNL     1      26.654   6.025  48.604  1.00  0.00     0.293 C 
HETATM   22  O2  UNL     1      26.343   6.985  47.856  1.00  0.00    -0.259 OA
BRANCH  21  23
HETATM   23  O1  UNL     1      27.893   5.492  48.374  1.00  0.00    -0.318 OA
BRANCH  23  24
HETATM   24  C2  UNL     1      28.980   6.184  47.841  1.00  0.00     0.174 C 
HETATM   25  C1  UNL     1      30.271   5.912  48.547  1.00  0.00     0.034 C 
ENDBRANCH  23  24
ENDBRANCH  21  23
ENDBRANCH  18  21
BRANCH  20  26
HETATM   26  O3  UNL     1      26.092   2.103  51.153  1.00  0.00    -0.349 OA
BRANCH  26  27
HETATM   27  C17 UNL     1      27.161   2.127  52.042  1.00  0.00     0.201 C 
BRANCH  27  28
HETATM   28  C18 UNL     1      26.632   1.665  53.408  1.00  0.00     0.190 C 
BRANCH  28  29
HETATM   29  O4  UNL     1      26.095   2.691  54.144  1.00  0.00    -0.399 OA
HETATM   30  H18 UNL     1      25.295   2.418  54.652  1.00  0.00     0.209 HD
ENDBRANCH  28  29
ENDBRANCH  27  28
ENDBRANCH  26  27
ENDBRANCH  20  26
ENDBRANCH  10  12
ENDBRANCH   1  10
TORSDOF 9
ENDMDL
MODEL 9
REMARK VINA RESULT:      -7.5      4.121      6.218
REMARK  9 active torsions:
REMARK  status: ('A' for Active; 'I' for Inactive)
REMARK    1  A    between atoms: C2_2  and  O1_3 
REMARK    2  A    between atoms: O1_3  and  C3_4 
REMARK    3  A    between atoms: C3_4  and  C4_6 
REMARK    4  A    between atoms: C8_12  and  N3_13 
REMARK    5  A    between atoms: N3_13  and  C9_14 
REMARK    6  A    between atoms: C16_23  and  O3_24 
REMARK    7  A    between atoms: O3_24  and  C17_25 
REMARK    8  A    between atoms: C17_25  and  C18_26 
REMARK    9  A    between atoms: C18_26  and  O4_27 
ROOT
HETATM    1  C9  UNL     1      25.072   4.385  49.871  1.00  0.00     0.031 A 
HETATM    2  C10 UNL     1      26.280   3.696  49.711  1.00  0.00     0.032 A 
HETATM    3  C11 UNL     1      27.319   4.266  49.037  1.00  0.00     0.046 A 
HETATM    4  C12 UNL     1      27.268   5.525  48.475  1.00  0.00     0.137 A 
HETATM    5  F1  UNL     1      28.365   5.981  47.830  1.00  0.00    -0.204 F 
HETATM    6  C13 UNL     1      26.090   6.229  48.615  1.00  0.00     0.085 A 
HETATM    7  C14 UNL     1      26.007   7.541  48.041  1.00  0.00     0.102 C 
HETATM    8  N4  UNL     1      25.944   8.595  47.559  1.00  0.00    -0.191 NA
HETATM    9  C15 UNL     1      25.048   5.640  49.299  1.00  0.00     0.055 A 
ENDROOT
BRANCH   1  10
HETATM   10  N3  UNL     1      23.983   3.836  50.559  1.00  0.00    -0.362 N 
HETATM   11  H10 UNL     1      23.863   4.159  51.564  1.00  0.00     0.162 HD
BRANCH  10  12
HETATM   12  C8  UNL     1      22.985   2.852  50.026  1.00  0.00     0.264 C 
HETATM   13  N2  UNL     1      23.287   2.528  48.696  1.00  0.00    -0.251 NA
HETATM   14  C7  UNL     1      22.346   2.390  47.778  1.00  0.00     0.224 C 
HETATM   15  N1  UNL     1      20.947   2.541  48.008  1.00  0.00    -0.272 NA
HETATM   16  C6  UNL     1      20.293   2.023  48.960  1.00  0.00     0.161 C 
HETATM   17  C5  UNL     1      19.810   1.287  50.173  1.00  0.00     0.020 C 
HETATM   18  C4  UNL     1      20.545   0.652  51.109  1.00  0.00     0.040 C 
HETATM   19  C19 UNL     1      21.974   0.854  51.411  1.00  0.00     0.053 C 
HETATM   20  C16 UNL     1      22.906   1.729  50.954  1.00  0.00     0.091 C 
BRANCH  18  21
HETATM   21  C3  UNL     1      19.736   0.015  52.117  1.00  0.00     0.293 C 
HETATM   22  O2  UNL     1      18.591  -0.449  51.887  1.00  0.00    -0.259 OA
BRANCH  21  23
HETATM   23  O1  UNL     1      20.168  -0.129  53.406  1.00  0.00    -0.318 OA
BRANCH  23  24
HETATM   24  C2  UNL     1      20.550  -1.333  53.997  1.00  0.00     0.174 C 
HETATM   25  C1  UNL     1      21.900  -1.286  54.642  1.00  0.00     0.034 C 
ENDBRANCH  23  24
ENDBRANCH  21  23
ENDBRANCH  18  21
BRANCH  20  26
HETATM   26  O3  UNL     1      24.172   1.492  51.533  1.00  0.00    -0.349 OA
BRANCH  26  27
HETATM   27  C17 UNL     1      24.384   0.854  52.750  1.00  0.00     0.201 C 
BRANCH  27  28
HETATM   28  C18 UNL     1      25.434   1.671  53.517  1.00  0.00     0.190 C 
BRANCH  28  29
HETATM   29  O4  UNL     1      25.512   2.972  53.089  1.00  0.00    -0.399 OA
HETATM   30  H18 UNL     1      24.999   3.132  52.261  1.00  0.00     0.209 HD
ENDBRANCH  28  29
ENDBRANCH  27  28
ENDBRANCH  26  27
ENDBRANCH  20  26
ENDBRANCH  10  12
ENDBRANCH   1  10
TORSDOF 9
ENDMDL
