MODEL 1
REMARK VINA RESULT:      -9.5      0.000      0.000
REMARK  3 active torsions:
REMARK  status: ('A' for Active; 'I' for Inactive)
REMARK    1  A    between atoms: C9_12  and  N2_13 
REMARK    2  A    between atoms: N2_13  and  C10_14 
REMARK    3  A    between atoms: C14_18  and  C15_19 
ROOT
HETATM    1  C1  UNL     1      26.278   1.912  52.868  1.00  0.00     0.138 C 
HETATM    2  C2  UNL     1      27.489   2.058  52.389  1.00  0.00     0.177 C 
HETATM    3  O1  UNL     1      27.529   0.789  52.862  1.00  0.00    -0.379 OA
HETATM    4  C3  UNL     1      28.057   0.370  54.110  1.00  0.00     0.195 C 
HETATM    5  C4  UNL     1      26.880   0.157  55.073  1.00  0.00     0.200 C 
HETATM    6  O2  UNL     1      26.007  -0.825  54.519  1.00  0.00    -0.360 OA
HETATM    7  C5  UNL     1      24.826  -0.511  53.932  1.00  0.00     0.144 C 
HETATM    8  C6  UNL     1      23.816   0.125  53.321  1.00  0.00    -0.001 A 
HETATM    9  C7  UNL     1      22.716  -0.847  53.152  1.00  0.00     0.090 A 
HETATM   10  C8  UNL     1      21.623  -0.130  52.454  1.00  0.00     0.097 A 
HETATM   11  N1  UNL     1      21.619   1.114  52.065  1.00  0.00    -0.245 NA
HETATM   12  C9  UNL     1      22.767   1.945  52.305  1.00  0.00     0.154 A 
HETATM   13  C22 UNL     1      23.885   1.521  52.919  1.00  0.00     0.083 A 
HETATM   14  N3  UNL     1      24.990   2.364  53.143  1.00  0.00    -0.377 N 
HETATM   15  H21 UNL     1      24.547   3.259  53.535  1.00  0.00     0.160 HD
ENDROOT
BRANCH  12  16
HETATM   16  N2  UNL     1      22.699   3.286  51.869  1.00  0.00    -0.339 N 
HETATM   17  H11 UNL     1      22.342   4.097  52.449  1.00  0.00     0.167 HD
BRANCH  16  18
HETATM   18  C10 UNL     1      23.008   4.024  50.708  1.00  0.00     0.034 A 
HETATM   19  C11 UNL     1      21.957   4.391  49.872  1.00  0.00     0.029 A 
HETATM   20  C12 UNL     1      22.196   5.118  48.709  1.00  0.00     0.003 A 
HETATM   21  C13 UNL     1      23.503   5.483  48.379  1.00  0.00     0.012 A 
HETATM   22  C14 UNL     1      24.574   5.127  49.202  1.00  0.00    -0.024 A 
HETATM   23  C21 UNL     1      24.266   4.418  50.320  1.00  0.00     0.041 A 
BRANCH  22  24
HETATM   24  C15 UNL     1      25.932   5.520  48.822  1.00  0.00    -0.026 A 
HETATM   25  C16 UNL     1      26.096   6.821  48.396  1.00  0.00     0.012 A 
HETATM   26  C17 UNL     1      27.369   7.271  48.015  1.00  0.00     0.001 A 
HETATM   27  C18 UNL     1      28.372   6.323  48.111  1.00  0.00     0.000 A 
HETATM   28  C19 UNL     1      28.230   5.021  48.532  1.00  0.00     0.001 A 
HETATM   29  C20 UNL     1      26.969   4.612  48.898  1.00  0.00     0.012 A 
ENDBRANCH  22  24
ENDBRANCH  16  18
ENDBRANCH  12  16
TORSDOF 3
ENDMDL
MODEL 2
REMARK VINA RESULT:      -9.1      3.179      7.402
REMARK  3 active torsions:
REMARK  status: ('A' for Active; 'I' for Inactive)
REMARK    1  A    between atoms: C9_12  and  N2_13 
REMARK    2  A    between atoms: N2_13  and  C10_14 
REMARK    3  A    between atoms: C14_18  and  C15_19 
ROOT
HETATM    1  C1  UNL     1      27.992   5.611  48.458  1.00  0.00     0.138 C 
HETATM    2  C2  UNL     1      29.294   5.512  48.338  1.00  0.00     0.177 C 
HETATM    3  O1  UNL     1      29.119   6.856  48.362  1.00  0.00    -0.379 OA
HETATM    4  C3  UNL     1      29.066   7.720  47.238  1.00  0.00     0.195 C 
HETATM    5  C4  UNL     1      27.590   8.037  46.957  1.00  0.00     0.200 C 
HETATM    6  O2  UNL     1      27.024   8.649  48.113  1.00  0.00    -0.360 OA
HETATM    7  C5  UNL     1      26.204   7.989  48.968  1.00  0.00     0.144 C 
HETATM    8  C6  UNL     1      25.554   7.046  49.664  1.00  0.00    -0.001 A 
HETATM    9  C7  UNL     1      24.619   7.733  50.579  1.00  0.00     0.090 A 
HETATM   10  C8  UNL     1      23.931   6.674  51.354  1.00  0.00     0.097 A 
HETATM   11  N1  UNL     1      24.103   5.386  51.253  1.00  0.00    -0.245 NA
HETATM   12  C9  UNL     1      25.050   4.859  50.307  1.00  0.00     0.154 A 
HETATM   13  C22 UNL     1      25.799   5.622  49.493  1.00  0.00     0.083 A 
HETATM   14  N3  UNL     1      26.714   5.073  48.574  1.00  0.00    -0.377 N 
HETATM   15  H21 UNL     1      26.155   4.288  48.103  1.00  0.00     0.160 HD
ENDROOT
BRANCH  12  16
HETATM   16  N2  UNL     1      25.185   3.456  50.238  1.00  0.00    -0.339 N 
HETATM   17  H11 UNL     1      25.328   2.902  49.347  1.00  0.00     0.167 HD
BRANCH  16  18
HETATM   18  C10 UNL     1      25.193   2.363  51.128  1.00  0.00     0.034 A 
HETATM   19  C11 UNL     1      23.972   1.922  51.628  1.00  0.00     0.029 A 
HETATM   20  C12 UNL     1      23.912   0.848  52.512  1.00  0.00     0.003 A 
HETATM   21  C13 UNL     1      25.091   0.207  52.901  1.00  0.00     0.012 A 
HETATM   22  C14 UNL     1      26.329   0.632  52.413  1.00  0.00    -0.024 A 
HETATM   23  C21 UNL     1      26.310   1.685  51.553  1.00  0.00     0.041 A 
BRANCH  22  24
HETATM   24  C15 UNL     1      27.545  -0.058  52.847  1.00  0.00    -0.026 A 
HETATM   25  C16 UNL     1      28.570   0.740  53.310  1.00  0.00     0.012 A 
HETATM   26  C17 UNL     1      29.767   0.151  53.744  1.00  0.00     0.001 A 
HETATM   27  C18 UNL     1      29.797  -1.229  53.660  1.00  0.00     0.000 A 
HETATM   28  C19 UNL     1      28.788  -2.045  53.201  1.00  0.00     0.001 A 
HETATM   29  C20 UNL     1      27.629  -1.435  52.783  1.00  0.00     0.012 A 
ENDBRANCH  22  24
ENDBRANCH  16  18
ENDBRANCH  12  16
TORSDOF 3
ENDMDL
MODEL 3
REMARK VINA RESULT:      -9.0      1.570      2.267
REMARK  3 active torsions:
REMARK  status: ('A' for Active; 'I' for Inactive)
REMARK    1  A    between atoms: C9_12  and  N2_13 
REMARK    2  A    between atoms: N2_13  and  C10_14 
REMARK    3  A    between atoms: C14_18  and  C15_19 
ROOT
HETATM    1  C1  UNL     1      25.326   0.831  52.553  1.00  0.00     0.138 C 
HETATM    2  C2  UNL     1      26.400   0.780  51.802  1.00  0.00     0.177 C 
HETATM    3  O1  UNL     1      26.656  -0.184  52.720  1.00  0.00    -0.379 OA
HETATM    4  C3  UNL     1      27.458  -0.049  53.883  1.00  0.00     0.195 C 
HETATM    5  C4  UNL     1      26.519   0.140  55.083  1.00  0.00     0.200 C 
HETATM    6  O2  UNL     1      25.655  -0.991  55.172  1.00  0.00    -0.360 OA
HETATM    7  C5  UNL     1      24.356  -0.956  54.784  1.00  0.00     0.144 C 
HETATM    8  C6  UNL     1      23.189  -0.636  54.207  1.00  0.00    -0.001 A 
HETATM    9  C7  UNL     1      22.178  -1.602  54.685  1.00  0.00     0.090 A 
HETATM   10  C8  UNL     1      20.904  -1.245  54.017  1.00  0.00     0.097 A 
HETATM   11  N1  UNL     1      20.702  -0.270  53.176  1.00  0.00    -0.245 NA
HETATM   12  C9  UNL     1      21.788   0.598  52.807  1.00  0.00     0.154 A 
HETATM   13  C22 UNL     1      23.040   0.473  53.278  1.00  0.00     0.083 A 
HETATM   14  N3  UNL     1      24.080   1.344  52.900  1.00  0.00    -0.377 N 
HETATM   15  H21 UNL     1      23.637   2.317  52.990  1.00  0.00     0.160 HD
ENDROOT
BRANCH  12  16
HETATM   16  N2  UNL     1      21.504   1.641  51.901  1.00  0.00    -0.339 N 
HETATM   17  H11 UNL     1      20.862   2.460  52.097  1.00  0.00     0.167 HD
BRANCH  16  18
HETATM   18  C10 UNL     1      21.863   2.011  50.588  1.00  0.00     0.034 A 
HETATM   19  C11 UNL     1      21.495   1.162  49.549  1.00  0.00     0.029 A 
HETATM   20  C12 UNL     1      21.821   1.469  48.231  1.00  0.00     0.003 A 
HETATM   21  C13 UNL     1      22.526   2.642  47.949  1.00  0.00     0.012 A 
HETATM   22  C14 UNL     1      22.906   3.510  48.975  1.00  0.00    -0.024 A 
HETATM   23  C21 UNL     1      22.553   3.146  50.237  1.00  0.00     0.041 A 
BRANCH  22  24
HETATM   24  C15 UNL     1      23.650   4.727  48.645  1.00  0.00    -0.026 A 
HETATM   25  C16 UNL     1      22.983   5.664  47.885  1.00  0.00     0.012 A 
HETATM   26  C17 UNL     1      23.631   6.857  47.528  1.00  0.00     0.001 A 
HETATM   27  C18 UNL     1      24.927   6.975  47.998  1.00  0.00     0.000 A 
HETATM   28  C19 UNL     1      25.611   6.053  48.756  1.00  0.00     0.001 A 
HETATM   29  C20 UNL     1      24.947   4.895  49.087  1.00  0.00     0.012 A 
ENDBRANCH  22  24
ENDBRANCH  16  18
ENDBRANCH  12  16
TORSDOF 3
ENDMDL
MODEL 4
REMARK VINA RESULT:      -8.9      1.649      2.054
REMARK  3 active torsions:
REMARK  status: ('A' for Active; 'I' for Inactive)
REMARK    1  A    between atoms: C9_12  and  N2_13 
REMARK    2  A    between atoms: N2_13  and  C10_14 
REMARK    3  A    between atoms: C14_18  and  C15_19 
ROOT
HETATM    1  C1  UNL     1      25.691   2.340  52.222  1.00  0.00     0.138 C 
HETATM    2  C2  UNL     1      26.792   2.053  51.571  1.00  0.00     0.177 C 
HETATM    3  O1  UNL     1      26.248   0.825  51.752  1.00  0.00    -0.379 OA
HETATM    4  C3  UNL     1      26.586  -0.107  52.766  1.00  0.00     0.195 C 
HETATM    5  C4  UNL     1      25.512  -0.023  53.861  1.00  0.00     0.200 C 
HETATM    6  O2  UNL     1      24.244  -0.319  53.281  1.00  0.00    -0.360 OA
HETATM    7  C5  UNL     1      23.323   0.636  52.999  1.00  0.00     0.144 C 
HETATM    8  C6  UNL     1      22.707   1.795  52.729  1.00  0.00    -0.001 A 
HETATM    9  C7  UNL     1      21.267   1.505  52.563  1.00  0.00     0.090 A 
HETATM   10  C8  UNL     1      20.611   2.794  52.242  1.00  0.00     0.097 A 
HETATM   11  N1  UNL     1      21.179   3.961  52.131  1.00  0.00    -0.245 NA
HETATM   12  C9  UNL     1      22.598   4.091  52.327  1.00  0.00     0.154 A 
HETATM   13  C22 UNL     1      23.411   3.063  52.624  1.00  0.00     0.083 A 
HETATM   14  N3  UNL     1      24.797   3.227  52.815  1.00  0.00    -0.377 N 
HETATM   15  H21 UNL     1      24.861   4.081  53.460  1.00  0.00     0.160 HD
ENDROOT
BRANCH  12  16
HETATM   16  N2  UNL     1      23.153   5.383  52.203  1.00  0.00    -0.339 N 
HETATM   17  H11 UNL     1      23.280   6.070  52.998  1.00  0.00     0.167 HD
BRANCH  16  18
HETATM   18  C10 UNL     1      23.690   6.196  51.182  1.00  0.00     0.034 A 
HETATM   19  C11 UNL     1      22.922   7.265  50.732  1.00  0.00     0.029 A 
HETATM   20  C12 UNL     1      23.393   8.104  49.726  1.00  0.00     0.003 A 
HETATM   21  C13 UNL     1      24.650   7.869  49.163  1.00  0.00     0.012 A 
HETATM   22  C14 UNL     1      25.439   6.802  49.598  1.00  0.00    -0.024 A 
HETATM   23  C21 UNL     1      24.915   6.026  50.584  1.00  0.00     0.041 A 
BRANCH  22  24
HETATM   24  C15 UNL     1      26.748   6.581  48.982  1.00  0.00    -0.026 A 
HETATM   25  C16 UNL     1      27.434   7.707  48.580  1.00  0.00     0.012 A 
HETATM   26  C17 UNL     1      28.696   7.575  47.981  1.00  0.00     0.001 A 
HETATM   27  C18 UNL     1      29.142   6.272  47.851  1.00  0.00     0.000 A 
HETATM   28  C19 UNL     1      28.475   5.135  48.244  1.00  0.00     0.001 A 
HETATM   29  C20 UNL     1      27.240   5.300  48.827  1.00  0.00     0.012 A 
ENDBRANCH  22  24
ENDBRANCH  16  18
ENDBRANCH  12  16
TORSDOF 3
ENDMDL
MODEL 5
REMARK VINA RESULT:      -8.9      2.512      6.656
REMARK  3 active torsions:
REMARK  status: ('A' for Active; 'I' for Inactive)
REMARK    1  A    between atoms: C9_12  and  N2_13 
REMARK    2  A    between atoms: N2_13  and  C10_14 
REMARK    3  A    between atoms: C14_18  and  C15_19 
ROOT
HETATM    1  C1  UNL     1      24.353   3.231  50.504  1.00  0.00     0.138 C 
HETATM    2  C2  UNL     1      25.586   3.640  50.683  1.00  0.00     0.177 C 
HETATM    3  O1  UNL     1      24.957   4.793  50.348  1.00  0.00    -0.379 OA
HETATM    4  C3  UNL     1      24.928   5.395  49.064  1.00  0.00     0.195 C 
HETATM    5  C4  UNL     1      23.577   5.058  48.415  1.00  0.00     0.200 C 
HETATM    6  O2  UNL     1      22.532   5.555  49.248  1.00  0.00    -0.360 OA
HETATM    7  C5  UNL     1      21.786   4.753  50.048  1.00  0.00     0.144 C 
HETATM    8  C6  UNL     1      21.334   3.739  50.799  1.00  0.00    -0.001 A 
HETATM    9  C7  UNL     1      20.001   4.123  51.309  1.00  0.00     0.090 A 
HETATM   10  C8  UNL     1      19.533   2.999  52.155  1.00  0.00     0.097 A 
HETATM   11  N1  UNL     1      20.162   1.885  52.403  1.00  0.00    -0.245 NA
HETATM   12  C9  UNL     1      21.458   1.648  51.829  1.00  0.00     0.154 A 
HETATM   13  C22 UNL     1      22.095   2.520  51.028  1.00  0.00     0.083 A 
HETATM   14  N3  UNL     1      23.363   2.253  50.478  1.00  0.00    -0.377 N 
HETATM   15  H21 UNL     1      23.268   1.253  50.103  1.00  0.00     0.160 HD
ENDROOT
BRANCH  12  16
HETATM   16  N2  UNL     1      22.084   0.419  52.127  1.00  0.00    -0.339 N 
HETATM   17  H11 UNL     1      22.005  -0.462  51.544  1.00  0.00     0.167 HD
BRANCH  16  18
HETATM   18  C10 UNL     1      22.930  -0.108  53.125  1.00  0.00     0.034 A 
HETATM   19  C11 UNL     1      22.337  -0.683  54.244  1.00  0.00     0.029 A 
HETATM   20  C12 UNL     1      23.116  -1.219  55.265  1.00  0.00     0.003 A 
HETATM   21  C13 UNL     1      24.509  -1.178  55.165  1.00  0.00     0.012 A 
HETATM   22  C14 UNL     1      25.128  -0.606  54.051  1.00  0.00    -0.024 A 
HETATM   23  C21 UNL     1      24.304  -0.104  53.093  1.00  0.00     0.041 A 
BRANCH  22  24
HETATM   24  C15 UNL     1      26.590  -0.575  53.981  1.00  0.00    -0.026 A 
HETATM   25  C16 UNL     1      27.226   0.286  54.850  1.00  0.00     0.012 A 
HETATM   26  C17 UNL     1      28.626   0.372  54.842  1.00  0.00     0.001 A 
HETATM   27  C18 UNL     1      29.252  -0.453  53.924  1.00  0.00     0.000 A 
HETATM   28  C19 UNL     1      28.638  -1.319  53.049  1.00  0.00     0.001 A 
HETATM   29  C20 UNL     1      27.264  -1.377  53.082  1.00  0.00     0.012 A 
ENDBRANCH  22  24
ENDBRANCH  16  18
ENDBRANCH  12  16
TORSDOF 3
ENDMDL
MODEL 6
REMARK VINA RESULT:      -8.8      2.428      4.592
REMARK  3 active torsions:
REMARK  status: ('A' for Active; 'I' for Inactive)
REMARK    1  A    between atoms: C9_12  and  N2_13 
REMARK    2  A    between atoms: N2_13  and  C10_14 
REMARK    3  A    between atoms: C14_18  and  C15_19 
ROOT
HETATM    1  C1  UNL     1      22.402   2.894  51.163  1.00  0.00     0.138 C 
HETATM    2  C2  UNL     1      21.329   3.638  51.286  1.00  0.00     0.177 C 
HETATM    3  O1  UNL     1      21.280   2.891  52.416  1.00  0.00    -0.379 OA
HETATM    4  C3  UNL     1      20.508   1.719  52.619  1.00  0.00     0.195 C 
HETATM    5  C4  UNL     1      21.439   0.508  52.459  1.00  0.00     0.200 C 
HETATM    6  O2  UNL     1      22.493   0.611  53.414  1.00  0.00    -0.360 OA
HETATM    7  C5  UNL     1      23.751   0.995  53.083  1.00  0.00     0.144 C 
HETATM    8  C6  UNL     1      24.822   1.516  52.467  1.00  0.00    -0.001 A 
HETATM    9  C7  UNL     1      26.005   1.209  53.299  1.00  0.00     0.090 A 
HETATM   10  C8  UNL     1      27.171   1.814  52.613  1.00  0.00     0.097 A 
HETATM   11  N1  UNL     1      27.167   2.483  51.495  1.00  0.00    -0.245 NA
HETATM   12  C9  UNL     1      25.933   2.699  50.790  1.00  0.00     0.154 A 
HETATM   13  C22 UNL     1      24.739   2.249  51.214  1.00  0.00     0.083 A 
HETATM   14  N3  UNL     1      23.549   2.474  50.496  1.00  0.00    -0.377 N 
HETATM   15  H21 UNL     1      23.815   2.226  49.487  1.00  0.00     0.160 HD
ENDROOT
BRANCH  12  16
HETATM   16  N2  UNL     1      25.995   3.422  49.580  1.00  0.00    -0.339 N 
HETATM   17  H11 UNL     1      25.584   3.102  48.658  1.00  0.00     0.167 HD
BRANCH  16  18
HETATM   18  C10 UNL     1      26.518   4.648  49.121  1.00  0.00     0.034 A 
HETATM   19  C11 UNL     1      25.681   5.759  49.137  1.00  0.00     0.029 A 
HETATM   20  C12 UNL     1      26.136   6.998  48.696  1.00  0.00     0.003 A 
HETATM   21  C13 UNL     1      27.447   7.127  48.233  1.00  0.00     0.012 A 
HETATM   22  C14 UNL     1      28.308   6.027  48.207  1.00  0.00    -0.024 A 
HETATM   23  C21 UNL     1      27.795   4.850  48.654  1.00  0.00     0.041 A 
BRANCH  22  24
HETATM   24  C15 UNL     1      29.673   6.197  47.709  1.00  0.00    -0.026 A 
HETATM   25  C16 UNL     1      30.510   5.108  47.833  1.00  0.00     0.012 A 
HETATM   26  C17 UNL     1      31.834   5.194  47.378  1.00  0.00     0.001 A 
HETATM   27  C18 UNL     1      32.179   6.415  46.827  1.00  0.00     0.000 A 
HETATM   28  C19 UNL     1      31.362   7.514  46.695  1.00  0.00     0.001 A 
HETATM   29  C20 UNL     1      30.070   7.396  47.152  1.00  0.00     0.012 A 
ENDBRANCH  22  24
ENDBRANCH  16  18
ENDBRANCH  12  16
TORSDOF 3
ENDMDL
MODEL 7
REMARK VINA RESULT:      -8.7      3.891      8.149
REMARK  3 active torsions:
REMARK  status: ('A' for Active; 'I' for Inactive)
REMARK    1  A    between atoms: C9_12  and  N2_13 
REMARK    2  A    between atoms: N2_13  and  C10_14 
REMARK    3  A    between atoms: C14_18  and  C15_19 
ROOT
HETATM    1  C1  UNL     1      30.734   6.159  48.945  1.00  0.00     0.138 C 
HETATM    2  C2  UNL     1      31.783   6.269  49.724  1.00  0.00     0.177 C 
HETATM    3  O1  UNL     1      32.127   7.063  48.682  1.00  0.00    -0.379 OA
HETATM    4  C3  UNL     1      32.957   6.708  47.588  1.00  0.00     0.195 C 
HETATM    5  C4  UNL     1      32.050   6.385  46.392  1.00  0.00     0.200 C 
HETATM    6  O2  UNL     1      31.258   7.533  46.095  1.00  0.00    -0.360 OA
HETATM    7  C5  UNL     1      29.947   7.629  46.429  1.00  0.00     0.144 C 
HETATM    8  C6  UNL     1      28.745   7.466  46.997  1.00  0.00    -0.001 A 
HETATM    9  C7  UNL     1      27.809   8.399  46.335  1.00  0.00     0.090 A 
HETATM   10  C8  UNL     1      26.495   8.218  46.995  1.00  0.00     0.097 A 
HETATM   11  N1  UNL     1      26.207   7.397  47.966  1.00  0.00    -0.245 NA
HETATM   12  C9  UNL     1      27.226   6.541  48.509  1.00  0.00     0.154 A 
HETATM   13  C22 UNL     1      28.499   6.523  48.078  1.00  0.00     0.083 A 
HETATM   14  N3  UNL     1      29.471   5.667  48.629  1.00  0.00    -0.377 N 
HETATM   15  H21 UNL     1      28.974   4.717  48.670  1.00  0.00     0.160 HD
ENDROOT
BRANCH  12  16
HETATM   16  N2  UNL     1      26.850   5.667  49.551  1.00  0.00    -0.339 N 
HETATM   17  H11 UNL     1      27.317   5.615  50.500  1.00  0.00     0.167 HD
BRANCH  16  18
HETATM   18  C10 UNL     1      25.882   4.667  49.778  1.00  0.00     0.034 A 
HETATM   19  C11 UNL     1      24.660   4.785  49.124  1.00  0.00     0.029 A 
HETATM   20  C12 UNL     1      23.662   3.831  49.306  1.00  0.00     0.003 A 
HETATM   21  C13 UNL     1      23.890   2.746  50.156  1.00  0.00     0.012 A 
HETATM   22  C14 UNL     1      25.109   2.606  50.824  1.00  0.00    -0.024 A 
HETATM   23  C21 UNL     1      26.037   3.574  50.596  1.00  0.00     0.041 A 
BRANCH  22  24
HETATM   24  C15 UNL     1      25.312   1.460  51.711  1.00  0.00    -0.026 A 
HETATM   25  C16 UNL     1      26.547   0.850  51.651  1.00  0.00     0.012 A 
HETATM   26  C17 UNL     1      26.817  -0.255  52.472  1.00  0.00     0.001 A 
HETATM   27  C18 UNL     1      25.771  -0.634  53.295  1.00  0.00     0.000 A 
HETATM   28  C19 UNL     1      24.532  -0.041  53.371  1.00  0.00     0.001 A 
HETATM   29  C20 UNL     1      24.301   1.039  52.552  1.00  0.00     0.012 A 
ENDBRANCH  22  24
ENDBRANCH  16  18
ENDBRANCH  12  16
TORSDOF 3
ENDMDL
MODEL 8
REMARK VINA RESULT:      -8.7      2.101      3.589
REMARK  3 active torsions:
REMARK  status: ('A' for Active; 'I' for Inactive)
REMARK    1  A    between atoms: C9_12  and  N2_13 
REMARK    2  A    between atoms: N2_13  and  C10_14 
REMARK    3  A    between atoms: C14_18  and  C15_19 
ROOT
HETATM    1  C1  UNL     1      24.104   0.801  52.780  1.00  0.00     0.138 C 
HETATM    2  C2  UNL     1      24.870   0.011  53.494  1.00  0.00     0.177 C 
HETATM    3  O1  UNL     1      23.733  -0.719  53.395  1.00  0.00    -0.379 OA
HETATM    4  C3  UNL     1      22.704  -0.814  54.367  1.00  0.00     0.195 C 
HETATM    5  C4  UNL     1      21.555   0.106  53.927  1.00  0.00     0.200 C 
HETATM    6  O2  UNL     1      21.099  -0.312  52.643  1.00  0.00    -0.360 OA
HETATM    7  C5  UNL     1      21.407   0.353  51.501  1.00  0.00     0.144 C 
HETATM    8  C6  UNL     1      21.982   1.138  50.580  1.00  0.00    -0.001 A 
HETATM    9  C7  UNL     1      21.193   1.015  49.336  1.00  0.00     0.090 A 
HETATM   10  C8  UNL     1      21.861   1.869  48.326  1.00  0.00     0.097 A 
HETATM   11  N1  UNL     1      22.931   2.595  48.492  1.00  0.00    -0.245 NA
HETATM   12  C9  UNL     1      23.593   2.620  49.768  1.00  0.00     0.154 A 
HETATM   13  C22 UNL     1      23.178   1.924  50.841  1.00  0.00     0.083 A 
HETATM   14  N3  UNL     1      23.847   1.975  52.079  1.00  0.00    -0.377 N 
HETATM   15  H21 UNL     1      24.011   3.024  52.232  1.00  0.00     0.160 HD
ENDROOT
BRANCH  12  16
HETATM   16  N2  UNL     1      24.740   3.432  49.887  1.00  0.00    -0.339 N 
HETATM   17  H11 UNL     1      25.583   3.210  50.488  1.00  0.00     0.167 HD
BRANCH  16  18
HETATM   18  C10 UNL     1      25.210   4.658  49.373  1.00  0.00     0.034 A 
HETATM   19  C11 UNL     1      24.306   5.712  49.277  1.00  0.00     0.029 A 
HETATM   20  C12 UNL     1      24.706   6.948  48.776  1.00  0.00     0.003 A 
HETATM   21  C13 UNL     1      26.029   7.131  48.365  1.00  0.00     0.012 A 
HETATM   22  C14 UNL     1      26.954   6.089  48.452  1.00  0.00    -0.024 A 
HETATM   23  C21 UNL     1      26.493   4.911  48.952  1.00  0.00     0.041 A 
BRANCH  22  24
HETATM   24  C15 UNL     1      28.330   6.313  48.006  1.00  0.00    -0.026 A 
HETATM   25  C16 UNL     1      29.256   5.358  48.370  1.00  0.00     0.012 A 
HETATM   26  C17 UNL     1      30.595   5.505  47.980  1.00  0.00     0.001 A 
HETATM   27  C18 UNL     1      30.861   6.640  47.236  1.00  0.00     0.000 A 
HETATM   28  C19 UNL     1      29.954   7.605  46.862  1.00  0.00     0.001 A 
HETATM   29  C20 UNL     1      28.650   7.431  47.262  1.00  0.00     0.012 A 
ENDBRANCH  22  24
ENDBRANCH  16  18
ENDBRANCH  12  16
TORSDOF 3
ENDMDL
MODEL 9
REMARK VINA RESULT:      -8.7      3.766      6.700
REMARK  3 active torsions:
REMARK  status: ('A' for Active; 'I' for Inactive)
REMARK    1  A    between atoms: C9_12  and  N2_13 
REMARK    2  A    between atoms: N2_13  and  C10_14 
REMARK    3  A    between atoms: C14_18  and  C15_19 
ROOT
HETATM    1  C1  UNL     1      18.928   2.566  51.005  1.00  0.00     0.138 C 
HETATM    2  C2  UNL     1      18.138   3.592  50.802  1.00  0.00     0.177 C 
HETATM    3  O1  UNL     1      17.249   2.608  51.078  1.00  0.00    -0.379 OA
HETATM    4  C3  UNL     1      16.519   1.841  50.134  1.00  0.00     0.195 C 
HETATM    5  C4  UNL     1      17.217   0.481  49.992  1.00  0.00     0.200 C 
HETATM    6  O2  UNL     1      17.248  -0.154  51.268  1.00  0.00    -0.360 OA
HETATM    7  C5  UNL     1      18.368  -0.218  52.031  1.00  0.00     0.144 C 
HETATM    8  C6  UNL     1      19.572   0.001  52.576  1.00  0.00    -0.001 A 
HETATM    9  C7  UNL     1      19.763  -0.998  53.649  1.00  0.00     0.090 A 
HETATM   10  C8  UNL     1      21.088  -0.721  54.253  1.00  0.00     0.097 A 
HETATM   11  N1  UNL     1      21.930   0.213  53.911  1.00  0.00    -0.245 NA
HETATM   12  C9  UNL     1      21.607   1.114  52.838  1.00  0.00     0.154 A 
HETATM   13  C22 UNL     1      20.461   1.066  52.137  1.00  0.00     0.083 A 
HETATM   14  N3  UNL     1      20.179   1.961  51.088  1.00  0.00    -0.377 N 
HETATM   15  H21 UNL     1      21.084   1.965  50.512  1.00  0.00     0.160 HD
ENDROOT
BRANCH  12  16
HETATM   16  N2  UNL     1      22.563   2.098  52.508  1.00  0.00    -0.339 N 
HETATM   17  H11 UNL     1      22.407   3.144  52.567  1.00  0.00     0.167 HD
BRANCH  16  18
HETATM   18  C10 UNL     1      23.895   2.147  52.046  1.00  0.00     0.034 A 
HETATM   19  C11 UNL     1      24.187   3.011  50.995  1.00  0.00     0.029 A 
HETATM   20  C12 UNL     1      25.481   3.104  50.492  1.00  0.00     0.003 A 
HETATM   21  C13 UNL     1      26.497   2.322  51.048  1.00  0.00     0.012 A 
HETATM   22  C14 UNL     1      26.229   1.448  52.103  1.00  0.00    -0.024 A 
HETATM   23  C21 UNL     1      24.943   1.410  52.544  1.00  0.00     0.041 A 
BRANCH  22  24
HETATM   24  C15 UNL     1      27.315   0.639  52.657  1.00  0.00    -0.026 A 
HETATM   25  C16 UNL     1      28.372   1.329  53.211  1.00  0.00     0.012 A 
HETATM   26  C17 UNL     1      29.451   0.622  53.762  1.00  0.00     0.001 A 
HETATM   27  C18 UNL     1      29.338  -0.755  53.692  1.00  0.00     0.000 A 
HETATM   28  C19 UNL     1      28.294  -1.464  53.144  1.00  0.00     0.001 A 
HETATM   29  C20 UNL     1      27.253  -0.740  52.612  1.00  0.00     0.012 A 
ENDBRANCH  22  24
ENDBRANCH  16  18
ENDBRANCH  12  16
TORSDOF 3
ENDMDL
