MODEL 1
REMARK VINA RESULT:      -7.6      0.000      0.000
REMARK  8 active torsions:
REMARK  status: ('A' for Active; 'I' for Inactive)
REMARK    1  A    between atoms: C2_2  and  C3_3 
REMARK    2  A    between atoms: C2_2  and  C4_6 
REMARK    3  A    between atoms: C3_3  and  O2_5 
REMARK    4  A    between atoms: S1_8  and  C6_9 
REMARK    5  A    between atoms: C7_10  and  C8_11 
REMARK    6  A    between atoms: C8_11  and  C9_12 
REMARK    7  A    between atoms: C9_12  and  C10_13 
REMARK    8  A    between atoms: C10_13  and  O4_15 
ROOT
HETATM    1  C4  UNL     1      26.973   0.634  53.976  1.00  0.00     0.046 C 
HETATM    2  C5  UNL     1      26.157   1.728  53.330  1.00  0.00     0.030 C 
HETATM    3  S1  UNL     1      25.037   1.629  52.170  1.00  0.00    -0.106 SA
HETATM    4  S2  UNL     1      23.558   0.290  52.827  1.00  0.00    -0.080 SA
HETATM    5  C14 UNL     1      24.036  -0.534  54.374  1.00  0.00     0.200 C 
HETATM    6  N1  UNL     1      25.301  -1.144  54.359  1.00  0.00    -0.412 N 
HETATM    7  C15 UNL     1      26.344  -0.655  53.579  1.00  0.00     0.124 C 
HETATM    8  H19 UNL     1      25.361  -2.054  54.807  1.00  0.00     0.154 HD
ENDROOT
BRANCH   3   9
HETATM    9  C6  UNL     1      24.407   3.234  51.801  1.00  0.00    -0.008 A 
HETATM   10  C7  UNL     1      24.528   3.933  50.663  1.00  0.00    -0.045 A 
HETATM   11  C11 UNL     1      23.828   5.161  50.952  1.00  0.00     0.004 A 
HETATM   12  C12 UNL     1      23.314   5.222  52.168  1.00  0.00    -0.021 A 
HETATM   13  C13 UNL     1      23.638   3.952  52.864  1.00  0.00     0.074 A 
BRANCH  10  14
HETATM   14  C8  UNL     1      25.245   3.428  49.495  1.00  0.00     0.050 C 
BRANCH  14  15
HETATM   15  C9  UNL     1      26.742   3.564  49.552  1.00  0.00     0.114 C 
BRANCH  15  16
HETATM   16  C10 UNL     1      27.268   4.822  48.980  1.00  0.00     0.139 C 
HETATM   17  O3  UNL     1      26.625   5.750  48.430  1.00  0.00    -0.650 OA
BRANCH  16  18
HETATM   18  O4  UNL     1      28.621   5.150  48.982  1.00  0.00    -0.776 OA
HETATM   19  H12 UNL     1      29.336   4.513  48.639  1.00  0.00     0.167 HD
ENDBRANCH  16  18
ENDBRANCH  15  16
ENDBRANCH  14  15
ENDBRANCH  10  14
ENDBRANCH   3   9
BRANCH   1  20
HETATM   20  C2  UNL     1      28.389   0.754  53.460  1.00  0.00     0.089 C 
HETATM   21  C1  UNL     1      29.263  -0.417  53.906  1.00  0.00     0.022 C 
BRANCH  20  22
HETATM   22  C3  UNL     1      29.042   2.035  53.821  1.00  0.00     0.144 C 
HETATM   23  O1  UNL     1      29.375   2.250  55.017  1.00  0.00    -0.650 OA
BRANCH  22  24
HETATM   24  O2  UNL     1      29.364   3.102  53.002  1.00  0.00    -0.776 OA
HETATM   25  H5  UNL     1      30.029   3.024  52.222  1.00  0.00     0.167 HD
ENDBRANCH  22  24
ENDBRANCH  20  22
ENDBRANCH   1  20
TORSDOF 8
ENDMDL
MODEL 2
REMARK VINA RESULT:      -7.1      3.702      5.218
REMARK  8 active torsions:
REMARK  status: ('A' for Active; 'I' for Inactive)
REMARK    1  A    between atoms: C2_2  and  C3_3 
REMARK    2  A    between atoms: C2_2  and  C4_6 
REMARK    3  A    between atoms: C3_3  and  O2_5 
REMARK    4  A    between atoms: S1_8  and  C6_9 
REMARK    5  A    between atoms: C7_10  and  C8_11 
REMARK    6  A    between atoms: C8_11  and  C9_12 
REMARK    7  A    between atoms: C9_12  and  C10_13 
REMARK    8  A    between atoms: C10_13  and  O4_15 
ROOT
HETATM    1  C4  UNL     1      26.917  -0.020  52.425  1.00  0.00     0.046 C 
HETATM    2  C5  UNL     1      25.454  -0.231  52.734  1.00  0.00     0.030 C 
HETATM    3  S1  UNL     1      24.442   0.683  53.600  1.00  0.00    -0.106 SA
HETATM    4  S2  UNL     1      24.455   2.612  52.769  1.00  0.00    -0.080 SA
HETATM    5  C14 UNL     1      25.726   2.779  51.480  1.00  0.00     0.200 C 
HETATM    6  N1  UNL     1      27.019   2.383  51.862  1.00  0.00    -0.412 N 
HETATM    7  C15 UNL     1      27.232   1.383  52.806  1.00  0.00     0.124 C 
HETATM    8  H19 UNL     1      27.778   2.980  51.546  1.00  0.00     0.154 HD
ENDROOT
BRANCH   3   9
HETATM    9  C6  UNL     1      22.839  -0.052  53.626  1.00  0.00    -0.008 A 
HETATM   10  C7  UNL     1      21.876   0.022  52.696  1.00  0.00    -0.045 A 
HETATM   11  C11 UNL     1      20.804  -0.757  53.265  1.00  0.00     0.004 A 
HETATM   12  C12 UNL     1      21.076  -1.273  54.452  1.00  0.00    -0.021 A 
HETATM   13  C13 UNL     1      22.454  -0.866  54.821  1.00  0.00     0.074 A 
BRANCH  10  14
HETATM   14  C8  UNL     1      22.032   0.770  51.451  1.00  0.00     0.050 C 
BRANCH  14  15
HETATM   15  C9  UNL     1      20.851   1.613  51.056  1.00  0.00     0.114 C 
BRANCH  15  16
HETATM   16  C10 UNL     1      20.707   2.870  51.821  1.00  0.00     0.139 C 
HETATM   17  O3  UNL     1      20.017   3.073  52.851  1.00  0.00    -0.650 OA
BRANCH  16  18
HETATM   18  O4  UNL     1      21.355   4.051  51.472  1.00  0.00    -0.776 OA
HETATM   19  H12 UNL     1      21.363   4.867  52.079  1.00  0.00     0.167 HD
ENDBRANCH  16  18
ENDBRANCH  15  16
ENDBRANCH  14  15
ENDBRANCH  10  14
ENDBRANCH   3   9
BRANCH   1  20
HETATM   20  C2  UNL     1      27.705  -1.018  53.244  1.00  0.00     0.089 C 
HETATM   21  C1  UNL     1      29.153  -0.577  53.447  1.00  0.00     0.022 C 
BRANCH  20  22
HETATM   22  C3  UNL     1      27.671  -2.393  52.690  1.00  0.00     0.144 C 
HETATM   23  O1  UNL     1      26.792  -2.703  51.842  1.00  0.00    -0.650 OA
BRANCH  22  24
HETATM   24  O2  UNL     1      28.503  -3.460  52.975  1.00  0.00    -0.776 OA
HETATM   25  H5  UNL     1      28.754  -3.730  53.934  1.00  0.00     0.167 HD
ENDBRANCH  22  24
ENDBRANCH  20  22
ENDBRANCH   1  20
TORSDOF 8
ENDMDL
MODEL 3
REMARK VINA RESULT:      -7.1      3.696      5.725
REMARK  8 active torsions:
REMARK  status: ('A' for Active; 'I' for Inactive)
REMARK    1  A    between atoms: C2_2  and  C3_3 
REMARK    2  A    between atoms: C2_2  and  C4_6 
REMARK    3  A    between atoms: C3_3  and  O2_5 
REMARK    4  A    between atoms: S1_8  and  C6_9 
REMARK    5  A    between atoms: C7_10  and  C8_11 
REMARK    6  A    between atoms: C8_11  and  C9_12 
REMARK    7  A    between atoms: C9_12  and  C10_13 
REMARK    8  A    between atoms: C10_13  and  O4_15 
ROOT
HETATM    1  C4  UNL     1      26.550   0.566  52.240  1.00  0.00     0.046 C 
HETATM    2  C5  UNL     1      25.066   0.567  51.960  1.00  0.00     0.030 C 
HETATM    3  S1  UNL     1      23.959   1.703  52.266  1.00  0.00    -0.106 SA
HETATM    4  S2  UNL     1      24.595   3.476  51.335  1.00  0.00    -0.080 SA
HETATM    5  C14 UNL     1      26.269   3.311  50.648  1.00  0.00     0.200 C 
HETATM    6  N1  UNL     1      27.239   2.836  51.546  1.00  0.00    -0.412 N 
HETATM    7  C15 UNL     1      26.915   1.967  52.584  1.00  0.00     0.124 C 
HETATM    8  H19 UNL     1      28.145   3.292  51.504  1.00  0.00     0.154 HD
ENDROOT
BRANCH   3   9
HETATM    9  C6  UNL     1      22.372   1.162  51.721  1.00  0.00    -0.008 A 
HETATM   10  C7  UNL     1      21.353   0.700  52.460  1.00  0.00    -0.045 A 
HETATM   11  C11 UNL     1      20.337   0.409  51.478  1.00  0.00     0.004 A 
HETATM   12  C12 UNL     1      20.693   0.670  50.232  1.00  0.00    -0.021 A 
HETATM   13  C13 UNL     1      22.078   1.199  50.255  1.00  0.00     0.074 A 
BRANCH  10  14
HETATM   14  C8  UNL     1      21.422   0.572  53.913  1.00  0.00     0.050 C 
BRANCH  14  15
HETATM   15  C9  UNL     1      21.467  -0.840  54.432  1.00  0.00     0.114 C 
BRANCH  15  16
HETATM   16  C10 UNL     1      22.773  -1.251  54.988  1.00  0.00     0.139 C 
HETATM   17  O3  UNL     1      23.904  -0.756  54.753  1.00  0.00    -0.650 OA
BRANCH  16  18
HETATM   18  O4  UNL     1      22.919  -2.298  55.893  1.00  0.00    -0.776 OA
HETATM   19  H12 UNL     1      22.326  -3.125  55.868  1.00  0.00     0.167 HD
ENDBRANCH  16  18
ENDBRANCH  15  16
ENDBRANCH  14  15
ENDBRANCH  10  14
ENDBRANCH   3   9
BRANCH   1  20
HETATM   20  C2  UNL     1      26.798  -0.382  53.391  1.00  0.00     0.089 C 
HETATM   21  C1  UNL     1      27.493   0.309  54.563  1.00  0.00     0.022 C 
BRANCH  20  22
HETATM   22  C3  UNL     1      27.553  -1.597  53.003  1.00  0.00     0.144 C 
HETATM   23  O1  UNL     1      28.768  -1.704  53.321  1.00  0.00    -0.650 OA
BRANCH  22  24
HETATM   24  O2  UNL     1      27.110  -2.703  52.302  1.00  0.00    -0.776 OA
HETATM   25  H5  UNL     1      26.567  -3.459  52.738  1.00  0.00     0.167 HD
ENDBRANCH  22  24
ENDBRANCH  20  22
ENDBRANCH   1  20
TORSDOF 8
ENDMDL
MODEL 4
REMARK VINA RESULT:      -7.1      1.826      2.116
REMARK  8 active torsions:
REMARK  status: ('A' for Active; 'I' for Inactive)
REMARK    1  A    between atoms: C2_2  and  C3_3 
REMARK    2  A    between atoms: C2_2  and  C4_6 
REMARK    3  A    between atoms: C3_3  and  O2_5 
REMARK    4  A    between atoms: S1_8  and  C6_9 
REMARK    5  A    between atoms: C7_10  and  C8_11 
REMARK    6  A    between atoms: C8_11  and  C9_12 
REMARK    7  A    between atoms: C9_12  and  C10_13 
REMARK    8  A    between atoms: C10_13  and  O4_15 
ROOT
HETATM    1  C4  UNL     1      24.938   0.801  53.504  1.00  0.00     0.046 C 
HETATM    2  C5  UNL     1      24.148   1.799  52.690  1.00  0.00     0.030 C 
HETATM    3  S1  UNL     1      23.007   1.547  51.575  1.00  0.00    -0.106 SA
HETATM    4  S2  UNL     1      21.495   0.391  52.463  1.00  0.00    -0.080 SA
HETATM    5  C14 UNL     1      21.970  -0.178  54.122  1.00  0.00     0.200 C 
HETATM    6  N1  UNL     1      23.213  -0.827  54.198  1.00  0.00    -0.412 N 
HETATM    7  C15 UNL     1      24.260  -0.513  53.336  1.00  0.00     0.124 C 
HETATM    8  H19 UNL     1      23.250  -1.650  54.792  1.00  0.00     0.154 HD
ENDROOT
BRANCH   3   9
HETATM    9  C6  UNL     1      22.426   3.088  50.947  1.00  0.00    -0.008 A 
HETATM   10  C7  UNL     1      22.989   3.873  50.017  1.00  0.00    -0.045 A 
HETATM   11  C11 UNL     1      22.079   4.988  49.927  1.00  0.00     0.004 A 
HETATM   12  C12 UNL     1      21.034   4.904  50.733  1.00  0.00    -0.021 A 
HETATM   13  C13 UNL     1      21.146   3.637  51.496  1.00  0.00     0.074 A 
BRANCH  10  14
HETATM   14  C8  UNL     1      24.246   3.536  49.352  1.00  0.00     0.050 C 
BRANCH  14  15
HETATM   15  C9  UNL     1      25.286   4.623  49.357  1.00  0.00     0.114 C 
BRANCH  15  16
HETATM   16  C10 UNL     1      26.666   4.154  49.606  1.00  0.00     0.139 C 
HETATM   17  O3  UNL     1      27.665   4.254  48.850  1.00  0.00    -0.650 OA
BRANCH  16  18
HETATM   18  O4  UNL     1      27.050   3.507  50.776  1.00  0.00    -0.776 OA
HETATM   19  H12 UNL     1      26.396   2.968  51.339  1.00  0.00     0.167 HD
ENDBRANCH  16  18
ENDBRANCH  15  16
ENDBRANCH  14  15
ENDBRANCH  10  14
ENDBRANCH   3   9
BRANCH   1  20
HETATM   20  C2  UNL     1      26.349   0.782  52.960  1.00  0.00     0.089 C 
HETATM   21  C1  UNL     1      26.820  -0.634  52.639  1.00  0.00     0.022 C 
BRANCH  20  22
HETATM   22  C3  UNL     1      27.331   1.451  53.847  1.00  0.00     0.144 C 
HETATM   23  O1  UNL     1      27.817   0.822  54.825  1.00  0.00    -0.650 OA
BRANCH  22  24
HETATM   24  O2  UNL     1      27.832   2.737  53.768  1.00  0.00    -0.776 OA
HETATM   25  H5  UNL     1      27.348   3.493  53.267  1.00  0.00     0.167 HD
ENDBRANCH  22  24
ENDBRANCH  20  22
ENDBRANCH   1  20
TORSDOF 8
ENDMDL
MODEL 5
REMARK VINA RESULT:      -7.0      3.597      7.066
REMARK  8 active torsions:
REMARK  status: ('A' for Active; 'I' for Inactive)
REMARK    1  A    between atoms: C2_2  and  C3_3 
REMARK    2  A    between atoms: C2_2  and  C4_6 
REMARK    3  A    between atoms: C3_3  and  O2_5 
REMARK    4  A    between atoms: S1_8  and  C6_9 
REMARK    5  A    between atoms: C7_10  and  C8_11 
REMARK    6  A    between atoms: C8_11  and  C9_12 
REMARK    7  A    between atoms: C9_12  and  C10_13 
REMARK    8  A    between atoms: C10_13  and  O4_15 
ROOT
HETATM    1  C4  UNL     1      24.914   4.549  49.308  1.00  0.00     0.046 C 
HETATM    2  C5  UNL     1      25.210   3.364  50.197  1.00  0.00     0.030 C 
HETATM    3  S1  UNL     1      24.233   2.558  51.200  1.00  0.00    -0.106 SA
HETATM    4  S2  UNL     1      22.588   1.885  50.081  1.00  0.00    -0.080 SA
HETATM    5  C14 UNL     1      22.603   2.558  48.392  1.00  0.00     0.200 C 
HETATM    6  N1  UNL     1      22.735   3.953  48.307  1.00  0.00    -0.412 N 
HETATM    7  C15 UNL     1      23.433   4.685  49.263  1.00  0.00     0.124 C 
HETATM    8  H19 UNL     1      22.153   4.414  47.614  1.00  0.00     0.154 HD
ENDROOT
BRANCH   3   9
HETATM    9  C6  UNL     1      25.119   1.254  51.987  1.00  0.00    -0.008 A 
HETATM   10  C7  UNL     1      24.665   0.359  52.877  1.00  0.00    -0.045 A 
HETATM   11  C11 UNL     1      25.829  -0.441  53.168  1.00  0.00     0.004 A 
HETATM   12  C12 UNL     1      26.918  -0.075  52.513  1.00  0.00    -0.021 A 
HETATM   13  C13 UNL     1      26.568   1.084  51.657  1.00  0.00     0.074 A 
BRANCH  10  14
HETATM   14  C8  UNL     1      23.282   0.342  53.348  1.00  0.00     0.050 C 
BRANCH  14  15
HETATM   15  C9  UNL     1      22.613  -1.005  53.328  1.00  0.00     0.114 C 
BRANCH  15  16
HETATM   16  C10 UNL     1      22.070  -1.444  54.632  1.00  0.00     0.139 C 
HETATM   17  O3  UNL     1      22.706  -1.846  55.638  1.00  0.00    -0.650 OA
BRANCH  16  18
HETATM   18  O4  UNL     1      20.709  -1.466  54.919  1.00  0.00    -0.776 OA
HETATM   19  H12 UNL     1      20.343  -1.227  55.838  1.00  0.00     0.167 HD
ENDBRANCH  16  18
ENDBRANCH  15  16
ENDBRANCH  14  15
ENDBRANCH  10  14
ENDBRANCH   3   9
BRANCH   1  20
HETATM   20  C2  UNL     1      25.575   5.760  49.928  1.00  0.00     0.089 C 
HETATM   21  C1  UNL     1      24.551   6.778  50.426  1.00  0.00     0.022 C 
BRANCH  20  22
HETATM   22  C3  UNL     1      26.549   6.425  49.030  1.00  0.00     0.144 C 
HETATM   23  O1  UNL     1      26.134   7.125  48.068  1.00  0.00    -0.650 OA
BRANCH  22  24
HETATM   24  O2  UNL     1      27.930   6.396  49.081  1.00  0.00    -0.776 OA
HETATM   25  H5  UNL     1      28.477   5.541  48.920  1.00  0.00     0.167 HD
ENDBRANCH  22  24
ENDBRANCH  20  22
ENDBRANCH   1  20
TORSDOF 8
ENDMDL
MODEL 6
REMARK VINA RESULT:      -6.8      3.791      5.251
REMARK  8 active torsions:
REMARK  status: ('A' for Active; 'I' for Inactive)
REMARK    1  A    between atoms: C2_2  and  C3_3 
REMARK    2  A    between atoms: C2_2  and  C4_6 
REMARK    3  A    between atoms: C3_3  and  O2_5 
REMARK    4  A    between atoms: S1_8  and  C6_9 
REMARK    5  A    between atoms: C7_10  and  C8_11 
REMARK    6  A    between atoms: C8_11  and  C9_12 
REMARK    7  A    between atoms: C9_12  and  C10_13 
REMARK    8  A    between atoms: C10_13  and  O4_15 
ROOT
HETATM    1  C4  UNL     1      23.947  -0.338  53.264  1.00  0.00     0.046 C 
HETATM    2  C5  UNL     1      24.210   0.900  52.440  1.00  0.00     0.030 C 
HETATM    3  S1  UNL     1      25.327   2.050  52.636  1.00  0.00    -0.106 SA
HETATM    4  S2  UNL     1      27.207   1.113  52.658  1.00  0.00    -0.080 SA
HETATM    5  C14 UNL     1      27.056  -0.698  52.671  1.00  0.00     0.200 C 
HETATM    6  N1  UNL     1      26.219  -1.219  53.671  1.00  0.00    -0.412 N 
HETATM    7  C15 UNL     1      25.124  -0.510  54.157  1.00  0.00     0.124 C 
HETATM    8  H19 UNL     1      26.554  -2.056  54.139  1.00  0.00     0.154 HD
ENDROOT
BRANCH   3   9
HETATM    9  C6  UNL     1      25.171   3.265  51.368  1.00  0.00    -0.008 A 
HETATM   10  C7  UNL     1      24.318   4.299  51.308  1.00  0.00    -0.045 A 
HETATM   11  C11 UNL     1      24.646   4.927  50.051  1.00  0.00     0.004 A 
HETATM   12  C12 UNL     1      25.623   4.335  49.385  1.00  0.00    -0.021 A 
HETATM   13  C13 UNL     1      26.080   3.171  50.183  1.00  0.00     0.074 A 
BRANCH  10  14
HETATM   14  C8  UNL     1      23.337   4.578  52.353  1.00  0.00     0.050 C 
BRANCH  14  15
HETATM   15  C9  UNL     1      21.935   4.825  51.868  1.00  0.00     0.114 C 
BRANCH  15  16
HETATM   16  C10 UNL     1      21.095   3.612  51.762  1.00  0.00     0.139 C 
HETATM   17  O3  UNL     1      21.168   2.694  50.909  1.00  0.00    -0.650 OA
BRANCH  16  18
HETATM   18  O4  UNL     1      20.062   3.324  52.648  1.00  0.00    -0.776 OA
HETATM   19  H12 UNL     1      19.595   4.046  53.193  1.00  0.00     0.167 HD
ENDBRANCH  16  18
ENDBRANCH  15  16
ENDBRANCH  14  15
ENDBRANCH  10  14
ENDBRANCH   3   9
BRANCH   1  20
HETATM   20  C2  UNL     1      22.674  -0.104  54.046  1.00  0.00     0.089 C 
HETATM   21  C1  UNL     1      22.392  -1.234  55.034  1.00  0.00     0.022 C 
BRANCH  20  22
HETATM   22  C3  UNL     1      21.486   0.121  53.187  1.00  0.00     0.144 C 
HETATM   23  O1  UNL     1      20.452   0.646  53.679  1.00  0.00    -0.650 OA
BRANCH  22  24
HETATM   24  O2  UNL     1      21.321  -0.173  51.847  1.00  0.00    -0.776 OA
HETATM   25  H5  UNL     1      21.982   0.136  51.123  1.00  0.00     0.167 HD
ENDBRANCH  22  24
ENDBRANCH  20  22
ENDBRANCH   1  20
TORSDOF 8
ENDMDL
MODEL 7
REMARK VINA RESULT:      -6.8      4.135      6.256
REMARK  8 active torsions:
REMARK  status: ('A' for Active; 'I' for Inactive)
REMARK    1  A    between atoms: C2_2  and  C3_3 
REMARK    2  A    between atoms: C2_2  and  C4_6 
REMARK    3  A    between atoms: C3_3  and  O2_5 
REMARK    4  A    between atoms: S1_8  and  C6_9 
REMARK    5  A    between atoms: C7_10  and  C8_11 
REMARK    6  A    between atoms: C8_11  and  C9_12 
REMARK    7  A    between atoms: C9_12  and  C10_13 
REMARK    8  A    between atoms: C10_13  and  O4_15 
ROOT
HETATM    1  C4  UNL     1      20.311   0.224  51.811  1.00  0.00     0.046 C 
HETATM    2  C5  UNL     1      21.817   0.261  51.924  1.00  0.00     0.030 C 
HETATM    3  S1  UNL     1      22.747   0.556  53.212  1.00  0.00    -0.106 SA
HETATM    4  S2  UNL     1      22.214  -0.819  54.708  1.00  0.00    -0.080 SA
HETATM    5  C14 UNL     1      20.750  -1.789  54.240  1.00  0.00     0.200 C 
HETATM    6  N1  UNL     1      19.640  -1.033  53.829  1.00  0.00    -0.412 N 
HETATM    7  C15 UNL     1      19.783   0.201  53.201  1.00  0.00     0.124 C 
HETATM    8  H19 UNL     1      18.736  -1.350  54.168  1.00  0.00     0.154 HD
ENDROOT
BRANCH   3   9
HETATM    9  C6  UNL     1      24.448   0.466  52.760  1.00  0.00    -0.008 A 
HETATM   10  C7  UNL     1      25.166   1.347  52.047  1.00  0.00    -0.045 A 
HETATM   11  C11 UNL     1      26.474   0.742  51.993  1.00  0.00     0.004 A 
HETATM   12  C12 UNL     1      26.565  -0.418  52.622  1.00  0.00    -0.021 A 
HETATM   13  C13 UNL     1      25.235  -0.727  53.201  1.00  0.00     0.074 A 
BRANCH  10  14
HETATM   14  C8  UNL     1      24.599   2.581  51.509  1.00  0.00     0.050 C 
BRANCH  14  15
HETATM   15  C9  UNL     1      24.302   3.648  52.528  1.00  0.00     0.114 C 
BRANCH  15  16
HETATM   16  C10 UNL     1      23.575   4.821  51.998  1.00  0.00     0.139 C 
HETATM   17  O3  UNL     1      22.544   4.832  51.281  1.00  0.00    -0.650 OA
BRANCH  16  18
HETATM   18  O4  UNL     1      23.969   6.133  52.242  1.00  0.00    -0.776 OA
HETATM   19  H12 UNL     1      23.313   6.911  52.218  1.00  0.00     0.167 HD
ENDBRANCH  16  18
ENDBRANCH  15  16
ENDBRANCH  14  15
ENDBRANCH  10  14
ENDBRANCH   3   9
BRANCH   1  20
HETATM   20  C2  UNL     1      19.879   1.466  51.063  1.00  0.00     0.089 C 
HETATM   21  C1  UNL     1      20.899   1.881  50.005  1.00  0.00     0.022 C 
BRANCH  20  22
HETATM   22  C3  UNL     1      19.579   2.615  51.951  1.00  0.00     0.144 C 
HETATM   23  O1  UNL     1      18.392   3.022  52.063  1.00  0.00    -0.650 OA
BRANCH  22  24
HETATM   24  O2  UNL     1      20.450   3.360  52.724  1.00  0.00    -0.776 OA
HETATM   25  H5  UNL     1      21.468   3.351  52.582  1.00  0.00     0.167 HD
ENDBRANCH  22  24
ENDBRANCH  20  22
ENDBRANCH   1  20
TORSDOF 8
ENDMDL
MODEL 8
REMARK VINA RESULT:      -6.8      2.728      5.753
REMARK  8 active torsions:
REMARK  status: ('A' for Active; 'I' for Inactive)
REMARK    1  A    between atoms: C2_2  and  C3_3 
REMARK    2  A    between atoms: C2_2  and  C4_6 
REMARK    3  A    between atoms: C3_3  and  O2_5 
REMARK    4  A    between atoms: S1_8  and  C6_9 
REMARK    5  A    between atoms: C7_10  and  C8_11 
REMARK    6  A    between atoms: C8_11  and  C9_12 
REMARK    7  A    between atoms: C9_12  and  C10_13 
REMARK    8  A    between atoms: C10_13  and  O4_15 
ROOT
HETATM    1  C4  UNL     1      24.215   2.957  49.461  1.00  0.00     0.046 C 
HETATM    2  C5  UNL     1      23.883   2.057  50.628  1.00  0.00     0.030 C 
HETATM    3  S1  UNL     1      22.489   1.870  51.422  1.00  0.00    -0.106 SA
HETATM    4  S2  UNL     1      21.021   1.344  50.015  1.00  0.00    -0.080 SA
HETATM    5  C14 UNL     1      21.651   1.454  48.314  1.00  0.00     0.200 C 
HETATM    6  N1  UNL     1      22.257   2.677  47.980  1.00  0.00    -0.412 N 
HETATM    7  C15 UNL     1      22.917   3.452  48.928  1.00  0.00     0.124 C 
HETATM    8  H19 UNL     1      22.039   3.044  47.058  1.00  0.00     0.154 HD
ENDROOT
BRANCH   3   9
HETATM    9  C6  UNL     1      22.681   0.676  52.705  1.00  0.00    -0.008 A 
HETATM   10  C7  UNL     1      23.814   0.263  53.293  1.00  0.00    -0.045 A 
HETATM   11  C11 UNL     1      23.354  -0.717  54.247  1.00  0.00     0.004 A 
HETATM   12  C12 UNL     1      22.044  -0.897  54.254  1.00  0.00    -0.021 A 
HETATM   13  C13 UNL     1      21.454   0.007  53.237  1.00  0.00     0.074 A 
BRANCH  10  14
HETATM   14  C8  UNL     1      25.131   0.778  52.926  1.00  0.00     0.050 C 
BRANCH  14  15
HETATM   15  C9  UNL     1      25.626   1.927  53.761  1.00  0.00     0.114 C 
BRANCH  15  16
HETATM   16  C10 UNL     1      27.032   1.806  54.204  1.00  0.00     0.139 C 
HETATM   17  O3  UNL     1      27.582   0.831  54.774  1.00  0.00    -0.650 OA
BRANCH  16  18
HETATM   18  O4  UNL     1      27.972   2.818  54.034  1.00  0.00    -0.776 OA
HETATM   19  H12 UNL     1      28.880   2.651  53.607  1.00  0.00     0.167 HD
ENDBRANCH  16  18
ENDBRANCH  15  16
ENDBRANCH  14  15
ENDBRANCH  10  14
ENDBRANCH   3   9
BRANCH   1  20
HETATM   20  C2  UNL     1      25.078   4.083  49.984  1.00  0.00     0.089 C 
HETATM   21  C1  UNL     1      24.880   5.372  49.189  1.00  0.00     0.022 C 
BRANCH  20  22
HETATM   22  C3  UNL     1      26.520   3.743  50.041  1.00  0.00     0.144 C 
HETATM   23  O1  UNL     1      27.230   3.864  49.008  1.00  0.00    -0.650 OA
BRANCH  22  24
HETATM   24  O2  UNL     1      27.257   3.285  51.116  1.00  0.00    -0.776 OA
HETATM   25  H5  UNL     1      27.860   2.453  51.065  1.00  0.00     0.167 HD
ENDBRANCH  22  24
ENDBRANCH  20  22
ENDBRANCH   1  20
TORSDOF 8
ENDMDL
MODEL 9
REMARK VINA RESULT:      -6.8      3.056      3.691
REMARK  8 active torsions:
REMARK  status: ('A' for Active; 'I' for Inactive)
REMARK    1  A    between atoms: C2_2  and  C3_3 
REMARK    2  A    between atoms: C2_2  and  C4_6 
REMARK    3  A    between atoms: C3_3  and  O2_5 
REMARK    4  A    between atoms: S1_8  and  C6_9 
REMARK    5  A    between atoms: C7_10  and  C8_11 
REMARK    6  A    between atoms: C8_11  and  C9_12 
REMARK    7  A    between atoms: C9_12  and  C10_13 
REMARK    8  A    between atoms: C10_13  and  O4_15 
ROOT
HETATM    1  C4  UNL     1      26.839   0.549  54.107  1.00  0.00     0.046 C 
HETATM    2  C5  UNL     1      25.815   1.460  53.474  1.00  0.00     0.030 C 
HETATM    3  S1  UNL     1      24.573   1.101  52.505  1.00  0.00    -0.106 SA
HETATM    4  S2  UNL     1      23.372  -0.302  53.505  1.00  0.00    -0.080 SA
HETATM    5  C14 UNL     1      24.149  -0.875  55.046  1.00  0.00     0.200 C 
HETATM    6  N1  UNL     1      25.467  -1.342  54.912  1.00  0.00    -0.412 N 
HETATM    7  C15 UNL     1      26.329  -0.839  53.942  1.00  0.00     0.124 C 
HETATM    8  H19 UNL     1      25.698  -2.178  55.439  1.00  0.00     0.154 HD
ENDROOT
BRANCH   3   9
HETATM    9  C6  UNL     1      23.706   2.571  52.065  1.00  0.00    -0.008 A 
HETATM   10  C7  UNL     1      22.866   2.764  51.037  1.00  0.00    -0.045 A 
HETATM   11  C11 UNL     1      22.480   4.147  51.179  1.00  0.00     0.004 A 
HETATM   12  C12 UNL     1      23.031   4.762  52.212  1.00  0.00    -0.021 A 
HETATM   13  C13 UNL     1      23.901   3.787  52.913  1.00  0.00     0.074 A 
BRANCH  10  14
HETATM   14  C8  UNL     1      22.535   1.715  50.076  1.00  0.00     0.050 C 
BRANCH  14  15
HETATM   15  C9  UNL     1      21.424   0.790  50.493  1.00  0.00     0.114 C 
BRANCH  15  16
HETATM   16  C10 UNL     1      20.170   1.470  50.883  1.00  0.00     0.139 C 
HETATM   17  O3  UNL     1      19.671   1.574  52.031  1.00  0.00    -0.650 OA
BRANCH  16  18
HETATM   18  O4  UNL     1      19.340   2.115  49.970  1.00  0.00    -0.776 OA
HETATM   19  H12 UNL     1      19.498   3.076  49.676  1.00  0.00     0.167 HD
ENDBRANCH  16  18
ENDBRANCH  15  16
ENDBRANCH  14  15
ENDBRANCH  10  14
ENDBRANCH   3   9
BRANCH   1  20
HETATM   20  C2  UNL     1      28.149   0.759  53.381  1.00  0.00     0.089 C 
HETATM   21  C1  UNL     1      29.136  -0.378  53.639  1.00  0.00     0.022 C 
BRANCH  20  22
HETATM   22  C3  UNL     1      28.790   2.061  53.687  1.00  0.00     0.144 C 
HETATM   23  O1  UNL     1      29.264   2.268  54.836  1.00  0.00    -0.650 OA
BRANCH  22  24
HETATM   24  O2  UNL     1      28.961   3.155  52.860  1.00  0.00    -0.776 OA
HETATM   25  H5  UNL     1      29.588   3.936  53.091  1.00  0.00     0.167 HD
ENDBRANCH  22  24
ENDBRANCH  20  22
ENDBRANCH   1  20
TORSDOF 8
ENDMDL
