MODEL 1
REMARK VINA RESULT:      -8.3      0.000      0.000
REMARK  7 active torsions:
REMARK  status: ('A' for Active; 'I' for Inactive)
REMARK    1  A    between atoms: C5_5  and  C6_6 
REMARK    2  A    between atoms: N2_8  and  C7_9 
REMARK    3  A    between atoms: C7_9  and  S1_10 
REMARK    4  A    between atoms: S1_10  and  C8_11 
REMARK    5  A    between atoms: C9_12  and  N3_13 
REMARK    6  A    between atoms: C9_12  and  O1_14 
REMARK    7  A    between atoms: C10_15  and  C11_16 
ROOT
HETATM    1  C6  UNL     1      25.601   1.956  52.025  1.00  0.00     0.067 C 
HETATM    2  N1  UNL     1      25.988   0.749  51.747  1.00  0.00    -0.179 NA
HETATM    3  N2  UNL     1      25.793  -0.090  52.829  1.00  0.00    -0.286 N 
HETATM    4  C10 UNL     1      24.936   0.574  53.781  1.00  0.00     0.144 C 
HETATM    5  C17 UNL     1      25.082   2.031  53.404  1.00  0.00     0.093 C 
ENDROOT
BRANCH   3   6
HETATM    6  C7  UNL     1      26.393  -1.429  52.924  1.00  0.00     0.223 C 
BRANCH   6   7
HETATM    7  S1  UNL     1      28.196  -1.182  52.946  1.00  0.00    -0.116 SA
BRANCH   7   8
HETATM    8  C8  UNL     1      28.708  -0.015  54.159  1.00  0.00     0.101 C 
HETATM    9  C9  UNL     1      29.014   1.258  54.014  1.00  0.00     0.139 C 
BRANCH   9  10
HETATM   10  N3  UNL     1      29.395   1.940  55.200  1.00  0.00    -0.380 N 
HETATM   11  H9  UNL     1      30.217   2.554  54.993  1.00  0.00     0.158 HD
HETATM   12  H10 UNL     1      28.846   1.758  56.079  1.00  0.00     0.158 HD
ENDBRANCH   9  10
BRANCH   9  13
HETATM   13  O1  UNL     1      28.913   1.729  52.713  1.00  0.00    -0.346 OA
HETATM   14  H11 UNL     1      28.031   2.156  52.444  1.00  0.00     0.219 HD
ENDBRANCH   9  13
ENDBRANCH   7   8
ENDBRANCH   6   7
ENDBRANCH   3   6
BRANCH   4  15
HETATM   15  C11 UNL     1      23.532   0.099  53.736  1.00  0.00    -0.033 A 
HETATM   16  C12 UNL     1      23.023  -0.917  54.513  1.00  0.00     0.011 A 
HETATM   17  C13 UNL     1      21.708  -1.336  54.447  1.00  0.00     0.024 A 
HETATM   18  C14 UNL     1      20.828  -0.727  53.566  1.00  0.00     0.034 A 
HETATM   19 CL1  UNL     1      19.146  -1.165  53.388  1.00  0.00    -0.084 Cl
HETATM   20  C15 UNL     1      21.280   0.301  52.756  1.00  0.00     0.024 A 
HETATM   21  C16 UNL     1      22.596   0.668  52.873  1.00  0.00     0.011 A 
ENDBRANCH   4  15
BRANCH   1  22
HETATM   22  C5  UNL     1      25.693   3.053  51.062  1.00  0.00    -0.010 A 
HETATM   23  C4  UNL     1      24.705   4.040  51.085  1.00  0.00     0.014 A 
HETATM   24  C3  UNL     1      24.810   5.071  50.163  1.00  0.00     0.007 A 
HETATM   25  C2  UNL     1      25.846   5.131  49.255  1.00  0.00    -0.062 A 
HETATM   26  C1  UNL     1      25.794   6.311  48.344  1.00  0.00     0.048 C 
HETATM   27  C19 UNL     1      26.814   4.142  49.250  1.00  0.00     0.007 A 
HETATM   28  C18 UNL     1      26.711   3.130  50.156  1.00  0.00     0.014 A 
ENDBRANCH   1  22
TORSDOF 7
ENDMDL
MODEL 2
REMARK VINA RESULT:      -8.2      3.549      6.701
REMARK  7 active torsions:
REMARK  status: ('A' for Active; 'I' for Inactive)
REMARK    1  A    between atoms: C5_5  and  C6_6 
REMARK    2  A    between atoms: N2_8  and  C7_9 
REMARK    3  A    between atoms: C7_9  and  S1_10 
REMARK    4  A    between atoms: S1_10  and  C8_11 
REMARK    5  A    between atoms: C9_12  and  N3_13 
REMARK    6  A    between atoms: C9_12  and  O1_14 
REMARK    7  A    between atoms: C10_15  and  C11_16 
ROOT
HETATM    1  C6  UNL     1      23.325   1.801  52.060  1.00  0.00     0.067 C 
HETATM    2  N1  UNL     1      23.854   1.945  50.884  1.00  0.00    -0.179 NA
HETATM    3  N2  UNL     1      25.050   2.636  50.966  1.00  0.00    -0.286 N 
HETATM    4  C10 UNL     1      25.465   2.680  52.347  1.00  0.00     0.144 C 
HETATM    5  C17 UNL     1      24.176   2.422  53.093  1.00  0.00     0.093 C 
ENDROOT
BRANCH   3   6
HETATM    6  C7  UNL     1      25.730   3.204  49.793  1.00  0.00     0.223 C 
BRANCH   6   7
HETATM    7  S1  UNL     1      25.478   5.004  49.876  1.00  0.00    -0.116 SA
BRANCH   7   8
HETATM    8  C8  UNL     1      23.845   5.440  50.370  1.00  0.00     0.101 C 
HETATM    9  C9  UNL     1      23.450   6.140  51.413  1.00  0.00     0.139 C 
BRANCH   9  10
HETATM   10  N3  UNL     1      22.046   6.322  51.537  1.00  0.00    -0.380 N 
HETATM   11  H9  UNL     1      21.555   5.558  51.019  1.00  0.00     0.158 HD
HETATM   12  H10 UNL     1      21.697   7.145  52.093  1.00  0.00     0.158 HD
ENDBRANCH   9  10
BRANCH   9  13
HETATM   13  O1  UNL     1      24.479   6.589  52.229  1.00  0.00    -0.346 OA
HETATM   14  H11 UNL     1      24.847   7.517  52.038  1.00  0.00     0.219 HD
ENDBRANCH   9  13
ENDBRANCH   7   8
ENDBRANCH   6   7
ENDBRANCH   3   6
BRANCH   4  15
HETATM   15  C11 UNL     1      26.531   1.701  52.669  1.00  0.00    -0.033 A 
HETATM   16  C12 UNL     1      26.424   0.339  52.495  1.00  0.00     0.011 A 
HETATM   17  C13 UNL     1      27.438  -0.547  52.806  1.00  0.00     0.024 A 
HETATM   18  C14 UNL     1      28.636  -0.079  53.321  1.00  0.00     0.034 A 
HETATM   19 CL1  UNL     1      29.990  -1.096  53.753  1.00  0.00    -0.084 Cl
HETATM   20  C15 UNL     1      28.805   1.281  53.521  1.00  0.00     0.024 A 
HETATM   21  C16 UNL     1      27.760   2.105  53.191  1.00  0.00     0.011 A 
ENDBRANCH   4  15
BRANCH   1  22
HETATM   22  C5  UNL     1      22.054   1.108  52.270  1.00  0.00    -0.010 A 
HETATM   23  C4  UNL     1      21.774   0.610  53.545  1.00  0.00     0.014 A 
HETATM   24  C3  UNL     1      20.564  -0.045  53.724  1.00  0.00     0.007 A 
HETATM   25  C2  UNL     1      19.664  -0.202  52.690  1.00  0.00    -0.062 A 
HETATM   26  C1  UNL     1      18.419  -0.930  53.070  1.00  0.00     0.048 C 
HETATM   27  C19 UNL     1      19.963   0.300  51.436  1.00  0.00     0.007 A 
HETATM   28  C18 UNL     1      21.151   0.943  51.261  1.00  0.00     0.014 A 
ENDBRANCH   1  22
TORSDOF 7
ENDMDL
MODEL 3
REMARK VINA RESULT:      -8.2      1.434      1.912
REMARK  7 active torsions:
REMARK  status: ('A' for Active; 'I' for Inactive)
REMARK    1  A    between atoms: C5_5  and  C6_6 
REMARK    2  A    between atoms: N2_8  and  C7_9 
REMARK    3  A    between atoms: C7_9  and  S1_10 
REMARK    4  A    between atoms: S1_10  and  C8_11 
REMARK    5  A    between atoms: C9_12  and  N3_13 
REMARK    6  A    between atoms: C9_12  and  O1_14 
REMARK    7  A    between atoms: C10_15  and  C11_16 
ROOT
HETATM    1  C6  UNL     1      25.040   3.156  51.459  1.00  0.00     0.067 C 
HETATM    2  N1  UNL     1      25.491   1.939  51.480  1.00  0.00    -0.179 NA
HETATM    3  N2  UNL     1      24.885   1.209  52.487  1.00  0.00    -0.286 N 
HETATM    4  C10 UNL     1      23.734   1.940  52.959  1.00  0.00     0.144 C 
HETATM    5  C17 UNL     1      24.030   3.355  52.515  1.00  0.00     0.093 C 
ENDROOT
BRANCH   3   6
HETATM    6  C7  UNL     1      25.387  -0.094  52.947  1.00  0.00     0.223 C 
BRANCH   6   7
HETATM    7  S1  UNL     1      27.135  -0.174  52.450  1.00  0.00    -0.116 SA
BRANCH   7   8
HETATM    8  C8  UNL     1      28.207   0.619  53.600  1.00  0.00     0.101 C 
HETATM    9  C9  UNL     1      28.671   1.851  53.593  1.00  0.00     0.139 C 
BRANCH   9  10
HETATM   10  N3  UNL     1      29.526   2.194  54.675  1.00  0.00    -0.380 N 
HETATM   11  H9  UNL     1      28.947   2.560  55.465  1.00  0.00     0.158 HD
HETATM   12  H10 UNL     1      30.562   2.051  54.558  1.00  0.00     0.158 HD
ENDBRANCH   9  10
BRANCH   9  13
HETATM   13  O1  UNL     1      28.246   2.621  52.520  1.00  0.00    -0.346 OA
HETATM   14  H11 UNL     1      28.964   3.081  51.969  1.00  0.00     0.219 HD
ENDBRANCH   9  13
ENDBRANCH   7   8
ENDBRANCH   6   7
ENDBRANCH   3   6
BRANCH   4  15
HETATM   15  C11 UNL     1      22.451   1.419  52.429  1.00  0.00    -0.033 A 
HETATM   16  C12 UNL     1      22.118   1.368  51.094  1.00  0.00     0.011 A 
HETATM   17  C13 UNL     1      20.912   0.875  50.633  1.00  0.00     0.024 A 
HETATM   18  C14 UNL     1      19.966   0.401  51.529  1.00  0.00     0.034 A 
HETATM   19 CL1  UNL     1      18.408  -0.244  51.071  1.00  0.00    -0.084 Cl
HETATM   20  C15 UNL     1      20.242   0.427  52.885  1.00  0.00     0.024 A 
HETATM   21  C16 UNL     1      21.457   0.928  53.276  1.00  0.00     0.011 A 
ENDBRANCH   4  15
BRANCH   1  22
HETATM   22  C5  UNL     1      25.508   4.151  50.494  1.00  0.00    -0.010 A 
HETATM   23  C4  UNL     1      24.801   5.350  50.382  1.00  0.00     0.014 A 
HETATM   24  C3  UNL     1      25.261   6.280  49.461  1.00  0.00     0.007 A 
HETATM   25  C2  UNL     1      26.373   6.041  48.682  1.00  0.00    -0.062 A 
HETATM   26  C1  UNL     1      26.718   7.154  47.752  1.00  0.00     0.048 C 
HETATM   27  C19 UNL     1      27.059   4.846  48.810  1.00  0.00     0.007 A 
HETATM   28  C18 UNL     1      26.607   3.933  49.715  1.00  0.00     0.014 A 
ENDBRANCH   1  22
TORSDOF 7
ENDMDL
MODEL 4
REMARK VINA RESULT:      -7.8      3.179      5.363
REMARK  7 active torsions:
REMARK  status: ('A' for Active; 'I' for Inactive)
REMARK    1  A    between atoms: C5_5  and  C6_6 
REMARK    2  A    between atoms: N2_8  and  C7_9 
REMARK    3  A    between atoms: C7_9  and  S1_10 
REMARK    4  A    between atoms: S1_10  and  C8_11 
REMARK    5  A    between atoms: C9_12  and  N3_13 
REMARK    6  A    between atoms: C9_12  and  O1_14 
REMARK    7  A    between atoms: C10_15  and  C11_16 
ROOT
HETATM    1  C6  UNL     1      24.985   1.725  52.268  1.00  0.00     0.067 C 
HETATM    2  N1  UNL     1      24.508   2.727  52.941  1.00  0.00    -0.179 NA
HETATM    3  N2  UNL     1      23.328   3.179  52.377  1.00  0.00    -0.286 N 
HETATM    4  C10 UNL     1      22.858   2.192  51.435  1.00  0.00     0.144 C 
HETATM    5  C17 UNL     1      24.108   1.401  51.127  1.00  0.00     0.093 C 
ENDROOT
BRANCH   3   6
HETATM    6  C7  UNL     1      22.711   4.466  52.730  1.00  0.00     0.223 C 
BRANCH   6   7
HETATM    7  S1  UNL     1      22.667   5.450  51.200  1.00  0.00    -0.116 SA
BRANCH   7   8
HETATM    8  C8  UNL     1      24.272   5.887  50.625  1.00  0.00     0.101 C 
HETATM    9  C9  UNL     1      24.950   7.000  50.813  1.00  0.00     0.139 C 
BRANCH   9  10
HETATM   10  N3  UNL     1      26.237   7.048  50.213  1.00  0.00    -0.380 N 
HETATM   11  H9  UNL     1      26.936   6.632  50.869  1.00  0.00     0.158 HD
HETATM   12  H10 UNL     1      26.324   7.467  49.251  1.00  0.00     0.158 HD
ENDBRANCH   9  10
BRANCH   9  13
HETATM   13  O1  UNL     1      24.290   7.954  51.574  1.00  0.00    -0.346 OA
HETATM   14  H11 UNL     1      23.974   8.791  51.092  1.00  0.00     0.219 HD
ENDBRANCH   9  13
ENDBRANCH   7   8
ENDBRANCH   6   7
ENDBRANCH   3   6
BRANCH   4  15
HETATM   15  C11 UNL     1      21.755   1.356  51.965  1.00  0.00    -0.033 A 
HETATM   16  C12 UNL     1      21.708   0.836  53.239  1.00  0.00     0.011 A 
HETATM   17  C13 UNL     1      20.663   0.059  53.703  1.00  0.00     0.024 A 
HETATM   18  C14 UNL     1      19.593  -0.233  52.872  1.00  0.00     0.034 A 
HETATM   19 CL1  UNL     1      18.216  -1.203  53.339  1.00  0.00    -0.084 Cl
HETATM   20  C15 UNL     1      19.582   0.259  51.578  1.00  0.00     0.024 A 
HETATM   21  C16 UNL     1      20.649   1.024  51.182  1.00  0.00     0.011 A 
ENDBRANCH   4  15
BRANCH   1  22
HETATM   22  C5  UNL     1      26.227   1.049  52.641  1.00  0.00    -0.010 A 
HETATM   23  C4  UNL     1      27.306   1.829  53.063  1.00  0.00     0.014 A 
HETATM   24  C3  UNL     1      28.475   1.169  53.411  1.00  0.00     0.007 A 
HETATM   25  C2  UNL     1      28.579  -0.205  53.348  1.00  0.00    -0.062 A 
HETATM   26  C1  UNL     1      29.910  -0.736  53.761  1.00  0.00     0.048 C 
HETATM   27  C19 UNL     1      27.498  -0.958  52.927  1.00  0.00     0.007 A 
HETATM   28  C18 UNL     1      26.350  -0.309  52.585  1.00  0.00     0.014 A 
ENDBRANCH   1  22
TORSDOF 7
ENDMDL
MODEL 5
REMARK VINA RESULT:      -7.8      3.492      6.695
REMARK  7 active torsions:
REMARK  status: ('A' for Active; 'I' for Inactive)
REMARK    1  A    between atoms: C5_5  and  C6_6 
REMARK    2  A    between atoms: N2_8  and  C7_9 
REMARK    3  A    between atoms: C7_9  and  S1_10 
REMARK    4  A    between atoms: S1_10  and  C8_11 
REMARK    5  A    between atoms: C9_12  and  N3_13 
REMARK    6  A    between atoms: C9_12  and  O1_14 
REMARK    7  A    between atoms: C10_15  and  C11_16 
ROOT
HETATM    1  C6  UNL     1      23.544   1.639  52.408  1.00  0.00     0.067 C 
HETATM    2  N1  UNL     1      24.031   1.779  51.213  1.00  0.00    -0.179 NA
HETATM    3  N2  UNL     1      25.195   2.525  51.243  1.00  0.00    -0.286 N 
HETATM    4  C10 UNL     1      25.649   2.620  52.610  1.00  0.00     0.144 C 
HETATM    5  C17 UNL     1      24.396   2.321  53.400  1.00  0.00     0.093 C 
ENDROOT
BRANCH   3   6
HETATM    6  C7  UNL     1      25.813   3.096  50.037  1.00  0.00     0.223 C 
BRANCH   6   7
HETATM    7  S1  UNL     1      24.589   4.239  49.326  1.00  0.00    -0.116 SA
BRANCH   7   8
HETATM    8  C8  UNL     1      24.885   5.916  49.770  1.00  0.00     0.101 C 
HETATM    9  C9  UNL     1      24.679   6.523  50.920  1.00  0.00     0.139 C 
BRANCH   9  10
HETATM   10  N3  UNL     1      25.025   7.900  50.962  1.00  0.00    -0.380 N 
HETATM   11  H9  UNL     1      26.067   7.992  50.955  1.00  0.00     0.158 HD
HETATM   12  H10 UNL     1      24.249   8.609  50.996  1.00  0.00     0.158 HD
ENDBRANCH   9  10
BRANCH   9  13
HETATM   13  O1  UNL     1      24.152   5.710  51.913  1.00  0.00    -0.346 OA
HETATM   14  H11 UNL     1      23.480   6.133  52.548  1.00  0.00     0.219 HD
ENDBRANCH   9  13
ENDBRANCH   7   8
ENDBRANCH   6   7
ENDBRANCH   3   6
BRANCH   4  15
HETATM   15  C11 UNL     1      26.767   1.699  52.921  1.00  0.00    -0.033 A 
HETATM   16  C12 UNL     1      27.972   2.083  53.466  1.00  0.00     0.011 A 
HETATM   17  C13 UNL     1      28.995   1.196  53.744  1.00  0.00     0.024 A 
HETATM   18  C14 UNL     1      28.838  -0.153  53.474  1.00  0.00     0.034 A 
HETATM   19 CL1  UNL     1      30.054  -1.371  53.780  1.00  0.00    -0.084 Cl
HETATM   20  C15 UNL     1      27.649  -0.603  52.925  1.00  0.00     0.024 A 
HETATM   21  C16 UNL     1      26.674   0.329  52.674  1.00  0.00     0.011 A 
ENDBRANCH   4  15
BRANCH   1  22
HETATM   22  C5  UNL     1      22.313   0.893  52.672  1.00  0.00    -0.010 A 
HETATM   23  C4  UNL     1      21.256   1.017  51.768  1.00  0.00     0.014 A 
HETATM   24  C3  UNL     1      20.098   0.302  52.037  1.00  0.00     0.007 A 
HETATM   25  C2  UNL     1      19.985  -0.504  53.150  1.00  0.00    -0.062 A 
HETATM   26  C1  UNL     1      18.668  -1.194  53.273  1.00  0.00     0.048 C 
HETATM   27  C19 UNL     1      21.045  -0.612  54.033  1.00  0.00     0.007 A 
HETATM   28  C18 UNL     1      22.182   0.090  53.768  1.00  0.00     0.014 A 
ENDBRANCH   1  22
TORSDOF 7
ENDMDL
MODEL 6
REMARK VINA RESULT:      -7.6      3.646      6.752
REMARK  7 active torsions:
REMARK  status: ('A' for Active; 'I' for Inactive)
REMARK    1  A    between atoms: C5_5  and  C6_6 
REMARK    2  A    between atoms: N2_8  and  C7_9 
REMARK    3  A    between atoms: C7_9  and  S1_10 
REMARK    4  A    between atoms: S1_10  and  C8_11 
REMARK    5  A    between atoms: C9_12  and  N3_13 
REMARK    6  A    between atoms: C9_12  and  O1_14 
REMARK    7  A    between atoms: C10_15  and  C11_16 
ROOT
HETATM    1  C6  UNL     1      25.117   1.698  52.394  1.00  0.00     0.067 C 
HETATM    2  N1  UNL     1      24.339   1.419  51.394  1.00  0.00    -0.179 NA
HETATM    3  N2  UNL     1      23.300   2.329  51.312  1.00  0.00    -0.286 N 
HETATM    4  C10 UNL     1      23.609   3.460  52.154  1.00  0.00     0.144 C 
HETATM    5  C17 UNL     1      24.636   2.896  53.109  1.00  0.00     0.093 C 
ENDROOT
BRANCH   3   6
HETATM    6  C7  UNL     1      22.108   2.114  50.479  1.00  0.00     0.223 C 
BRANCH   6   7
HETATM    7  S1  UNL     1      21.437   0.491  50.954  1.00  0.00    -0.116 SA
BRANCH   7   8
HETATM    8  C8  UNL     1      20.911   0.437  52.633  1.00  0.00     0.101 C 
HETATM    9  C9  UNL     1      21.544  -0.028  53.690  1.00  0.00     0.139 C 
BRANCH   9  10
HETATM   10  N3  UNL     1      20.845   0.074  54.923  1.00  0.00    -0.380 N 
HETATM   11  H9  UNL     1      20.809  -0.869  55.374  1.00  0.00     0.158 HD
HETATM   12  H10 UNL     1      20.473   1.015  55.210  1.00  0.00     0.158 HD
ENDBRANCH   9  10
BRANCH   9  13
HETATM   13  O1  UNL     1      22.803  -0.547  53.425  1.00  0.00    -0.346 OA
HETATM   14  H11 UNL     1      23.446   0.045  52.906  1.00  0.00     0.219 HD
ENDBRANCH   9  13
ENDBRANCH   7   8
ENDBRANCH   6   7
ENDBRANCH   3   6
BRANCH   4  15
HETATM   15  C11 UNL     1      24.100   4.636  51.399  1.00  0.00    -0.033 A 
HETATM   16  C12 UNL     1      25.013   4.582  50.370  1.00  0.00     0.011 A 
HETATM   17  C13 UNL     1      25.451   5.700  49.685  1.00  0.00     0.024 A 
HETATM   18  C14 UNL     1      24.969   6.955  50.023  1.00  0.00     0.034 A 
HETATM   19 CL1  UNL     1      25.443   8.441  49.234  1.00  0.00    -0.084 Cl
HETATM   20  C15 UNL     1      24.048   7.076  51.050  1.00  0.00     0.024 A 
HETATM   21  C16 UNL     1      23.655   5.927  51.687  1.00  0.00     0.011 A 
ENDBRANCH   4  15
BRANCH   1  22
HETATM   22  C5  UNL     1      26.298   0.898  52.719  1.00  0.00    -0.010 A 
HETATM   23  C4  UNL     1      27.445   1.559  53.162  1.00  0.00     0.014 A 
HETATM   24  C3  UNL     1      28.555   0.782  53.464  1.00  0.00     0.007 A 
HETATM   25  C2  UNL     1      28.535  -0.591  53.337  1.00  0.00    -0.062 A 
HETATM   26  C1  UNL     1      29.817  -1.257  53.708  1.00  0.00     0.048 C 
HETATM   27  C19 UNL     1      27.387  -1.225  52.896  1.00  0.00     0.007 A 
HETATM   28  C18 UNL     1      26.298  -0.461  52.600  1.00  0.00     0.014 A 
ENDBRANCH   1  22
TORSDOF 7
ENDMDL
MODEL 7
REMARK VINA RESULT:      -7.4      3.530      5.496
REMARK  7 active torsions:
REMARK  status: ('A' for Active; 'I' for Inactive)
REMARK    1  A    between atoms: C5_5  and  C6_6 
REMARK    2  A    between atoms: N2_8  and  C7_9 
REMARK    3  A    between atoms: C7_9  and  S1_10 
REMARK    4  A    between atoms: S1_10  and  C8_11 
REMARK    5  A    between atoms: C9_12  and  N3_13 
REMARK    6  A    between atoms: C9_12  and  O1_14 
REMARK    7  A    between atoms: C10_15  and  C11_16 
ROOT
HETATM    1  C6  UNL     1      25.388   4.343  49.832  1.00  0.00     0.067 C 
HETATM    2  N1  UNL     1      24.566   4.722  50.763  1.00  0.00    -0.179 NA
HETATM    3  N2  UNL     1      23.916   3.633  51.316  1.00  0.00    -0.286 N 
HETATM    4  C10 UNL     1      24.599   2.429  50.905  1.00  0.00     0.144 C 
HETATM    5  C17 UNL     1      25.356   2.877  49.675  1.00  0.00     0.093 C 
ENDROOT
BRANCH   3   6
HETATM    6  C7  UNL     1      22.730   3.757  52.174  1.00  0.00     0.223 C 
BRANCH   6   7
HETATM    7  S1  UNL     1      21.564   2.472  51.626  1.00  0.00    -0.116 SA
BRANCH   7   8
HETATM    8  C8  UNL     1      20.866   1.570  52.967  1.00  0.00     0.101 C 
HETATM    9  C9  UNL     1      21.372   0.563  53.647  1.00  0.00     0.139 C 
BRANCH   9  10
HETATM   10  N3  UNL     1      20.552   0.044  54.685  1.00  0.00    -0.380 N 
HETATM   11  H9  UNL     1      20.955   0.322  55.610  1.00  0.00     0.158 HD
HETATM   12  H10 UNL     1      19.703  -0.516  54.417  1.00  0.00     0.158 HD
ENDBRANCH   9  10
BRANCH   9  13
HETATM   13  O1  UNL     1      22.638   0.169  53.236  1.00  0.00    -0.346 OA
HETATM   14  H11 UNL     1      22.963  -0.740  53.551  1.00  0.00     0.219 HD
ENDBRANCH   9  13
ENDBRANCH   7   8
ENDBRANCH   6   7
ENDBRANCH   3   6
BRANCH   4  15
HETATM   15  C11 UNL     1      25.478   1.866  51.958  1.00  0.00    -0.033 A 
HETATM   16  C12 UNL     1      25.511   2.297  53.265  1.00  0.00     0.011 A 
HETATM   17  C13 UNL     1      26.344   1.749  54.222  1.00  0.00     0.024 A 
HETATM   18  C14 UNL     1      27.202   0.715  53.887  1.00  0.00     0.034 A 
HETATM   19 CL1  UNL     1      28.301  -0.059  55.005  1.00  0.00    -0.084 Cl
HETATM   20  C15 UNL     1      27.217   0.237  52.587  1.00  0.00     0.024 A 
HETATM   21  C16 UNL     1      26.365   0.824  51.687  1.00  0.00     0.011 A 
ENDBRANCH   4  15
BRANCH   1  22
HETATM   22  C5  UNL     1      26.208   5.289  49.076  1.00  0.00    -0.010 A 
HETATM   23  C4  UNL     1      27.544   4.962  48.834  1.00  0.00     0.014 A 
HETATM   24  C3  UNL     1      28.306   5.872  48.115  1.00  0.00     0.007 A 
HETATM   25  C2  UNL     1      27.774   7.057  47.652  1.00  0.00    -0.062 A 
HETATM   26  C1  UNL     1      28.741   7.908  46.900  1.00  0.00     0.048 C 
HETATM   27  C19 UNL     1      26.447   7.361  47.904  1.00  0.00     0.007 A 
HETATM   28  C18 UNL     1      25.700   6.466  48.609  1.00  0.00     0.014 A 
ENDBRANCH   1  22
TORSDOF 7
ENDMDL
MODEL 8
REMARK VINA RESULT:      -7.3      3.849      7.091
REMARK  7 active torsions:
REMARK  status: ('A' for Active; 'I' for Inactive)
REMARK    1  A    between atoms: C5_5  and  C6_6 
REMARK    2  A    between atoms: N2_8  and  C7_9 
REMARK    3  A    between atoms: C7_9  and  S1_10 
REMARK    4  A    between atoms: S1_10  and  C8_11 
REMARK    5  A    between atoms: C9_12  and  N3_13 
REMARK    6  A    between atoms: C9_12  and  O1_14 
REMARK    7  A    between atoms: C10_15  and  C11_16 
ROOT
HETATM    1  C6  UNL     1      20.916   1.121  51.880  1.00  0.00     0.067 C 
HETATM    2  N1  UNL     1      21.406   1.383  50.708  1.00  0.00    -0.179 NA
HETATM    3  N2  UNL     1      22.555   2.147  50.816  1.00  0.00    -0.286 N 
HETATM    4  C10 UNL     1      22.999   2.121  52.189  1.00  0.00     0.144 C 
HETATM    5  C17 UNL     1      21.748   1.724  52.939  1.00  0.00     0.093 C 
ENDROOT
BRANCH   3   6
HETATM    6  C7  UNL     1      23.168   2.842  49.675  1.00  0.00     0.223 C 
BRANCH   6   7
HETATM    7  S1  UNL     1      22.652   4.582  49.798  1.00  0.00    -0.116 SA
BRANCH   7   8
HETATM    8  C8  UNL     1      24.014   5.686  49.959  1.00  0.00     0.101 C 
HETATM    9  C9  UNL     1      24.501   6.255  51.042  1.00  0.00     0.139 C 
BRANCH   9  10
HETATM   10  N3  UNL     1      25.621   7.105  50.842  1.00  0.00    -0.380 N 
HETATM   11  H9  UNL     1      26.331   6.917  51.587  1.00  0.00     0.158 HD
HETATM   12  H10 UNL     1      25.601   7.774  50.030  1.00  0.00     0.158 HD
ENDBRANCH   9  10
BRANCH   9  13
HETATM   13  O1  UNL     1      23.834   5.927  52.214  1.00  0.00    -0.346 OA
HETATM   14  H11 UNL     1      23.210   6.630  52.602  1.00  0.00     0.219 HD
ENDBRANCH   9  13
ENDBRANCH   7   8
ENDBRANCH   6   7
ENDBRANCH   3   6
BRANCH   4  15
HETATM   15  C11 UNL     1      24.135   1.197  52.420  1.00  0.00    -0.033 A 
HETATM   16  C12 UNL     1      24.076   0.060  53.195  1.00  0.00     0.011 A 
HETATM   17  C13 UNL     1      25.155  -0.781  53.389  1.00  0.00     0.024 A 
HETATM   18  C14 UNL     1      26.372  -0.500  52.790  1.00  0.00     0.034 A 
HETATM   19 CL1  UNL     1      27.807  -1.483  52.959  1.00  0.00    -0.084 Cl
HETATM   20  C15 UNL     1      26.496   0.629  51.999  1.00  0.00     0.024 A 
HETATM   21  C16 UNL     1      25.387   1.421  51.847  1.00  0.00     0.011 A 
ENDBRANCH   4  15
BRANCH   1  22
HETATM   22  C5  UNL     1      19.700   0.329  52.064  1.00  0.00    -0.010 A 
HETATM   23  C4  UNL     1      18.688   0.437  51.107  1.00  0.00     0.014 A 
HETATM   24  C3  UNL     1      17.542  -0.322  51.299  1.00  0.00     0.007 A 
HETATM   25  C2  UNL     1      17.398  -1.154  52.389  1.00  0.00    -0.062 A 
HETATM   26  C1  UNL     1      16.102  -1.890  52.428  1.00  0.00     0.048 C 
HETATM   27  C19 UNL     1      18.414  -1.245  53.325  1.00  0.00     0.007 A 
HETATM   28  C18 UNL     1      19.538  -0.500  53.135  1.00  0.00     0.014 A 
ENDBRANCH   1  22
TORSDOF 7
ENDMDL
MODEL 9
REMARK VINA RESULT:      -7.2      3.059      6.476
REMARK  7 active torsions:
REMARK  status: ('A' for Active; 'I' for Inactive)
REMARK    1  A    between atoms: C5_5  and  C6_6 
REMARK    2  A    between atoms: N2_8  and  C7_9 
REMARK    3  A    between atoms: C7_9  and  S1_10 
REMARK    4  A    between atoms: S1_10  and  C8_11 
REMARK    5  A    between atoms: C9_12  and  N3_13 
REMARK    6  A    between atoms: C9_12  and  O1_14 
REMARK    7  A    between atoms: C10_15  and  C11_16 
ROOT
HETATM    1  C6  UNL     1      22.042   0.856  51.978  1.00  0.00     0.067 C 
HETATM    2  N1  UNL     1      22.863   1.029  52.968  1.00  0.00    -0.179 NA
HETATM    3  N2  UNL     1      24.065   1.550  52.523  1.00  0.00    -0.286 N 
HETATM    4  C10 UNL     1      23.890   2.027  51.172  1.00  0.00     0.144 C 
HETATM    5  C17 UNL     1      22.663   1.275  50.708  1.00  0.00     0.093 C 
ENDROOT
BRANCH   3   6
HETATM    6  C7  UNL     1      25.281   1.581  53.348  1.00  0.00     0.223 C 
BRANCH   6   7
HETATM    7  S1  UNL     1      26.654   1.101  52.255  1.00  0.00    -0.116 SA
BRANCH   7   8
HETATM    8  C8  UNL     1      26.946  -0.635  52.250  1.00  0.00     0.101 C 
HETATM    9  C9  UNL     1      27.536  -1.383  53.158  1.00  0.00     0.139 C 
BRANCH   9  10
HETATM   10  N3  UNL     1      27.616  -2.769  52.859  1.00  0.00    -0.380 N 
HETATM   11  H9  UNL     1      26.775  -3.253  53.248  1.00  0.00     0.158 HD
HETATM   12  H10 UNL     1      28.453  -3.116  52.322  1.00  0.00     0.158 HD
ENDBRANCH   9  10
BRANCH   9  13
HETATM   13  O1  UNL     1      27.987  -0.688  54.272  1.00  0.00    -0.346 OA
HETATM   14  H11 UNL     1      27.702   0.284  54.356  1.00  0.00     0.219 HD
ENDBRANCH   9  13
ENDBRANCH   7   8
ENDBRANCH   6   7
ENDBRANCH   3   6
BRANCH   4  15
HETATM   15  C11 UNL     1      23.739   3.499  51.086  1.00  0.00    -0.033 A 
HETATM   16  C12 UNL     1      22.650   4.204  51.549  1.00  0.00     0.011 A 
HETATM   17  C13 UNL     1      22.541   5.578  51.453  1.00  0.00     0.024 A 
HETATM   18  C14 UNL     1      23.556   6.317  50.867  1.00  0.00     0.034 A 
HETATM   19 CL1  UNL     1      23.536   8.055  50.686  1.00  0.00    -0.084 Cl
HETATM   20  C15 UNL     1      24.678   5.666  50.381  1.00  0.00     0.024 A 
HETATM   21  C16 UNL     1      24.723   4.301  50.509  1.00  0.00     0.011 A 
ENDBRANCH   4  15
BRANCH   1  22
HETATM   22  C5  UNL     1      20.695   0.316  52.160  1.00  0.00    -0.010 A 
HETATM   23  C4  UNL     1      19.754   0.528  51.151  1.00  0.00     0.014 A 
HETATM   24  C3  UNL     1      18.482   0.008  51.342  1.00  0.00     0.007 A 
HETATM   25  C2  UNL     1      18.149  -0.694  52.481  1.00  0.00    -0.062 A 
HETATM   26  C1  UNL     1      16.738  -1.177  52.511  1.00  0.00     0.048 C 
HETATM   27  C19 UNL     1      19.098  -0.893  53.469  1.00  0.00     0.007 A 
HETATM   28  C18 UNL     1      20.347  -0.382  53.280  1.00  0.00     0.014 A 
ENDBRANCH   1  22
TORSDOF 7
ENDMDL
