MODEL 1
REMARK VINA RESULT:      -7.4      0.000      0.000
REMARK  5 active torsions:
REMARK  status: ('A' for Active; 'I' for Inactive)
REMARK    1  A    between atoms: C4_5  and  C5_6 
REMARK    2  A    between atoms: C5_6  and  N2_7 
REMARK    3  A    between atoms: N2_7  and  C6_8 
REMARK    4  A    between atoms: C10_13  and  O1_14 
REMARK    5  A    between atoms: O1_14  and  O2_15 
ROOT
HETATM    1  C1  UNL     1      20.690   0.686  51.964  1.00  0.00     0.064 C 
HETATM    2  C2  UNL     1      21.949   1.052  51.813  1.00  0.00     0.098 C 
HETATM    3  N1  UNL     1      22.877   0.355  52.634  1.00  0.00    -0.344 N 
HETATM    4  C3  UNL     1      24.271   0.664  52.860  1.00  0.00     0.044 C 
HETATM    5  C4  UNL     1      25.011  -0.390  53.186  1.00  0.00     0.031 C 
HETATM    6  C10 UNL     1      24.822   2.013  52.744  1.00  0.00     0.234 C 
HETATM    7  C11 UNL     1      24.587   2.496  51.335  1.00  0.00     0.041 C 
HETATM    8  C12 UNL     1      23.556   2.557  50.507  1.00  0.00     0.040 C 
HETATM    9  C13 UNL     1      23.822   3.147  49.146  1.00  0.00     0.328 C 
HETATM   10  N4  UNL     1      22.574   3.318  48.473  1.00  0.00     0.091 N 
HETATM   11  C14 UNL     1      22.247   2.237  47.594  1.00  0.00     0.310 C 
HETATM   12  C15 UNL     1      21.504   3.733  49.322  1.00  0.00     0.292 C 
HETATM   13  C16 UNL     1      21.020   2.631  50.273  1.00  0.00     0.160 C 
HETATM   14  N5  UNL     1      22.234   2.093  50.856  1.00  0.00    -0.334 N 
HETATM   15  H3  UNL     1      22.488  -0.490  53.130  1.00  0.00     0.167 HD
ENDROOT
BRANCH   5  16
HETATM   16  C5  UNL     1      26.402  -0.764  53.527  1.00  0.00     0.302 C 
BRANCH  16  17
HETATM   17  N2  UNL     1      26.789  -0.273  54.835  1.00  0.00     0.115 N 
HETATM   18  H7  UNL     1      26.353   0.643  55.074  1.00  0.00     0.319 HD
BRANCH  17  19
HETATM   19  C6  UNL     1      28.216  -0.133  54.973  1.00  0.00     0.365 A 
HETATM   20  C7  UNL     1      28.975  -0.662  53.834  1.00  0.00     0.033 A 
HETATM   21  C8  UNL     1      29.760   0.276  53.324  1.00  0.00     0.019 A 
HETATM   22  C9  UNL     1      29.518   1.449  54.137  1.00  0.00     0.113 A 
HETATM   23  N3  UNL     1      28.653   1.229  55.065  1.00  0.00    -0.263 NA
ENDBRANCH  17  19
ENDBRANCH  16  17
ENDBRANCH   5  16
BRANCH   6  24
HETATM   24  O1  UNL     1      26.147   2.161  53.034  1.00  0.00    -0.228 OA
BRANCH  24  25
HETATM   25  O2  UNL     1      26.205   2.727  54.241  1.00  0.00    -0.250 OA
HETATM   26  H13 UNL     1      26.007   3.693  54.210  1.00  0.00     0.253 HD
ENDBRANCH  24  25
ENDBRANCH   6  24
TORSDOF 5
ENDMDL
MODEL 2
REMARK VINA RESULT:      -7.0      2.143      3.229
REMARK  5 active torsions:
REMARK  status: ('A' for Active; 'I' for Inactive)
REMARK    1  A    between atoms: C4_5  and  C5_6 
REMARK    2  A    between atoms: C5_6  and  N2_7 
REMARK    3  A    between atoms: N2_7  and  C6_8 
REMARK    4  A    between atoms: C10_13  and  O1_14 
REMARK    5  A    between atoms: O1_14  and  O2_15 
ROOT
HETATM    1  C1  UNL     1      26.382   4.051  49.531  1.00  0.00     0.064 C 
HETATM    2  C2  UNL     1      25.667   3.511  50.499  1.00  0.00     0.098 C 
HETATM    3  N1  UNL     1      26.418   2.797  51.473  1.00  0.00    -0.344 N 
HETATM    4  C3  UNL     1      25.924   1.927  52.515  1.00  0.00     0.044 C 
HETATM    5  C4  UNL     1      26.723   1.845  53.574  1.00  0.00     0.031 C 
HETATM    6  C10 UNL     1      24.660   1.198  52.419  1.00  0.00     0.234 C 
HETATM    7  C11 UNL     1      23.550   2.205  52.256  1.00  0.00     0.041 C 
HETATM    8  C12 UNL     1      23.315   3.249  51.477  1.00  0.00     0.040 C 
HETATM    9  C13 UNL     1      22.011   3.972  51.698  1.00  0.00     0.328 C 
HETATM   10  N4  UNL     1      21.839   4.928  50.651  1.00  0.00     0.091 N 
HETATM   11  C14 UNL     1      22.267   6.247  51.007  1.00  0.00     0.310 C 
HETATM   12  C15 UNL     1      22.294   4.485  49.373  1.00  0.00     0.292 C 
HETATM   13  C16 UNL     1      23.822   4.407  49.265  1.00  0.00     0.160 C 
HETATM   14  N5  UNL     1      24.237   3.700  50.461  1.00  0.00    -0.334 N 
HETATM   15  H3  UNL     1      27.462   2.931  51.417  1.00  0.00     0.167 HD
ENDROOT
BRANCH   5  16
HETATM   16  C5  UNL     1      26.825   1.189  54.896  1.00  0.00     0.302 C 
BRANCH  16  17
HETATM   17  N2  UNL     1      27.139  -0.222  54.779  1.00  0.00     0.115 N 
HETATM   18  H7  UNL     1      27.611  -0.608  55.625  1.00  0.00     0.319 HD
BRANCH  17  19
HETATM   19  C6  UNL     1      27.971  -0.510  53.639  1.00  0.00     0.365 A 
HETATM   20  C7  UNL     1      29.408  -0.484  53.933  1.00  0.00     0.033 A 
HETATM   21  C8  UNL     1      29.970  -1.636  53.599  1.00  0.00     0.019 A 
HETATM   22  C9  UNL     1      28.890  -2.443  53.074  1.00  0.00     0.113 A 
HETATM   23  N3  UNL     1      27.763  -1.819  53.092  1.00  0.00    -0.263 NA
ENDBRANCH  17  19
ENDBRANCH  16  17
ENDBRANCH   5  16
BRANCH   6  24
HETATM   24  O1  UNL     1      24.346   0.376  53.461  1.00  0.00    -0.228 OA
BRANCH  24  25
HETATM   25  O2  UNL     1      24.654  -0.861  53.068  1.00  0.00    -0.250 OA
HETATM   26  H13 UNL     1      24.320  -1.059  52.160  1.00  0.00     0.253 HD
ENDBRANCH  24  25
ENDBRANCH   6  24
TORSDOF 5
ENDMDL
MODEL 3
REMARK VINA RESULT:      -6.9      2.825      6.509
REMARK  5 active torsions:
REMARK  status: ('A' for Active; 'I' for Inactive)
REMARK    1  A    between atoms: C4_5  and  C5_6 
REMARK    2  A    between atoms: C5_6  and  N2_7 
REMARK    3  A    between atoms: N2_7  and  C6_8 
REMARK    4  A    between atoms: C10_13  and  O1_14 
REMARK    5  A    between atoms: O1_14  and  O2_15 
ROOT
HETATM    1  C1  UNL     1      23.500  -0.532  53.604  1.00  0.00     0.064 C 
HETATM    2  C2  UNL     1      24.161   0.470  53.056  1.00  0.00     0.098 C 
HETATM    3  N1  UNL     1      23.362   1.589  52.697  1.00  0.00    -0.344 N 
HETATM    4  C3  UNL     1      23.740   2.732  51.897  1.00  0.00     0.044 C 
HETATM    5  C4  UNL     1      23.047   3.833  52.167  1.00  0.00     0.031 C 
HETATM    6  C10 UNL     1      24.789   2.687  50.879  1.00  0.00     0.234 C 
HETATM    7  C11 UNL     1      26.080   2.297  51.554  1.00  0.00     0.041 C 
HETATM    8  C12 UNL     1      26.473   1.343  52.384  1.00  0.00     0.040 C 
HETATM    9  C13 UNL     1      27.922   1.367  52.796  1.00  0.00     0.328 C 
HETATM   10  N4  UNL     1      28.208   0.167  53.517  1.00  0.00     0.091 N 
HETATM   11  C14 UNL     1      28.128   0.323  54.938  1.00  0.00     0.310 C 
HETATM   12  C15 UNL     1      27.546  -0.991  53.013  1.00  0.00     0.292 C 
HETATM   13  C16 UNL     1      26.037  -0.999  53.290  1.00  0.00     0.160 C 
HETATM   14  N5  UNL     1      25.586   0.320  52.888  1.00  0.00    -0.334 N 
HETATM   15  H3  UNL     1      22.376   1.571  53.068  1.00  0.00     0.167 HD
ENDROOT
BRANCH   5  16
HETATM   16  C5  UNL     1      22.923   5.249  51.758  1.00  0.00     0.302 C 
BRANCH  16  17
HETATM   17  N2  UNL     1      24.161   5.980  51.953  1.00  0.00     0.115 N 
HETATM   18  H7  UNL     1      24.319   6.260  52.945  1.00  0.00     0.319 HD
BRANCH  17  19
HETATM   19  C6  UNL     1      24.237   7.166  51.141  1.00  0.00     0.365 A 
HETATM   20  C7  UNL     1      25.541   7.359  50.496  1.00  0.00     0.033 A 
HETATM   21  C8  UNL     1      25.397   7.465  49.183  1.00  0.00     0.019 A 
HETATM   22  C9  UNL     1      23.974   7.340  48.950  1.00  0.00     0.113 A 
HETATM   23  N3  UNL     1      23.314   7.172  50.044  1.00  0.00    -0.263 NA
ENDBRANCH  17  19
ENDBRANCH  16  17
ENDBRANCH   5  16
BRANCH   6  24
HETATM   24  O1  UNL     1      25.004   3.831  50.169  1.00  0.00    -0.228 OA
BRANCH  24  25
HETATM   25  O2  UNL     1      26.246   4.224  50.458  1.00  0.00    -0.250 OA
HETATM   26  H13 UNL     1      26.261   5.065  50.975  1.00  0.00     0.253 HD
ENDBRANCH  24  25
ENDBRANCH   6  24
TORSDOF 5
ENDMDL
MODEL 4
REMARK VINA RESULT:      -6.7      1.962      3.161
REMARK  5 active torsions:
REMARK  status: ('A' for Active; 'I' for Inactive)
REMARK    1  A    between atoms: C4_5  and  C5_6 
REMARK    2  A    between atoms: C5_6  and  N2_7 
REMARK    3  A    between atoms: N2_7  and  C6_8 
REMARK    4  A    between atoms: C10_13  and  O1_14 
REMARK    5  A    between atoms: O1_14  and  O2_15 
ROOT
HETATM    1  C1  UNL     1      23.393   2.506  49.447  1.00  0.00     0.064 C 
HETATM    2  C2  UNL     1      23.219   1.948  50.631  1.00  0.00     0.098 C 
HETATM    3  N1  UNL     1      24.412   1.746  51.378  1.00  0.00    -0.344 N 
HETATM    4  C3  UNL     1      24.582   0.979  52.590  1.00  0.00     0.044 C 
HETATM    5  C4  UNL     1      25.592   1.389  53.351  1.00  0.00     0.031 C 
HETATM    6  C10 UNL     1      23.726  -0.150  52.952  1.00  0.00     0.234 C 
HETATM    7  C11 UNL     1      22.309   0.353  53.060  1.00  0.00     0.041 C 
HETATM    8  C12 UNL     1      21.493   1.076  52.309  1.00  0.00     0.040 C 
HETATM    9  C13 UNL     1      20.114   1.326  52.863  1.00  0.00     0.328 C 
HETATM   10  N4  UNL     1      19.320   1.939  51.846  1.00  0.00     0.091 N 
HETATM   11  C14 UNL     1      19.273   3.366  51.942  1.00  0.00     0.310 C 
HETATM   12  C15 UNL     1      19.569   1.443  50.531  1.00  0.00     0.292 C 
HETATM   13  C16 UNL     1      20.922   1.884  49.961  1.00  0.00     0.160 C 
HETATM   14  N5  UNL     1      21.872   1.614  51.023  1.00  0.00    -0.334 N 
HETATM   15  H3  UNL     1      25.268   2.223  50.989  1.00  0.00     0.167 HD
ENDROOT
BRANCH   5  16
HETATM   16  C5  UNL     1      26.277   1.080  54.625  1.00  0.00     0.302 C 
BRANCH  16  17
HETATM   17  N2  UNL     1      26.855  -0.249  54.622  1.00  0.00     0.115 N 
HETATM   18  H7  UNL     1      27.345  -0.485  55.512  1.00  0.00     0.319 HD
BRANCH  17  19
HETATM   19  C6  UNL     1      27.785  -0.445  53.540  1.00  0.00     0.365 A 
HETATM   20  C7  UNL     1      29.148   0.008  53.842  1.00  0.00     0.033 A 
HETATM   21  C8  UNL     1      30.013  -0.980  53.673  1.00  0.00     0.019 A 
HETATM   22  C9  UNL     1      29.214  -2.111  53.253  1.00  0.00     0.113 A 
HETATM   23  N3  UNL     1      27.961  -1.820  53.175  1.00  0.00    -0.263 NA
ENDBRANCH  17  19
ENDBRANCH  16  17
ENDBRANCH   5  16
BRANCH   6  24
HETATM   24  O1  UNL     1      24.037  -0.810  54.104  1.00  0.00    -0.228 OA
BRANCH  24  25
HETATM   25  O2  UNL     1      22.885  -0.997  54.751  1.00  0.00    -0.250 OA
HETATM   26  H13 UNL     1      22.102  -0.781  54.190  1.00  0.00     0.253 HD
ENDBRANCH  24  25
ENDBRANCH   6  24
TORSDOF 5
ENDMDL
MODEL 5
REMARK VINA RESULT:      -6.5      3.399      6.222
REMARK  5 active torsions:
REMARK  status: ('A' for Active; 'I' for Inactive)
REMARK    1  A    between atoms: C4_5  and  C5_6 
REMARK    2  A    between atoms: C5_6  and  N2_7 
REMARK    3  A    between atoms: N2_7  and  C6_8 
REMARK    4  A    between atoms: C10_13  and  O1_14 
REMARK    5  A    between atoms: O1_14  and  O2_15 
ROOT
HETATM    1  C1  UNL     1      24.634   0.283  52.851  1.00  0.00     0.064 C 
HETATM    2  C2  UNL     1      24.077   1.397  52.415  1.00  0.00     0.098 C 
HETATM    3  N1  UNL     1      24.955   2.275  51.721  1.00  0.00    -0.344 N 
HETATM    4  C3  UNL     1      24.710   3.641  51.319  1.00  0.00     0.044 C 
HETATM    5  C4  UNL     1      25.415   4.025  50.259  1.00  0.00     0.031 C 
HETATM    6  C10 UNL     1      23.776   4.526  52.011  1.00  0.00     0.234 C 
HETATM    7  C11 UNL     1      22.406   3.900  51.952  1.00  0.00     0.041 C 
HETATM    8  C12 UNL     1      21.888   2.710  52.213  1.00  0.00     0.040 C 
HETATM    9  C13 UNL     1      20.405   2.560  51.992  1.00  0.00     0.328 C 
HETATM   10  N4  UNL     1      19.995   1.294  52.510  1.00  0.00     0.091 N 
HETATM   11  C14 UNL     1      19.928   0.265  51.516  1.00  0.00     0.310 C 
HETATM   12  C15 UNL     1      20.660   0.910  53.712  1.00  0.00     0.292 C 
HETATM   13  C16 UNL     1      22.129   0.523  53.498  1.00  0.00     0.160 C 
HETATM   14  N5  UNL     1      22.673   1.593  52.684  1.00  0.00    -0.334 N 
HETATM   15  H3  UNL     1      25.893   1.864  51.476  1.00  0.00     0.167 HD
ENDROOT
BRANCH   5  16
HETATM   16  C5  UNL     1      25.638   5.196  49.384  1.00  0.00     0.302 C 
BRANCH  16  17
HETATM   17  N2  UNL     1      26.284   6.286  50.091  1.00  0.00     0.115 N 
HETATM   18  H7  UNL     1      25.937   6.402  51.068  1.00  0.00     0.319 HD
BRANCH  17  19
HETATM   19  C6  UNL     1      26.135   7.549  49.416  1.00  0.00     0.365 A 
HETATM   20  C7  UNL     1      25.683   7.427  48.025  1.00  0.00     0.033 A 
HETATM   21  C8  UNL     1      24.576   8.129  47.835  1.00  0.00     0.019 A 
HETATM   22  C9  UNL     1      24.287   8.729  49.120  1.00  0.00     0.113 A 
HETATM   23  N3  UNL     1      25.157   8.409  50.014  1.00  0.00    -0.263 NA
ENDBRANCH  17  19
ENDBRANCH  16  17
ENDBRANCH   5  16
BRANCH   6  24
HETATM   24  O1  UNL     1      23.685   5.805  51.547  1.00  0.00    -0.228 OA
BRANCH  24  25
HETATM   25  O2  UNL     1      24.337   6.570  52.424  1.00  0.00    -0.250 OA
HETATM   26  H13 UNL     1      25.172   6.940  52.049  1.00  0.00     0.253 HD
ENDBRANCH  24  25
ENDBRANCH   6  24
TORSDOF 5
ENDMDL
MODEL 6
REMARK VINA RESULT:      -6.5      2.719      3.862
REMARK  5 active torsions:
REMARK  status: ('A' for Active; 'I' for Inactive)
REMARK    1  A    between atoms: C4_5  and  C5_6 
REMARK    2  A    between atoms: C5_6  and  N2_7 
REMARK    3  A    between atoms: N2_7  and  C6_8 
REMARK    4  A    between atoms: C10_13  and  O1_14 
REMARK    5  A    between atoms: O1_14  and  O2_15 
ROOT
HETATM    1  C1  UNL     1      27.212   4.875  48.923  1.00  0.00     0.064 C 
HETATM    2  C2  UNL     1      26.219   4.502  49.708  1.00  0.00     0.098 C 
HETATM    3  N1  UNL     1      26.534   3.452  50.614  1.00  0.00    -0.344 N 
HETATM    4  C3  UNL     1      25.625   2.687  51.437  1.00  0.00     0.044 C 
HETATM    5  C4  UNL     1      26.181   2.194  52.539  1.00  0.00     0.031 C 
HETATM    6  C10 UNL     1      24.221   2.468  51.092  1.00  0.00     0.234 C 
HETATM    7  C11 UNL     1      23.548   3.813  50.997  1.00  0.00     0.041 C 
HETATM    8  C12 UNL     1      23.794   4.963  50.390  1.00  0.00     0.040 C 
HETATM    9  C13 UNL     1      22.787   6.064  50.602  1.00  0.00     0.328 C 
HETATM   10  N4  UNL     1      23.105   7.145  49.723  1.00  0.00     0.091 N 
HETATM   11  C14 UNL     1      23.887   8.172  50.341  1.00  0.00     0.310 C 
HETATM   12  C15 UNL     1      23.575   6.736  48.439  1.00  0.00     0.292 C 
HETATM   13  C16 UNL     1      24.987   6.140  48.470  1.00  0.00     0.160 C 
HETATM   14  N5  UNL     1      24.957   5.186  49.562  1.00  0.00    -0.334 N 
HETATM   15  H3  UNL     1      27.558   3.216  50.685  1.00  0.00     0.167 HD
ENDROOT
BRANCH   5  16
HETATM   16  C5  UNL     1      25.857   1.382  53.732  1.00  0.00     0.302 C 
BRANCH  16  17
HETATM   17  N2  UNL     1      25.753  -0.029  53.415  1.00  0.00     0.115 N 
HETATM   18  H7  UNL     1      24.852  -0.453  53.726  1.00  0.00     0.319 HD
BRANCH  17  19
HETATM   19  C6  UNL     1      26.825  -0.804  53.983  1.00  0.00     0.365 A 
HETATM   20  C7  UNL     1      27.810  -1.263  52.997  1.00  0.00     0.033 A 
HETATM   21  C8  UNL     1      29.026  -0.858  53.332  1.00  0.00     0.019 A 
HETATM   22  C9  UNL     1      28.848  -0.117  54.562  1.00  0.00     0.113 A 
HETATM   23  N3  UNL     1      27.615  -0.081  54.936  1.00  0.00    -0.263 NA
ENDBRANCH  17  19
ENDBRANCH  16  17
ENDBRANCH   5  16
BRANCH   6  24
HETATM   24  O1  UNL     1      23.497   1.683  51.942  1.00  0.00    -0.228 OA
BRANCH  24  25
HETATM   25  O2  UNL     1      22.621   2.491  52.542  1.00  0.00    -0.250 OA
HETATM   26  H13 UNL     1      22.989   3.394  52.695  1.00  0.00     0.253 HD
ENDBRANCH  24  25
ENDBRANCH   6  24
TORSDOF 5
ENDMDL
MODEL 7
REMARK VINA RESULT:      -6.4      8.116     10.806
REMARK  5 active torsions:
REMARK  status: ('A' for Active; 'I' for Inactive)
REMARK    1  A    between atoms: C4_5  and  C5_6 
REMARK    2  A    between atoms: C5_6  and  N2_7 
REMARK    3  A    between atoms: N2_7  and  C6_8 
REMARK    4  A    between atoms: C10_13  and  O1_14 
REMARK    5  A    between atoms: O1_14  and  O2_15 
ROOT
HETATM    1  C1  UNL     1      32.813   6.280  44.077  1.00  0.00     0.064 C 
HETATM    2  C2  UNL     1      32.516   6.264  45.363  1.00  0.00     0.098 C 
HETATM    3  N1  UNL     1      31.582   7.253  45.774  1.00  0.00    -0.344 N 
HETATM    4  C3  UNL     1      31.223   7.630  47.122  1.00  0.00     0.044 C 
HETATM    5  C4  UNL     1      29.999   8.136  47.233  1.00  0.00     0.031 C 
HETATM    6  C10 UNL     1      32.122   7.475  48.265  1.00  0.00     0.234 C 
HETATM    7  C11 UNL     1      32.463   6.012  48.397  1.00  0.00     0.041 C 
HETATM    8  C12 UNL     1      32.891   5.056  47.589  1.00  0.00     0.040 C 
HETATM    9  C13 UNL     1      33.095   3.696  48.207  1.00  0.00     0.328 C 
HETATM   10  N4  UNL     1      33.743   2.856  47.250  1.00  0.00     0.091 N 
HETATM   11  C14 UNL     1      32.837   2.034  46.506  1.00  0.00     0.310 C 
HETATM   12  C15 UNL     1      34.725   3.522  46.456  1.00  0.00     0.292 C 
HETATM   13  C16 UNL     1      34.122   4.490  45.431  1.00  0.00     0.160 C 
HETATM   14  N5  UNL     1      33.159   5.268  46.186  1.00  0.00    -0.334 N 
HETATM   15  H3  UNL     1      31.097   7.763  44.990  1.00  0.00     0.167 HD
ENDROOT
BRANCH   5  16
HETATM   16  C5  UNL     1      29.062   8.684  48.239  1.00  0.00     0.302 C 
BRANCH  16  17
HETATM   17  N2  UNL     1      28.516   7.647  49.092  1.00  0.00     0.115 N 
HETATM   18  H7  UNL     1      29.247   7.123  49.619  1.00  0.00     0.319 HD
BRANCH  17  19
HETATM   19  C6  UNL     1      27.726   6.689  48.362  1.00  0.00     0.365 A 
HETATM   20  C7  UNL     1      28.221   5.311  48.467  1.00  0.00     0.033 A 
HETATM   21  C8  UNL     1      27.271   4.511  48.927  1.00  0.00     0.019 A 
HETATM   22  C9  UNL     1      26.125   5.370  49.133  1.00  0.00     0.113 A 
HETATM   23  N3  UNL     1      26.370   6.595  48.818  1.00  0.00    -0.263 NA
ENDBRANCH  17  19
ENDBRANCH  16  17
ENDBRANCH   5  16
BRANCH   6  24
HETATM   24  O1  UNL     1      31.663   7.921  49.470  1.00  0.00    -0.228 OA
BRANCH  24  25
HETATM   25  O2  UNL     1      31.412   6.832  50.200  1.00  0.00    -0.250 OA
HETATM   26  H13 UNL     1      32.223   6.291  50.356  1.00  0.00     0.253 HD
ENDBRANCH  24  25
ENDBRANCH   6  24
TORSDOF 5
ENDMDL
MODEL 8
REMARK VINA RESULT:      -6.4      6.202      8.036
REMARK  5 active torsions:
REMARK  status: ('A' for Active; 'I' for Inactive)
REMARK    1  A    between atoms: C4_5  and  C5_6 
REMARK    2  A    between atoms: C5_6  and  N2_7 
REMARK    3  A    between atoms: N2_7  and  C6_8 
REMARK    4  A    between atoms: C10_13  and  O1_14 
REMARK    5  A    between atoms: O1_14  and  O2_15 
ROOT
HETATM    1  C1  UNL     1      26.500   3.466  49.658  1.00  0.00     0.064 C 
HETATM    2  C2  UNL     1      26.023   4.693  49.750  1.00  0.00     0.098 C 
HETATM    3  N1  UNL     1      26.713   5.664  48.973  1.00  0.00    -0.344 N 
HETATM    4  C3  UNL     1      26.576   7.102  49.023  1.00  0.00     0.044 C 
HETATM    5  C4  UNL     1      26.885   7.712  47.883  1.00  0.00     0.031 C 
HETATM    6  C10 UNL     1      26.142   7.826  50.216  1.00  0.00     0.234 C 
HETATM    7  C11 UNL     1      24.764   7.337  50.584  1.00  0.00     0.041 C 
HETATM    8  C12 UNL     1      24.184   6.161  50.761  1.00  0.00     0.040 C 
HETATM    9  C13 UNL     1      22.725   6.181  51.139  1.00  0.00     0.328 C 
HETATM   10  N4  UNL     1      22.327   4.852  51.482  1.00  0.00     0.091 N 
HETATM   11  C14 UNL     1      21.713   4.144  50.400  1.00  0.00     0.310 C 
HETATM   12  C15 UNL     1      23.319   4.108  52.187  1.00  0.00     0.292 C 
HETATM   13  C16 UNL     1      24.507   3.693  51.310  1.00  0.00     0.160 C 
HETATM   14  N5  UNL     1      24.881   4.905  50.607  1.00  0.00    -0.334 N 
HETATM   15  H3  UNL     1      27.403   5.272  48.280  1.00  0.00     0.167 HD
ENDROOT
BRANCH   5  16
HETATM   16  C5  UNL     1      26.962   9.060  47.279  1.00  0.00     0.302 C 
BRANCH  16  17
HETATM   17  N2  UNL     1      27.859   9.932  48.014  1.00  0.00     0.115 N 
HETATM   18  H7  UNL     1      27.910  10.895  47.617  1.00  0.00     0.319 HD
BRANCH  17  19
HETATM   19  C6  UNL     1      29.200   9.412  48.087  1.00  0.00     0.365 A 
HETATM   20  C7  UNL     1      30.204  10.273  47.453  1.00  0.00     0.033 A 
HETATM   21  C8  UNL     1      31.159  10.586  48.316  1.00  0.00     0.019 A 
HETATM   22  C9  UNL     1      30.784   9.922  49.546  1.00  0.00     0.113 A 
HETATM   23  N3  UNL     1      29.685   9.260  49.427  1.00  0.00    -0.263 NA
ENDBRANCH  17  19
ENDBRANCH  16  17
ENDBRANCH   5  16
BRANCH   6  24
HETATM   24  O1  UNL     1      26.107   9.187  50.128  1.00  0.00    -0.228 OA
BRANCH  24  25
HETATM   25  O2  UNL     1      27.045   9.640  50.962  1.00  0.00    -0.250 OA
HETATM   26  H13 UNL     1      26.720   9.700  51.892  1.00  0.00     0.253 HD
ENDBRANCH  24  25
ENDBRANCH   6  24
TORSDOF 5
ENDMDL
MODEL 9
REMARK VINA RESULT:      -6.1      4.585      6.361
REMARK  5 active torsions:
REMARK  status: ('A' for Active; 'I' for Inactive)
REMARK    1  A    between atoms: C4_5  and  C5_6 
REMARK    2  A    between atoms: C5_6  and  N2_7 
REMARK    3  A    between atoms: N2_7  and  C6_8 
REMARK    4  A    between atoms: C10_13  and  O1_14 
REMARK    5  A    between atoms: O1_14  and  O2_15 
ROOT
HETATM    1  C1  UNL     1      24.424   1.780  51.806  1.00  0.00     0.064 C 
HETATM    2  C2  UNL     1      24.420   2.900  51.106  1.00  0.00     0.098 C 
HETATM    3  N1  UNL     1      25.690   3.299  50.607  1.00  0.00    -0.344 N 
HETATM    4  C3  UNL     1      26.050   4.561  50.003  1.00  0.00     0.044 C 
HETATM    5  C4  UNL     1      27.074   4.482  49.159  1.00  0.00     0.031 C 
HETATM    6  C10 UNL     1      25.357   5.816  50.291  1.00  0.00     0.234 C 
HETATM    7  C11 UNL     1      23.909   5.651  49.904  1.00  0.00     0.041 C 
HETATM    8  C12 UNL     1      22.956   4.761  50.132  1.00  0.00     0.040 C 
HETATM    9  C13 UNL     1      21.613   5.040  49.507  1.00  0.00     0.328 C 
HETATM   10  N4  UNL     1      20.669   4.098  50.019  1.00  0.00     0.091 N 
HETATM   11  C14 UNL     1      20.478   2.963  49.168  1.00  0.00     0.310 C 
HETATM   12  C15 UNL     1      20.851   3.778  51.398  1.00  0.00     0.292 C 
HETATM   13  C16 UNL     1      22.092   2.917  51.664  1.00  0.00     0.160 C 
HETATM   14  N5  UNL     1      23.157   3.575  50.932  1.00  0.00    -0.334 N 
HETATM   15  H3  UNL     1      26.450   2.575  50.692  1.00  0.00     0.167 HD
ENDROOT
BRANCH   5  16
HETATM   16  C5  UNL     1      27.900   5.322  48.264  1.00  0.00     0.302 C 
BRANCH  16  17
HETATM   17  N2  UNL     1      28.777   6.206  49.007  1.00  0.00     0.115 N 
HETATM   18  H7  UNL     1      28.359   6.542  49.901  1.00  0.00     0.319 HD
BRANCH  17  19
HETATM   19  C6  UNL     1      29.174   7.361  48.244  1.00  0.00     0.365 A 
HETATM   20  C7  UNL     1      28.540   7.445  46.923  1.00  0.00     0.033 A 
HETATM   21  C8  UNL     1      27.901   8.597  46.788  1.00  0.00     0.019 A 
HETATM   22  C9  UNL     1      28.114   9.293  48.040  1.00  0.00     0.113 A 
HETATM   23  N3  UNL     1      28.828   8.606  48.863  1.00  0.00    -0.263 NA
ENDBRANCH  17  19
ENDBRANCH  16  17
ENDBRANCH   5  16
BRANCH   6  24
HETATM   24  O1  UNL     1      25.840   6.937  49.683  1.00  0.00    -0.228 OA
BRANCH  24  25
HETATM   25  O2  UNL     1      26.471   7.635  50.629  1.00  0.00    -0.250 OA
HETATM   26  H13 UNL     1      27.287   7.179  50.947  1.00  0.00     0.253 HD
ENDBRANCH  24  25
ENDBRANCH   6  24
TORSDOF 5
ENDMDL
