MODEL 1
REMARK VINA RESULT:      -8.3      0.000      0.000
REMARK  8 active torsions:
REMARK  status: ('A' for Active; 'I' for Inactive)
REMARK    1  A    between atoms: C2_2  and  C3_3 
REMARK       I    between atoms: C3_3  and  N1_5 
REMARK    2  A    between atoms: N1_5  and  C4_6 
REMARK    3  A    between atoms: N2_8  and  C6_9 
REMARK    4  A    between atoms: C6_9  and  C7_10 
REMARK    5  A    between atoms: C7_10  and  C8_11 
REMARK    6  A    between atoms: C8_11  and  C9_12 
REMARK    7  A    between atoms: C9_12  and  C10_13 
REMARK    8  A    between atoms: C16_21  and  O2_22 
ROOT
HETATM    1  C10 UNL     1      27.180   5.395  48.485  1.00  0.00     0.093 C 
HETATM    2  C11 UNL     1      28.592   5.379  48.429  1.00  0.00     0.087 C 
HETATM    3  N3  UNL     1      29.716   5.356  48.404  1.00  0.00    -0.192 NA
ENDROOT
BRANCH   1   4
HETATM    4  C9  UNL     1      26.198   5.400  49.290  1.00  0.00     0.011 C 
BRANCH   4   5
HETATM    5  C8  UNL     1      25.024   5.479  50.124  1.00  0.00    -0.002 C 
BRANCH   5   6
HETATM    6  C7  UNL     1      24.361   4.592  50.831  1.00  0.00    -0.007 C 
BRANCH   6   7
HETATM    7  C6  UNL     1      23.107   3.917  51.088  1.00  0.00     0.150 C 
BRANCH   7   8
HETATM    8  N2  UNL     1      23.032   2.547  50.592  1.00  0.00    -0.373 N 
HETATM    9  C5  UNL     1      24.105   1.882  51.298  1.00  0.00     0.117 C 
HETATM   10  C4  UNL     1      24.508   1.047  52.261  1.00  0.00     0.060 C 
HETATM   11  C23 UNL     1      23.542   0.358  53.090  1.00  0.00    -0.006 A 
HETATM   12  C22 UNL     1      23.577  -0.670  53.986  1.00  0.00     0.014 A 
HETATM   13  C24 UNL     1      22.224   0.682  52.952  1.00  0.00     0.043 A 
HETATM   14  C21 UNL     1      22.435  -1.183  54.559  1.00  0.00     0.003 A 
HETATM   15  C20 UNL     1      21.167  -0.741  54.306  1.00  0.00     0.029 A 
HETATM   16  C19 UNL     1      20.968   0.292  53.422  1.00  0.00     0.034 A 
HETATM   17  N5  UNL     1      19.834   0.971  52.818  1.00  0.00    -0.346 N 
HETATM   18  C15 UNL     1      20.347   1.433  51.514  1.00  0.00     0.103 C 
HETATM   19  H23 UNL     1      18.980   0.979  53.394  1.00  0.00     0.167 HD
HETATM   20  N4  UNL     1      21.112   0.474  50.763  1.00  0.00    -0.286 NA
HETATM   21  C16 UNL     1      20.149   2.690  51.147  1.00  0.00     0.085 C 
HETATM   22  C14 UNL     1      21.688   0.707  49.675  1.00  0.00     0.264 C 
HETATM   23  C12 UNL     1      22.033   2.171  49.620  1.00  0.00     0.053 C 
HETATM   24  C13 UNL     1      22.471   2.460  48.208  1.00  0.00     0.041 C 
HETATM   25  C18 UNL     1      20.738   2.950  49.834  1.00  0.00     0.100 C 
BRANCH  10  26
HETATM   26  N1  UNL     1      25.811   0.658  52.622  1.00  0.00    -0.325 N 
HETATM   27  C3  UNL     1      26.540   1.384  53.571  1.00  0.00     0.221 C 
HETATM   28  O1  UNL     1      26.118   2.407  54.167  1.00  0.00    -0.273 OA
HETATM   29  H6  UNL     1      26.155  -0.199  52.118  1.00  0.00     0.169 HD
BRANCH  27  30
HETATM   30  C2  UNL     1      27.908   0.863  53.857  1.00  0.00     0.098 C 
HETATM   31  C1  UNL     1      28.088  -0.575  53.493  1.00  0.00     0.014 C 
ENDBRANCH  27  30
ENDBRANCH  10  26
BRANCH  21  32
HETATM   32  O2  UNL     1      19.458   3.539  51.990  1.00  0.00    -0.357 OA
HETATM   33  C17 UNL     1      18.124   3.920  51.628  1.00  0.00     0.209 C 
ENDBRANCH  21  32
ENDBRANCH   7   8
ENDBRANCH   6   7
ENDBRANCH   5   6
ENDBRANCH   4   5
ENDBRANCH   1   4
TORSDOF 8
ENDMDL
MODEL 2
REMARK VINA RESULT:      -7.7      1.691      1.784
REMARK  8 active torsions:
REMARK  status: ('A' for Active; 'I' for Inactive)
REMARK    1  A    between atoms: C2_2  and  C3_3 
REMARK       I    between atoms: C3_3  and  N1_5 
REMARK    2  A    between atoms: N1_5  and  C4_6 
REMARK    3  A    between atoms: N2_8  and  C6_9 
REMARK    4  A    between atoms: C6_9  and  C7_10 
REMARK    5  A    between atoms: C7_10  and  C8_11 
REMARK    6  A    between atoms: C8_11  and  C9_12 
REMARK    7  A    between atoms: C9_12  and  C10_13 
REMARK    8  A    between atoms: C16_21  and  O2_22 
ROOT
HETATM    1  C10 UNL     1      25.935   7.707  49.920  1.00  0.00     0.093 C 
HETATM    2  C11 UNL     1      26.838   8.777  50.117  1.00  0.00     0.087 C 
HETATM    3  N3  UNL     1      27.549   9.629  50.294  1.00  0.00    -0.192 NA
ENDROOT
BRANCH   1   4
HETATM    4  C9  UNL     1      24.820   7.238  50.308  1.00  0.00     0.011 C 
BRANCH   4   5
HETATM    5  C8  UNL     1      23.618   6.618  50.809  1.00  0.00    -0.002 C 
BRANCH   5   6
HETATM    6  C7  UNL     1      23.393   5.699  51.720  1.00  0.00    -0.007 C 
BRANCH   6   7
HETATM    7  C6  UNL     1      22.660   4.514  52.112  1.00  0.00     0.150 C 
BRANCH   7   8
HETATM    8  N2  UNL     1      22.987   3.310  51.355  1.00  0.00    -0.373 N 
HETATM    9  C5  UNL     1      24.063   2.720  52.121  1.00  0.00     0.117 C 
HETATM   10  C4  UNL     1      24.495   1.779  52.965  1.00  0.00     0.060 C 
HETATM   11  C23 UNL     1      23.601   0.741  53.431  1.00  0.00    -0.006 A 
HETATM   12  C22 UNL     1      23.736  -0.442  54.099  1.00  0.00     0.014 A 
HETATM   13  C24 UNL     1      22.282   0.825  53.094  1.00  0.00     0.043 A 
HETATM   14  C21 UNL     1      22.671  -1.286  54.318  1.00  0.00     0.003 A 
HETATM   15  C20 UNL     1      21.390  -1.053  53.904  1.00  0.00     0.029 A 
HETATM   16  C19 UNL     1      21.094   0.099  53.215  1.00  0.00     0.034 A 
HETATM   17  N5  UNL     1      19.941   0.666  52.537  1.00  0.00    -0.346 N 
HETATM   18  C15 UNL     1      20.528   1.511  51.480  1.00  0.00     0.103 C 
HETATM   19  H23 UNL     1      19.030   0.372  52.918  1.00  0.00     0.167 HD
HETATM   20  N4  UNL     1      21.603   0.921  50.727  1.00  0.00    -0.286 NA
HETATM   21  C16 UNL     1      20.101   2.755  51.330  1.00  0.00     0.085 C 
HETATM   22  C14 UNL     1      22.270   1.509  49.845  1.00  0.00     0.264 C 
HETATM   23  C12 UNL     1      22.267   2.984  50.146  1.00  0.00     0.053 C 
HETATM   24  C13 UNL     1      22.839   3.674  48.936  1.00  0.00     0.041 C 
HETATM   25  C18 UNL     1      20.809   3.424  50.240  1.00  0.00     0.100 C 
BRANCH  10  26
HETATM   26  N1  UNL     1      25.781   1.577  53.500  1.00  0.00    -0.325 N 
HETATM   27  C3  UNL     1      26.770   0.918  52.761  1.00  0.00     0.221 C 
HETATM   28  O1  UNL     1      26.611   0.464  51.599  1.00  0.00    -0.273 OA
HETATM   29  H6  UNL     1      25.904   1.961  54.472  1.00  0.00     0.169 HD
BRANCH  27  30
HETATM   30  C2  UNL     1      28.085   0.771  53.448  1.00  0.00     0.098 C 
HETATM   31  C1  UNL     1      28.709   2.074  53.831  1.00  0.00     0.014 C 
ENDBRANCH  27  30
ENDBRANCH  10  26
BRANCH  21  32
HETATM   32  O2  UNL     1      19.107   3.233  52.164  1.00  0.00    -0.357 OA
HETATM   33  C17 UNL     1      17.850   3.603  51.583  1.00  0.00     0.209 C 
ENDBRANCH  21  32
ENDBRANCH   7   8
ENDBRANCH   6   7
ENDBRANCH   5   6
ENDBRANCH   4   5
ENDBRANCH   1   4
TORSDOF 8
ENDMDL
MODEL 3
REMARK VINA RESULT:      -6.7      2.768      6.086
REMARK  8 active torsions:
REMARK  status: ('A' for Active; 'I' for Inactive)
REMARK    1  A    between atoms: C2_2  and  C3_3 
REMARK       I    between atoms: C3_3  and  N1_5 
REMARK    2  A    between atoms: N1_5  and  C4_6 
REMARK    3  A    between atoms: N2_8  and  C6_9 
REMARK    4  A    between atoms: C6_9  and  C7_10 
REMARK    5  A    between atoms: C7_10  and  C8_11 
REMARK    6  A    between atoms: C8_11  and  C9_12 
REMARK    7  A    between atoms: C9_12  and  C10_13 
REMARK    8  A    between atoms: C16_21  and  O2_22 
ROOT
HETATM    1  C10 UNL     1      20.879   3.946  44.088  1.00  0.00     0.093 C 
HETATM    2  C11 UNL     1      20.179   3.428  42.974  1.00  0.00     0.087 C 
HETATM    3  N3  UNL     1      19.606   3.012  42.101  1.00  0.00    -0.192 NA
ENDROOT
BRANCH   1   4
HETATM    4  C9  UNL     1      20.968   3.871  45.353  1.00  0.00     0.011 C 
BRANCH   4   5
HETATM    5  C8  UNL     1      21.179   3.845  46.779  1.00  0.00    -0.002 C 
BRANCH   5   6
HETATM    6  C7  UNL     1      22.254   3.907  47.531  1.00  0.00    -0.007 C 
BRANCH   6   7
HETATM    7  C6  UNL     1      23.046   3.318  48.589  1.00  0.00     0.150 C 
BRANCH   7   8
HETATM    8  N2  UNL     1      22.576   3.603  49.941  1.00  0.00    -0.373 N 
HETATM    9  C5  UNL     1      21.737   2.464  50.246  1.00  0.00     0.117 C 
HETATM   10  C4  UNL     1      21.551   1.311  50.895  1.00  0.00     0.060 C 
HETATM   11  C23 UNL     1      22.559   0.804  51.801  1.00  0.00    -0.006 A 
HETATM   12  C22 UNL     1      22.624  -0.181  52.743  1.00  0.00     0.014 A 
HETATM   13  C24 UNL     1      23.752   1.461  51.872  1.00  0.00     0.043 A 
HETATM   14  C21 UNL     1      23.732  -0.362  53.539  1.00  0.00     0.003 A 
HETATM   15  C20 UNL     1      24.865   0.399  53.488  1.00  0.00     0.029 A 
HETATM   16  C19 UNL     1      24.952   1.434  52.587  1.00  0.00     0.034 A 
HETATM   17  N5  UNL     1      25.888   2.503  52.283  1.00  0.00    -0.346 N 
HETATM   18  C15 UNL     1      25.037   3.579  51.741  1.00  0.00     0.103 C 
HETATM   19  H23 UNL     1      26.873   2.288  52.499  1.00  0.00     0.167 HD
HETATM   20  N4  UNL     1      23.826   3.851  52.469  1.00  0.00    -0.286 NA
HETATM   21  C16 UNL     1      25.381   4.171  50.608  1.00  0.00     0.085 C 
HETATM   22  C14 UNL     1      22.948   4.673  52.121  1.00  0.00     0.264 C 
HETATM   23  C12 UNL     1      22.985   4.808  50.622  1.00  0.00     0.053 C 
HETATM   24  C13 UNL     1      22.115   5.987  50.272  1.00  0.00     0.041 C 
HETATM   25  C18 UNL     1      24.410   5.199  50.238  1.00  0.00     0.100 C 
BRANCH  10  26
HETATM   26  N1  UNL     1      20.441   0.445  50.882  1.00  0.00    -0.325 N 
HETATM   27  C3  UNL     1      19.294   0.739  51.629  1.00  0.00     0.221 C 
HETATM   28  O1  UNL     1      19.151   1.760  52.348  1.00  0.00    -0.273 OA
HETATM   29  H6  UNL     1      20.570  -0.406  50.277  1.00  0.00     0.169 HD
BRANCH  27  30
HETATM   30  C2  UNL     1      18.195  -0.264  51.526  1.00  0.00     0.098 C 
HETATM   31  C1  UNL     1      17.929  -0.993  52.803  1.00  0.00     0.014 C 
ENDBRANCH  27  30
ENDBRANCH  10  26
BRANCH  21  32
HETATM   32  O2  UNL     1      26.536   3.773  49.961  1.00  0.00    -0.357 OA
HETATM   33  C17 UNL     1      27.079   4.629  48.947  1.00  0.00     0.209 C 
ENDBRANCH  21  32
ENDBRANCH   7   8
ENDBRANCH   6   7
ENDBRANCH   5   6
ENDBRANCH   4   5
ENDBRANCH   1   4
TORSDOF 8
ENDMDL
MODEL 4
REMARK VINA RESULT:      -6.6      7.463     11.945
REMARK  8 active torsions:
REMARK  status: ('A' for Active; 'I' for Inactive)
REMARK    1  A    between atoms: C2_2  and  C3_3 
REMARK       I    between atoms: C3_3  and  N1_5 
REMARK    2  A    between atoms: N1_5  and  C4_6 
REMARK    3  A    between atoms: N2_8  and  C6_9 
REMARK    4  A    between atoms: C6_9  and  C7_10 
REMARK    5  A    between atoms: C7_10  and  C8_11 
REMARK    6  A    between atoms: C8_11  and  C9_12 
REMARK    7  A    between atoms: C9_12  and  C10_13 
REMARK    8  A    between atoms: C16_21  and  O2_22 
ROOT
HETATM    1  C10 UNL     1      25.494   7.325  48.427  1.00  0.00     0.093 C 
HETATM    2  C11 UNL     1      24.427   7.806  49.220  1.00  0.00     0.087 C 
HETATM    3  N3  UNL     1      23.591   8.187  49.868  1.00  0.00    -0.192 NA
ENDROOT
BRANCH   1   4
HETATM    4  C9  UNL     1      26.518   6.573  48.455  1.00  0.00     0.011 C 
BRANCH   4   5
HETATM    5  C8  UNL     1      27.749   5.823  48.498  1.00  0.00    -0.002 C 
BRANCH   5   6
HETATM    6  C7  UNL     1      28.975   6.085  48.107  1.00  0.00    -0.007 C 
BRANCH   6   7
HETATM    7  C6  UNL     1      29.875   6.975  47.407  1.00  0.00     0.150 C 
BRANCH   7   8
HETATM    8  N2  UNL     1      31.290   6.788  47.714  1.00  0.00    -0.373 N 
HETATM    9  C5  UNL     1      31.528   5.410  47.345  1.00  0.00     0.117 C 
HETATM   10  C4  UNL     1      32.044   4.517  46.494  1.00  0.00     0.060 C 
HETATM   11  C23 UNL     1      32.783   4.952  45.329  1.00  0.00    -0.006 A 
HETATM   12  C22 UNL     1      33.587   4.357  44.400  1.00  0.00     0.014 A 
HETATM   13  C24 UNL     1      32.825   6.287  45.051  1.00  0.00     0.043 A 
HETATM   14  C21 UNL     1      34.249   5.079  43.434  1.00  0.00     0.003 A 
HETATM   15  C20 UNL     1      34.187   6.437  43.291  1.00  0.00     0.029 A 
HETATM   16  C19 UNL     1      33.417   7.179  44.154  1.00  0.00     0.034 A 
HETATM   17  N5  UNL     1      33.162   8.586  44.409  1.00  0.00    -0.346 N 
HETATM   18  C15 UNL     1      32.838   8.636  45.847  1.00  0.00     0.103 C 
HETATM   19  H23 UNL     1      33.258   9.198  43.585  1.00  0.00     0.167 HD
HETATM   20  N4  UNL     1      33.703   7.880  46.714  1.00  0.00    -0.286 NA
HETATM   21  C16 UNL     1      31.759   9.291  46.248  1.00  0.00     0.085 C 
HETATM   22  C14 UNL     1      33.541   7.742  47.948  1.00  0.00     0.264 C 
HETATM   23  C12 UNL     1      32.073   7.872  48.257  1.00  0.00     0.053 C 
HETATM   24  C13 UNL     1      31.953   7.971  49.755  1.00  0.00     0.041 C 
HETATM   25  C18 UNL     1      31.611   9.216  47.700  1.00  0.00     0.100 C 
BRANCH  10  26
HETATM   26  N1  UNL     1      32.027   3.111  46.552  1.00  0.00    -0.325 N 
HETATM   27  C3  UNL     1      32.940   2.415  47.352  1.00  0.00     0.221 C 
HETATM   28  O1  UNL     1      33.823   2.956  48.067  1.00  0.00    -0.273 OA
HETATM   29  H6  UNL     1      31.285   2.668  45.952  1.00  0.00     0.169 HD
BRANCH  27  30
HETATM   30  C2  UNL     1      32.812   0.930  47.319  1.00  0.00     0.098 C 
HETATM   31  C1  UNL     1      31.719   0.443  46.424  1.00  0.00     0.014 C 
ENDBRANCH  27  30
ENDBRANCH  10  26
BRANCH  21  32
HETATM   32  O2  UNL     1      30.965   9.922  45.309  1.00  0.00    -0.357 OA
HETATM   33  C17 UNL     1      30.178  11.045  45.728  1.00  0.00     0.209 C 
ENDBRANCH  21  32
ENDBRANCH   7   8
ENDBRANCH   6   7
ENDBRANCH   5   6
ENDBRANCH   4   5
ENDBRANCH   1   4
TORSDOF 8
ENDMDL
MODEL 5
REMARK VINA RESULT:      -6.3      3.049      6.019
REMARK  8 active torsions:
REMARK  status: ('A' for Active; 'I' for Inactive)
REMARK    1  A    between atoms: C2_2  and  C3_3 
REMARK       I    between atoms: C3_3  and  N1_5 
REMARK    2  A    between atoms: N1_5  and  C4_6 
REMARK    3  A    between atoms: N2_8  and  C6_9 
REMARK    4  A    between atoms: C6_9  and  C7_10 
REMARK    5  A    between atoms: C7_10  and  C8_11 
REMARK    6  A    between atoms: C8_11  and  C9_12 
REMARK    7  A    between atoms: C9_12  and  C10_13 
REMARK    8  A    between atoms: C16_21  and  O2_22 
ROOT
HETATM    1  C10 UNL     1      22.560   6.942  44.023  1.00  0.00     0.093 C 
HETATM    2  C11 UNL     1      23.815   7.515  43.712  1.00  0.00     0.087 C 
HETATM    3  N3  UNL     1      24.822   7.958  43.480  1.00  0.00    -0.192 NA
ENDROOT
BRANCH   1   4
HETATM    4  C9  UNL     1      21.906   6.381  44.956  1.00  0.00     0.011 C 
BRANCH   4   5
HETATM    5  C8  UNL     1      21.227   5.639  45.989  1.00  0.00    -0.002 C 
BRANCH   5   6
HETATM    6  C7  UNL     1      21.645   4.854  46.957  1.00  0.00    -0.007 C 
BRANCH   6   7
HETATM    7  C6  UNL     1      22.709   4.491  47.867  1.00  0.00     0.150 C 
BRANCH   7   8
HETATM    8  N2  UNL     1      22.454   4.806  49.269  1.00  0.00    -0.373 N 
HETATM    9  C5  UNL     1      21.516   3.782  49.672  1.00  0.00     0.117 C 
HETATM   10  C4  UNL     1      21.260   2.649  50.334  1.00  0.00     0.060 C 
HETATM   11  C23 UNL     1      22.296   1.995  51.102  1.00  0.00    -0.006 A 
HETATM   12  C22 UNL     1      22.347   0.989  52.024  1.00  0.00     0.014 A 
HETATM   13  C24 UNL     1      23.566   2.487  51.025  1.00  0.00     0.043 A 
HETATM   14  C21 UNL     1      23.511   0.646  52.672  1.00  0.00     0.003 A 
HETATM   15  C20 UNL     1      24.720   1.252  52.481  1.00  0.00     0.029 A 
HETATM   16  C19 UNL     1      24.831   2.286  51.582  1.00  0.00     0.034 A 
HETATM   17  N5  UNL     1      25.857   3.228  51.167  1.00  0.00    -0.346 N 
HETATM   18  C15 UNL     1      25.096   4.419  50.742  1.00  0.00     0.103 C 
HETATM   19  H23 UNL     1      26.823   2.881  51.255  1.00  0.00     0.167 HD
HETATM   20  N4  UNL     1      24.033   4.832  51.619  1.00  0.00    -0.286 NA
HETATM   21  C16 UNL     1      25.372   4.985  49.577  1.00  0.00     0.085 C 
HETATM   22  C14 UNL     1      23.235   5.770  51.389  1.00  0.00     0.264 C 
HETATM   23  C12 UNL     1      23.103   5.932  49.899  1.00  0.00     0.053 C 
HETATM   24  C13 UNL     1      22.361   7.222  49.667  1.00  0.00     0.041 C 
HETATM   25  C18 UNL     1      24.508   6.140  49.340  1.00  0.00     0.100 C 
BRANCH  10  26
HETATM   26  N1  UNL     1      20.052   1.938  50.458  1.00  0.00    -0.325 N 
HETATM   27  C3  UNL     1      19.104   2.297  51.423  1.00  0.00     0.221 C 
HETATM   28  O1  UNL     1      19.235   3.249  52.234  1.00  0.00    -0.273 OA
HETATM   29  H6  UNL     1      19.952   1.144  49.774  1.00  0.00     0.169 HD
BRANCH  27  30
HETATM   30  C2  UNL     1      17.871   1.458  51.446  1.00  0.00     0.098 C 
HETATM   31  C1  UNL     1      18.100   0.045  51.018  1.00  0.00     0.014 C 
ENDBRANCH  27  30
ENDBRANCH  10  26
BRANCH  21  32
HETATM   32  O2  UNL     1      26.373   4.452  48.788  1.00  0.00    -0.357 OA
HETATM   33  C17 UNL     1      27.603   5.178  48.666  1.00  0.00     0.209 C 
ENDBRANCH  21  32
ENDBRANCH   7   8
ENDBRANCH   6   7
ENDBRANCH   5   6
ENDBRANCH   4   5
ENDBRANCH   1   4
TORSDOF 8
ENDMDL
MODEL 6
REMARK VINA RESULT:      -6.3      3.062      8.239
REMARK  8 active torsions:
REMARK  status: ('A' for Active; 'I' for Inactive)
REMARK    1  A    between atoms: C2_2  and  C3_3 
REMARK       I    between atoms: C3_3  and  N1_5 
REMARK    2  A    between atoms: N1_5  and  C4_6 
REMARK    3  A    between atoms: N2_8  and  C6_9 
REMARK    4  A    between atoms: C6_9  and  C7_10 
REMARK    5  A    between atoms: C7_10  and  C8_11 
REMARK    6  A    between atoms: C8_11  and  C9_12 
REMARK    7  A    between atoms: C9_12  and  C10_13 
REMARK    8  A    between atoms: C16_21  and  O2_22 
ROOT
HETATM    1  C10 UNL     1      18.759  -0.195  52.031  1.00  0.00     0.093 C 
HETATM    2  C11 UNL     1      18.211  -1.189  52.874  1.00  0.00     0.087 C 
HETATM    3  N3  UNL     1      17.762  -1.965  53.552  1.00  0.00    -0.192 NA
ENDROOT
BRANCH   1   4
HETATM    4  C9  UNL     1      18.969   1.055  51.943  1.00  0.00     0.011 C 
BRANCH   4   5
HETATM    5  C8  UNL     1      19.151   2.486  51.955  1.00  0.00    -0.002 C 
BRANCH   5   6
HETATM    6  C7  UNL     1      20.182   3.259  52.212  1.00  0.00    -0.007 C 
BRANCH   6   7
HETATM    7  C6  UNL     1      21.543   3.633  51.894  1.00  0.00     0.150 C 
BRANCH   7   8
HETATM    8  N2  UNL     1      21.784   3.948  50.490  1.00  0.00    -0.373 N 
HETATM    9  C5  UNL     1      21.284   5.300  50.364  1.00  0.00     0.117 C 
HETATM   10  C4  UNL     1      21.522   6.609  50.245  1.00  0.00     0.060 C 
HETATM   11  C23 UNL     1      22.878   7.107  50.157  1.00  0.00    -0.006 A 
HETATM   12  C22 UNL     1      23.466   8.297  49.839  1.00  0.00     0.014 A 
HETATM   13  C24 UNL     1      23.903   6.224  50.332  1.00  0.00     0.043 A 
HETATM   14  C21 UNL     1      24.832   8.437  49.745  1.00  0.00     0.003 A 
HETATM   15  C20 UNL     1      25.737   7.434  49.950  1.00  0.00     0.029 A 
HETATM   16  C19 UNL     1      25.297   6.174  50.279  1.00  0.00     0.034 A 
HETATM   17  N5  UNL     1      25.886   4.861  50.475  1.00  0.00    -0.346 N 
HETATM   18  C15 UNL     1      24.808   3.926  50.099  1.00  0.00     0.103 C 
HETATM   19  H23 UNL     1      26.861   4.870  50.809  1.00  0.00     0.167 HD
HETATM   20  N4  UNL     1      24.099   4.239  48.887  1.00  0.00    -0.286 NA
HETATM   21  C16 UNL     1      24.506   2.923  50.909  1.00  0.00     0.085 C 
HETATM   22  C14 UNL     1      23.109   3.607  48.450  1.00  0.00     0.264 C 
HETATM   23  C12 UNL     1      22.393   2.975  49.613  1.00  0.00     0.053 C 
HETATM   24  C13 UNL     1      21.385   2.018  49.033  1.00  0.00     0.041 C 
HETATM   25  C18 UNL     1      23.412   2.122  50.363  1.00  0.00     0.100 C 
BRANCH  10  26
HETATM   26  N1  UNL     1      20.613   7.679  50.145  1.00  0.00    -0.325 N 
HETATM   27  C3  UNL     1      19.881   7.891  48.971  1.00  0.00     0.221 C 
HETATM   28  O1  UNL     1      19.961   7.176  47.940  1.00  0.00    -0.273 OA
HETATM   29  H6  UNL     1      20.552   8.270  51.014  1.00  0.00     0.169 HD
BRANCH  27  30
HETATM   30  C2  UNL     1      18.956   9.060  49.001  1.00  0.00     0.098 C 
HETATM   31  C1  UNL     1      19.216  10.000  50.133  1.00  0.00     0.014 C 
ENDBRANCH  27  30
ENDBRANCH  10  26
BRANCH  21  32
HETATM   32  O2  UNL     1      25.215   2.768  52.085  1.00  0.00    -0.357 OA
HETATM   33  C17 UNL     1      24.501   2.845  53.326  1.00  0.00     0.209 C 
ENDBRANCH  21  32
ENDBRANCH   7   8
ENDBRANCH   6   7
ENDBRANCH   5   6
ENDBRANCH   4   5
ENDBRANCH   1   4
TORSDOF 8
ENDMDL
MODEL 7
REMARK VINA RESULT:      -6.2      7.437     10.720
REMARK  8 active torsions:
REMARK  status: ('A' for Active; 'I' for Inactive)
REMARK    1  A    between atoms: C2_2  and  C3_3 
REMARK       I    between atoms: C3_3  and  N1_5 
REMARK    2  A    between atoms: N1_5  and  C4_6 
REMARK    3  A    between atoms: N2_8  and  C6_9 
REMARK    4  A    between atoms: C6_9  and  C7_10 
REMARK    5  A    between atoms: C7_10  and  C8_11 
REMARK    6  A    between atoms: C8_11  and  C9_12 
REMARK    7  A    between atoms: C9_12  and  C10_13 
REMARK    8  A    between atoms: C16_21  and  O2_22 
ROOT
HETATM    1  C10 UNL     1      30.023  11.349  44.785  1.00  0.00     0.093 C 
HETATM    2  C11 UNL     1      30.033  12.674  45.278  1.00  0.00     0.087 C 
HETATM    3  N3  UNL     1      30.036  13.720  45.689  1.00  0.00    -0.192 NA
ENDROOT
BRANCH   1   4
HETATM    4  C9  UNL     1      29.487  10.209  44.955  1.00  0.00     0.011 C 
BRANCH   4   5
HETATM    5  C8  UNL     1      28.769   8.974  45.150  1.00  0.00    -0.002 C 
BRANCH   5   6
HETATM    6  C7  UNL     1      28.650   8.154  46.170  1.00  0.00    -0.007 C 
BRANCH   6   7
HETATM    7  C6  UNL     1      27.776   7.403  47.044  1.00  0.00     0.150 C 
BRANCH   7   8
HETATM    8  N2  UNL     1      27.799   7.817  48.443  1.00  0.00    -0.373 N 
HETATM    9  C5  UNL     1      29.211   7.976  48.717  1.00  0.00     0.117 C 
HETATM   10  C4  UNL     1      30.263   8.775  48.917  1.00  0.00     0.060 C 
HETATM   11  C23 UNL     1      30.105  10.213  48.928  1.00  0.00    -0.006 A 
HETATM   12  C22 UNL     1      30.874  11.281  49.286  1.00  0.00     0.014 A 
HETATM   13  C24 UNL     1      28.887  10.731  48.596  1.00  0.00     0.043 A 
HETATM   14  C21 UNL     1      30.392  12.570  49.273  1.00  0.00     0.003 A 
HETATM   15  C20 UNL     1      29.123  12.927  48.913  1.00  0.00     0.029 A 
HETATM   16  C19 UNL     1      28.226  11.960  48.526  1.00  0.00     0.034 A 
HETATM   17  N5  UNL     1      26.817  11.895  48.178  1.00  0.00    -0.346 N 
HETATM   18  C15 UNL     1      26.414  10.531  48.570  1.00  0.00     0.103 C 
HETATM   19  H23 UNL     1      26.435  12.758  47.763  1.00  0.00     0.167 HD
HETATM   20  N4  UNL     1      26.872  10.086  49.860  1.00  0.00    -0.286 NA
HETATM   21  C16 UNL     1      25.738   9.781  47.713  1.00  0.00     0.085 C 
HETATM   22  C14 UNL     1      26.694   8.939  50.329  1.00  0.00     0.264 C 
HETATM   23  C12 UNL     1      26.570   7.967  49.185  1.00  0.00     0.053 C 
HETATM   24  C13 UNL     1      26.093   6.665  49.773  1.00  0.00     0.041 C 
HETATM   25  C18 UNL     1      25.444   8.469  48.286  1.00  0.00     0.100 C 
BRANCH  10  26
HETATM   26  N1  UNL     1      31.605   8.440  49.178  1.00  0.00    -0.325 N 
HETATM   27  C3  UNL     1      32.484   8.133  48.134  1.00  0.00     0.221 C 
HETATM   28  O1  UNL     1      32.173   8.130  46.915  1.00  0.00    -0.273 OA
HETATM   29  H6  UNL     1      31.855   8.447  50.201  1.00  0.00     0.169 HD
BRANCH  27  30
HETATM   30  C2  UNL     1      33.875   7.795  48.551  1.00  0.00     0.098 C 
HETATM   31  C1  UNL     1      34.915   8.670  47.932  1.00  0.00     0.014 C 
ENDBRANCH  27  30
ENDBRANCH  10  26
BRANCH  21  32
HETATM   32  O2  UNL     1      25.417  10.297  46.472  1.00  0.00    -0.357 OA
HETATM   33  C17 UNL     1      25.042   9.385  45.431  1.00  0.00     0.209 C 
ENDBRANCH  21  32
ENDBRANCH   7   8
ENDBRANCH   6   7
ENDBRANCH   5   6
ENDBRANCH   4   5
ENDBRANCH   1   4
TORSDOF 8
ENDMDL
MODEL 8
REMARK VINA RESULT:      -6.0     22.552     25.976
REMARK  8 active torsions:
REMARK  status: ('A' for Active; 'I' for Inactive)
REMARK    1  A    between atoms: C2_2  and  C3_3 
REMARK       I    between atoms: C3_3  and  N1_5 
REMARK    2  A    between atoms: N1_5  and  C4_6 
REMARK    3  A    between atoms: N2_8  and  C6_9 
REMARK    4  A    between atoms: C6_9  and  C7_10 
REMARK    5  A    between atoms: C7_10  and  C8_11 
REMARK    6  A    between atoms: C8_11  and  C9_12 
REMARK    7  A    between atoms: C9_12  and  C10_13 
REMARK    8  A    between atoms: C16_21  and  O2_22 
ROOT
HETATM    1  C10 UNL     1      43.447  -0.905  72.187  1.00  0.00     0.093 C 
HETATM    2  C11 UNL     1      44.724  -1.190  71.652  1.00  0.00     0.087 C 
HETATM    3  N3  UNL     1      45.731  -1.422  71.208  1.00  0.00    -0.192 NA
ENDROOT
BRANCH   1   4
HETATM    4  C9  UNL     1      42.218  -1.210  72.092  1.00  0.00     0.011 C 
BRANCH   4   5
HETATM    5  C8  UNL     1      40.858  -1.676  71.979  1.00  0.00    -0.002 C 
BRANCH   5   6
HETATM    6  C7  UNL     1      39.883  -1.411  71.139  1.00  0.00    -0.007 C 
BRANCH   6   7
HETATM    7  C6  UNL     1      39.143  -1.799  69.958  1.00  0.00     0.150 C 
BRANCH   7   8
HETATM    8  N2  UNL     1      39.250  -0.877  68.833  1.00  0.00    -0.373 N 
HETATM    9  C5  UNL     1      38.945   0.406  69.427  1.00  0.00     0.117 C 
HETATM   10  C4  UNL     1      39.358   1.595  69.877  1.00  0.00     0.060 C 
HETATM   11  C23 UNL     1      40.750   1.976  69.783  1.00  0.00    -0.006 A 
HETATM   12  C22 UNL     1      41.464   3.128  69.941  1.00  0.00     0.014 A 
HETATM   13  C24 UNL     1      41.647   1.043  69.351  1.00  0.00     0.043 A 
HETATM   14  C21 UNL     1      42.813   3.197  69.678  1.00  0.00     0.003 A 
HETATM   15  C20 UNL     1      43.579   2.154  69.239  1.00  0.00     0.029 A 
HETATM   16  C19 UNL     1      43.001   0.924  69.031  1.00  0.00     0.034 A 
HETATM   17  N5  UNL     1      43.409  -0.365  68.498  1.00  0.00    -0.346 N 
HETATM   18  C15 UNL     1      42.165  -0.930  67.940  1.00  0.00     0.103 C 
HETATM   19  H23 UNL     1      44.408  -0.586  68.619  1.00  0.00     0.167 HD
HETATM   20  N4  UNL     1      41.365  -0.031  67.151  1.00  0.00    -0.286 NA
HETATM   21  C16 UNL     1      41.822  -2.172  68.243  1.00  0.00     0.085 C 
HETATM   22  C14 UNL     1      40.246  -0.308  66.660  1.00  0.00     0.264 C 
HETATM   23  C12 UNL     1      39.594  -1.360  67.517  1.00  0.00     0.053 C 
HETATM   24  C13 UNL     1      38.392  -1.854  66.756  1.00  0.00     0.041 C 
HETATM   25  C18 UNL     1      40.561  -2.538  67.600  1.00  0.00     0.100 C 
BRANCH  10  26
HETATM   26  N1  UNL     1      38.611   2.648  70.439  1.00  0.00    -0.325 N 
HETATM   27  C3  UNL     1      38.324   2.671  71.809  1.00  0.00     0.221 C 
HETATM   28  O1  UNL     1      38.691   1.794  72.632  1.00  0.00    -0.273 OA
HETATM   29  H6  UNL     1      38.310   3.377  69.743  1.00  0.00     0.169 HD
BRANCH  27  30
HETATM   30  C2  UNL     1      37.524   3.842  72.271  1.00  0.00     0.098 C 
HETATM   31  C1  UNL     1      37.565   5.003  71.331  1.00  0.00     0.014 C 
ENDBRANCH  27  30
ENDBRANCH  10  26
BRANCH  21  32
HETATM   32  O2  UNL     1      42.641  -2.916  69.071  1.00  0.00    -0.357 OA
HETATM   33  C17 UNL     1      42.214  -4.232  69.449  1.00  0.00     0.209 C 
ENDBRANCH  21  32
ENDBRANCH   7   8
ENDBRANCH   6   7
ENDBRANCH   5   6
ENDBRANCH   4   5
ENDBRANCH   1   4
TORSDOF 8
ENDMDL
MODEL 9
REMARK VINA RESULT:      -6.0      3.411      5.527
REMARK  8 active torsions:
REMARK  status: ('A' for Active; 'I' for Inactive)
REMARK    1  A    between atoms: C2_2  and  C3_3 
REMARK       I    between atoms: C3_3  and  N1_5 
REMARK    2  A    between atoms: N1_5  and  C4_6 
REMARK    3  A    between atoms: N2_8  and  C6_9 
REMARK    4  A    between atoms: C6_9  and  C7_10 
REMARK    5  A    between atoms: C7_10  and  C8_11 
REMARK    6  A    between atoms: C8_11  and  C9_12 
REMARK    7  A    between atoms: C9_12  and  C10_13 
REMARK    8  A    between atoms: C16_21  and  O2_22 
ROOT
HETATM    1  C10 UNL     1      20.511  10.279  49.019  1.00  0.00     0.093 C 
HETATM    2  C11 UNL     1      19.104  10.286  49.156  1.00  0.00     0.087 C 
HETATM    3  N3  UNL     1      17.986  10.273  49.276  1.00  0.00    -0.192 NA
ENDROOT
BRANCH   1   4
HETATM    4  C9  UNL     1      21.516   9.507  48.930  1.00  0.00     0.011 C 
BRANCH   4   5
HETATM    5  C8  UNL     1      22.639   8.630  48.705  1.00  0.00    -0.002 C 
BRANCH   5   6
HETATM    6  C7  UNL     1      22.906   7.398  49.076  1.00  0.00    -0.007 C 
BRANCH   6   7
HETATM    7  C6  UNL     1      22.406   6.118  49.527  1.00  0.00     0.150 C 
BRANCH   7   8
HETATM    8  N2  UNL     1      22.870   4.969  48.756  1.00  0.00    -0.373 N 
HETATM    9  C5  UNL     1      24.309   5.114  48.781  1.00  0.00     0.117 C 
HETATM   10  C4  UNL     1      25.498   4.724  49.251  1.00  0.00     0.060 C 
HETATM   11  C23 UNL     1      25.598   3.616  50.175  1.00  0.00    -0.006 A 
HETATM   12  C22 UNL     1      26.607   2.848  50.679  1.00  0.00     0.014 A 
HETATM   13  C24 UNL     1      24.444   3.069  50.656  1.00  0.00     0.043 A 
HETATM   14  C21 UNL     1      26.368   1.765  51.494  1.00  0.00     0.003 A 
HETATM   15  C20 UNL     1      25.130   1.339  51.885  1.00  0.00     0.029 A 
HETATM   16  C19 UNL     1      24.010   2.012  51.458  1.00  0.00     0.034 A 
HETATM   17  N5  UNL     1      22.570   1.844  51.550  1.00  0.00    -0.346 N 
HETATM   18  C15 UNL     1      22.057   2.483  50.323  1.00  0.00     0.103 C 
HETATM   19  H23 UNL     1      22.246   1.349  52.394  1.00  0.00     0.167 HD
HETATM   20  N4  UNL     1      22.756   2.162  49.107  1.00  0.00    -0.286 NA
HETATM   21  C16 UNL     1      21.060   3.350  50.411  1.00  0.00     0.085 C 
HETATM   22  C14 UNL     1      22.513   2.664  47.986  1.00  0.00     0.264 C 
HETATM   23  C12 UNL     1      21.925   4.035  48.190  1.00  0.00     0.053 C 
HETATM   24  C13 UNL     1      21.404   4.487  46.852  1.00  0.00     0.041 C 
HETATM   25  C18 UNL     1      20.705   3.874  49.093  1.00  0.00     0.100 C 
BRANCH  10  26
HETATM   26  N1  UNL     1      26.783   5.217  48.955  1.00  0.00    -0.325 N 
HETATM   27  C3  UNL     1      27.004   6.589  48.789  1.00  0.00     0.221 C 
HETATM   28  O1  UNL     1      26.115   7.474  48.886  1.00  0.00    -0.273 OA
HETATM   29  H6  UNL     1      27.519   4.470  48.876  1.00  0.00     0.169 HD
BRANCH  27  30
HETATM   30  C2  UNL     1      28.411   6.973  48.476  1.00  0.00     0.098 C 
HETATM   31  C1  UNL     1      29.279   5.815  48.107  1.00  0.00     0.014 C 
ENDBRANCH  27  30
ENDBRANCH  10  26
BRANCH  21  32
HETATM   32  O2  UNL     1      20.515   3.630  51.649  1.00  0.00    -0.357 OA
HETATM   33  C17 UNL     1      19.285   2.989  52.014  1.00  0.00     0.209 C 
ENDBRANCH  21  32
ENDBRANCH   7   8
ENDBRANCH   6   7
ENDBRANCH   5   6
ENDBRANCH   4   5
ENDBRANCH   1   4
TORSDOF 8
ENDMDL
