MODEL 1
REMARK VINA RESULT:      -8.5      0.000      0.000
REMARK  8 active torsions:
REMARK  status: ('A' for Active; 'I' for Inactive)
REMARK    1  A    between atoms: N1_2  and  C2_3 
REMARK    2  A    between atoms: C3_5  and  N3_6 
REMARK    3  A    between atoms: N4_7  and  C4_8 
REMARK    4  A    between atoms: C4_8  and  C5_9 
REMARK    5  A    between atoms: C8_12  and  O1_13 
REMARK    6  A    between atoms: C11_17  and  N6_18 
REMARK    7  A    between atoms: N6_18  and  C12_19 
REMARK    8  A    between atoms: C12_19  and  C13_20 
ROOT
HETATM    1  C2  UNL     1      26.342   4.417  49.367  1.00  0.00     0.753 A 
HETATM    2  N2  UNL     1      24.986   4.397  49.276  1.00  0.00     0.134 NA
HETATM    3  C3  UNL     1      24.295   3.546  50.096  1.00  0.00     0.798 A 
HETATM    4  N5  UNL     1      25.004   2.781  50.941  1.00  0.00     0.134 NA
HETATM    5  C11 UNL     1      26.349   2.780  51.056  1.00  0.00     0.754 A 
HETATM    6  N7  UNL     1      27.017   3.615  50.249  1.00  0.00     0.131 NA
ENDROOT
BRANCH   3   7
HETATM    7  N3  UNL     1      22.961   3.128  50.405  1.00  0.00     0.042 NA
HETATM    8  N4  UNL     1      22.848   2.473  51.484  1.00  0.00    -0.172 NA
BRANCH   8   9
HETATM    9  C4  UNL     1      21.693   1.926  52.075  1.00  0.00     0.212 C 
BRANCH   9  10
HETATM   10  C5  UNL     1      21.980   0.863  53.022  1.00  0.00    -0.037 A 
HETATM   11  C6  UNL     1      23.238   0.289  53.140  1.00  0.00     0.012 A 
HETATM   12  C7  UNL     1      23.542  -0.682  54.064  1.00  0.00     0.037 A 
HETATM   13  C8  UNL     1      22.473  -1.044  54.880  1.00  0.00     0.065 A 
HETATM   14  C9  UNL     1      21.202  -0.515  54.814  1.00  0.00     0.037 A 
HETATM   15  C10 UNL     1      20.942   0.472  53.856  1.00  0.00     0.012 A 
BRANCH  13  16
HETATM   16  O1  UNL     1      22.775  -2.043  55.833  1.00  0.00    -0.361 OA
HETATM   17  H9  UNL     1      22.907  -2.965  55.394  1.00  0.00     0.217 HD
ENDBRANCH  13  16
ENDBRANCH   9  10
ENDBRANCH   8   9
ENDBRANCH   3   7
BRANCH   1  18
HETATM   18  N1  UNL     1      27.074   5.289  48.532  1.00  0.00    -0.226 N 
HETATM   19  C1  UNL     1      28.483   5.596  48.313  1.00  0.00     0.165 C 
HETATM   20  H4  UNL     1      26.318   5.757  47.997  1.00  0.00     0.177 HD
ENDBRANCH   1  18
BRANCH   5  21
HETATM   21  N6  UNL     1      27.316   2.118  51.845  1.00  0.00    -0.217 N 
HETATM   22  H12 UNL     1      27.933   1.800  51.066  1.00  0.00     0.178 HD
BRANCH  21  23
HETATM   23  C12 UNL     1      27.552   1.860  53.227  1.00  0.00     0.173 C 
BRANCH  23  24
HETATM   24  C13 UNL     1      27.587   0.429  53.615  1.00  0.00    -0.047 C 
HETATM   25  C14 UNL     1      26.994  -0.685  53.238  1.00  0.00    -0.021 C 
HETATM   26  C15 UNL     1      27.751  -1.718  52.944  1.00  0.00     0.012 C 
HETATM   27  C16 UNL     1      29.209  -1.594  53.141  1.00  0.00    -0.003 C 
HETATM   28  C17 UNL     1      29.643  -0.690  54.032  1.00  0.00    -0.022 C 
HETATM   29  C18 UNL     1      28.548   0.090  54.722  1.00  0.00     0.064 C 
ENDBRANCH  23  24
ENDBRANCH  21  23
ENDBRANCH   5  21
TORSDOF 8
ENDMDL
MODEL 2
REMARK VINA RESULT:      -8.5      1.806      5.265
REMARK  8 active torsions:
REMARK  status: ('A' for Active; 'I' for Inactive)
REMARK    1  A    between atoms: N1_2  and  C2_3 
REMARK    2  A    between atoms: C3_5  and  N3_6 
REMARK    3  A    between atoms: N4_7  and  C4_8 
REMARK    4  A    between atoms: C4_8  and  C5_9 
REMARK    5  A    between atoms: C8_12  and  O1_13 
REMARK    6  A    between atoms: C11_17  and  N6_18 
REMARK    7  A    between atoms: N6_18  and  C12_19 
REMARK    8  A    between atoms: C12_19  and  C13_20 
ROOT
HETATM    1  C2  UNL     1      24.191   4.168  49.321  1.00  0.00     0.753 A 
HETATM    2  N2  UNL     1      25.531   4.166  49.547  1.00  0.00     0.134 NA
HETATM    3  C3  UNL     1      26.037   3.253  50.433  1.00  0.00     0.798 A 
HETATM    4  N5  UNL     1      25.174   2.414  51.024  1.00  0.00     0.134 NA
HETATM    5  C11 UNL     1      23.839   2.389  50.819  1.00  0.00     0.754 A 
HETATM    6  N7  UNL     1      23.353   3.287  49.951  1.00  0.00     0.131 NA
ENDROOT
BRANCH   3   7
HETATM    7  N3  UNL     1      27.273   2.832  51.020  1.00  0.00     0.042 NA
HETATM    8  N4  UNL     1      27.193   2.504  52.242  1.00  0.00    -0.172 NA
BRANCH   8   9
HETATM    9  C4  UNL     1      28.205   2.047  53.107  1.00  0.00     0.212 C 
BRANCH   9  10
HETATM   10  C5  UNL     1      28.297   0.599  53.172  1.00  0.00    -0.037 A 
HETATM   11  C6  UNL     1      27.272  -0.232  52.740  1.00  0.00     0.012 A 
HETATM   12  C7  UNL     1      27.360  -1.604  52.747  1.00  0.00     0.037 A 
HETATM   13  C8  UNL     1      28.572  -2.094  53.226  1.00  0.00     0.065 A 
HETATM   14  C9  UNL     1      29.626  -1.325  53.669  1.00  0.00     0.037 A 
HETATM   15  C10 UNL     1      29.489   0.068  53.642  1.00  0.00     0.012 A 
BRANCH  13  16
HETATM   16  O1  UNL     1      28.671  -3.503  53.237  1.00  0.00    -0.361 OA
HETATM   17  H9  UNL     1      29.576  -3.828  52.865  1.00  0.00     0.217 HD
ENDBRANCH  13  16
ENDBRANCH   9  10
ENDBRANCH   8   9
ENDBRANCH   3   7
BRANCH   1  18
HETATM   18  N1  UNL     1      23.649   5.101  48.410  1.00  0.00    -0.226 N 
HETATM   19  C1  UNL     1      22.456   5.180  47.575  1.00  0.00     0.165 C 
HETATM   20  H4  UNL     1      24.355   5.861  48.437  1.00  0.00     0.177 HD
ENDBRANCH   1  18
BRANCH   5  21
HETATM   21  N6  UNL     1      22.740   1.628  51.275  1.00  0.00    -0.217 N 
HETATM   22  H12 UNL     1      22.310   1.440  50.343  1.00  0.00     0.178 HD
BRANCH  21  23
HETATM   23  C12 UNL     1      22.219   1.167  52.519  1.00  0.00     0.173 C 
BRANCH  23  24
HETATM   24  C13 UNL     1      22.872  -0.040  53.080  1.00  0.00    -0.047 C 
HETATM   25  C14 UNL     1      24.052  -0.355  53.571  1.00  0.00    -0.021 C 
HETATM   26  C15 UNL     1      24.095  -0.936  54.749  1.00  0.00     0.012 C 
HETATM   27  C16 UNL     1      22.819  -1.279  55.406  1.00  0.00    -0.003 C 
HETATM   28  C17 UNL     1      21.743  -1.452  54.624  1.00  0.00    -0.022 C 
HETATM   29  C18 UNL     1      22.000  -1.265  53.147  1.00  0.00     0.064 C 
ENDBRANCH  23  24
ENDBRANCH  21  23
ENDBRANCH   5  21
TORSDOF 8
ENDMDL
MODEL 3
REMARK VINA RESULT:      -8.0      3.024      6.257
REMARK  8 active torsions:
REMARK  status: ('A' for Active; 'I' for Inactive)
REMARK    1  A    between atoms: N1_2  and  C2_3 
REMARK    2  A    between atoms: C3_5  and  N3_6 
REMARK    3  A    between atoms: N4_7  and  C4_8 
REMARK    4  A    between atoms: C4_8  and  C5_9 
REMARK    5  A    between atoms: C8_12  and  O1_13 
REMARK    6  A    between atoms: C11_17  and  N6_18 
REMARK    7  A    between atoms: N6_18  and  C12_19 
REMARK    8  A    between atoms: C12_19  and  C13_20 
ROOT
HETATM    1  C2  UNL     1      21.042   0.200  53.495  1.00  0.00     0.753 A 
HETATM    2  N2  UNL     1      20.898   1.343  52.772  1.00  0.00     0.134 NA
HETATM    3  C3  UNL     1      22.030   1.982  52.340  1.00  0.00     0.798 A 
HETATM    4  N5  UNL     1      23.214   1.439  52.660  1.00  0.00     0.134 NA
HETATM    5  C11 UNL     1      23.389   0.306  53.374  1.00  0.00     0.754 A 
HETATM    6  N7  UNL     1      22.276  -0.313  53.793  1.00  0.00     0.131 NA
ENDROOT
BRANCH   3   7
HETATM    7  N3  UNL     1      22.449   3.138  51.606  1.00  0.00     0.042 NA
HETATM    8  N4  UNL     1      22.514   2.971  50.352  1.00  0.00    -0.172 NA
BRANCH   8   9
HETATM    9  C4  UNL     1      22.883   3.892  49.351  1.00  0.00     0.212 C 
BRANCH   9  10
HETATM   10  C5  UNL     1      24.307   4.176  49.328  1.00  0.00    -0.037 A 
HETATM   11  C6  UNL     1      25.265   3.207  49.589  1.00  0.00     0.012 A 
HETATM   12  C7  UNL     1      26.618   3.445  49.523  1.00  0.00     0.037 A 
HETATM   13  C8  UNL     1      26.949   4.750  49.169  1.00  0.00     0.065 A 
HETATM   14  C9  UNL     1      26.048   5.758  48.898  1.00  0.00     0.037 A 
HETATM   15  C10 UNL     1      24.681   5.466  48.978  1.00  0.00     0.012 A 
BRANCH  13  16
HETATM   16  O1  UNL     1      28.337   5.005  49.099  1.00  0.00    -0.361 OA
HETATM   17  H9  UNL     1      28.636   5.695  49.803  1.00  0.00     0.217 HD
ENDBRANCH  13  16
ENDBRANCH   9  10
ENDBRANCH   8   9
ENDBRANCH   3   7
BRANCH   1  18
HETATM   18  N1  UNL     1      19.888  -0.476  53.948  1.00  0.00    -0.226 N 
HETATM   19  C1  UNL     1      18.672  -1.000  53.337  1.00  0.00     0.165 C 
HETATM   20  H4  UNL     1      20.077  -0.563  54.964  1.00  0.00     0.177 HD
ENDBRANCH   1  18
BRANCH   5  21
HETATM   21  N6  UNL     1      24.479  -0.473  53.821  1.00  0.00    -0.217 N 
HETATM   22  H12 UNL     1      24.112  -1.403  53.523  1.00  0.00     0.178 HD
BRANCH  21  23
HETATM   23  C12 UNL     1      25.730  -0.262  54.472  1.00  0.00     0.173 C 
BRANCH  23  24
HETATM   24  C13 UNL     1      26.930  -0.388  53.610  1.00  0.00    -0.047 C 
HETATM   25  C14 UNL     1      28.186   0.008  53.646  1.00  0.00    -0.021 C 
HETATM   26  C15 UNL     1      29.123  -0.896  53.471  1.00  0.00     0.012 C 
HETATM   27  C16 UNL     1      28.711  -2.278  53.157  1.00  0.00    -0.003 C 
HETATM   28  C17 UNL     1      27.509  -2.456  52.590  1.00  0.00    -0.022 C 
HETATM   29  C18 UNL     1      26.731  -1.183  52.348  1.00  0.00     0.064 C 
ENDBRANCH  23  24
ENDBRANCH  21  23
ENDBRANCH   5  21
TORSDOF 8
ENDMDL
MODEL 4
REMARK VINA RESULT:      -7.6      2.633      6.980
REMARK  8 active torsions:
REMARK  status: ('A' for Active; 'I' for Inactive)
REMARK    1  A    between atoms: N1_2  and  C2_3 
REMARK    2  A    between atoms: C3_5  and  N3_6 
REMARK    3  A    between atoms: N4_7  and  C4_8 
REMARK    4  A    between atoms: C4_8  and  C5_9 
REMARK    5  A    between atoms: C8_12  and  O1_13 
REMARK    6  A    between atoms: C11_17  and  N6_18 
REMARK    7  A    between atoms: N6_18  and  C12_19 
REMARK    8  A    between atoms: C12_19  and  C13_20 
ROOT
HETATM    1  C2  UNL     1      21.689   2.565  52.387  1.00  0.00     0.753 A 
HETATM    2  N2  UNL     1      22.917   1.982  52.358  1.00  0.00     0.134 NA
HETATM    3  C3  UNL     1      24.004   2.774  52.104  1.00  0.00     0.798 A 
HETATM    4  N5  UNL     1      23.787   4.082  51.899  1.00  0.00     0.134 NA
HETATM    5  C11 UNL     1      22.582   4.690  51.922  1.00  0.00     0.754 A 
HETATM    6  N7  UNL     1      21.524   3.907  52.171  1.00  0.00     0.131 NA
ENDROOT
BRANCH   3   7
HETATM    7  N3  UNL     1      25.426   2.706  51.957  1.00  0.00     0.042 NA
HETATM    8  N4  UNL     1      26.027   2.101  52.894  1.00  0.00    -0.172 NA
BRANCH   8   9
HETATM    9  C4  UNL     1      27.404   1.856  53.055  1.00  0.00     0.212 C 
BRANCH   9  10
HETATM   10  C5  UNL     1      27.743   0.443  53.033  1.00  0.00    -0.037 A 
HETATM   11  C6  UNL     1      28.980  -0.033  53.447  1.00  0.00     0.012 A 
HETATM   12  C7  UNL     1      29.302  -1.369  53.481  1.00  0.00     0.037 A 
HETATM   13  C8  UNL     1      28.276  -2.212  53.062  1.00  0.00     0.065 A 
HETATM   14  C9  UNL     1      27.029  -1.804  52.638  1.00  0.00     0.037 A 
HETATM   15  C10 UNL     1      26.749  -0.433  52.623  1.00  0.00     0.012 A 
BRANCH  13  16
HETATM   16  O1  UNL     1      28.597  -3.587  53.092  1.00  0.00    -0.361 OA
HETATM   17  H9  UNL     1      28.160  -4.066  53.893  1.00  0.00     0.217 HD
ENDBRANCH  13  16
ENDBRANCH   9  10
ENDBRANCH   8   9
ENDBRANCH   3   7
BRANCH   1  18
HETATM   18  N1  UNL     1      20.555   1.766  52.649  1.00  0.00    -0.226 N 
HETATM   19  C1  UNL     1      19.651   0.937  51.860  1.00  0.00     0.165 C 
HETATM   20  H4  UNL     1      20.450   1.874  53.676  1.00  0.00     0.177 HD
ENDBRANCH   1  18
BRANCH   5  21
HETATM   21  N6  UNL     1      22.087   6.005  51.767  1.00  0.00    -0.217 N 
HETATM   22  H12 UNL     1      21.696   6.116  52.727  1.00  0.00     0.178 HD
BRANCH  21  23
HETATM   23  C12 UNL     1      22.035   6.998  50.746  1.00  0.00     0.173 C 
BRANCH  23  24
HETATM   24  C13 UNL     1      23.335   7.345  50.123  1.00  0.00    -0.047 C 
HETATM   25  C14 UNL     1      24.443   7.959  50.486  1.00  0.00    -0.021 C 
HETATM   26  C15 UNL     1      25.584   7.338  50.290  1.00  0.00     0.012 C 
HETATM   27  C16 UNL     1      25.562   6.036  49.597  1.00  0.00    -0.003 C 
HETATM   28  C17 UNL     1      24.524   5.779  48.786  1.00  0.00    -0.022 C 
HETATM   29  C18 UNL     1      23.504   6.890  48.698  1.00  0.00     0.064 C 
ENDBRANCH  23  24
ENDBRANCH  21  23
ENDBRANCH   5  21
TORSDOF 8
ENDMDL
MODEL 5
REMARK VINA RESULT:      -7.5      2.576      5.434
REMARK  8 active torsions:
REMARK  status: ('A' for Active; 'I' for Inactive)
REMARK    1  A    between atoms: N1_2  and  C2_3 
REMARK    2  A    between atoms: C3_5  and  N3_6 
REMARK    3  A    between atoms: N4_7  and  C4_8 
REMARK    4  A    between atoms: C4_8  and  C5_9 
REMARK    5  A    between atoms: C8_12  and  O1_13 
REMARK    6  A    between atoms: C11_17  and  N6_18 
REMARK    7  A    between atoms: N6_18  and  C12_19 
REMARK    8  A    between atoms: C12_19  and  C13_20 
ROOT
HETATM    1  C2  UNL     1      27.854   1.520  52.896  1.00  0.00     0.753 A 
HETATM    2  N2  UNL     1      27.510   2.415  51.932  1.00  0.00     0.134 NA
HETATM    3  C3  UNL     1      26.264   2.317  51.373  1.00  0.00     0.798 A 
HETATM    4  N5  UNL     1      25.459   1.338  51.812  1.00  0.00     0.134 NA
HETATM    5  C11 UNL     1      25.770   0.437  52.768  1.00  0.00     0.754 A 
HETATM    6  N7  UNL     1      26.992   0.540  53.310  1.00  0.00     0.131 NA
ENDROOT
BRANCH   3   7
HETATM    7  N3  UNL     1      25.430   2.935  50.387  1.00  0.00     0.042 NA
HETATM    8  N4  UNL     1      24.320   3.361  50.825  1.00  0.00    -0.172 NA
BRANCH   8   9
HETATM    9  C4  UNL     1      23.282   4.013  50.132  1.00  0.00     0.212 C 
BRANCH   9  10
HETATM   10  C5  UNL     1      22.092   3.195  49.976  1.00  0.00    -0.037 A 
HETATM   11  C6  UNL     1      20.877   3.529  50.557  1.00  0.00     0.012 A 
HETATM   12  C7  UNL     1      19.728   2.794  50.379  1.00  0.00     0.037 A 
HETATM   13  C8  UNL     1      19.887   1.680  49.560  1.00  0.00     0.065 A 
HETATM   14  C9  UNL     1      21.064   1.294  48.954  1.00  0.00     0.037 A 
HETATM   15  C10 UNL     1      22.206   2.075  49.166  1.00  0.00     0.012 A 
BRANCH  13  16
HETATM   16  O1  UNL     1      18.712   0.918  49.372  1.00  0.00    -0.361 OA
HETATM   17  H9  UNL     1      18.726   0.048  49.923  1.00  0.00     0.217 HD
ENDBRANCH  13  16
ENDBRANCH   9  10
ENDBRANCH   8   9
ENDBRANCH   3   7
BRANCH   1  18
HETATM   18  N1  UNL     1      29.133   1.605  53.487  1.00  0.00    -0.226 N 
HETATM   19  C1  UNL     1      29.667   2.035  54.774  1.00  0.00     0.165 C 
HETATM   20  H4  UNL     1      29.743   1.243  52.730  1.00  0.00     0.177 HD
ENDBRANCH   1  18
BRANCH   5  21
HETATM   21  N6  UNL     1      25.130  -0.645  53.413  1.00  0.00    -0.217 N 
HETATM   22  H12 UNL     1      25.459  -1.399  52.772  1.00  0.00     0.178 HD
BRANCH  21  23
HETATM   23  C12 UNL     1      24.290  -0.849  54.546  1.00  0.00     0.173 C 
BRANCH  23  24
HETATM   24  C13 UNL     1      22.832  -0.842  54.273  1.00  0.00    -0.047 C 
HETATM   25  C14 UNL     1      21.724  -0.672  54.965  1.00  0.00    -0.021 C 
HETATM   26  C15 UNL     1      20.856   0.213  54.531  1.00  0.00     0.012 C 
HETATM   27  C16 UNL     1      21.132   0.895  53.251  1.00  0.00    -0.003 C 
HETATM   28  C17 UNL     1      21.934   0.272  52.375  1.00  0.00    -0.022 C 
HETATM   29  C18 UNL     1      22.449  -1.072  52.836  1.00  0.00     0.064 C 
ENDBRANCH  23  24
ENDBRANCH  21  23
ENDBRANCH   5  21
TORSDOF 8
ENDMDL
MODEL 6
REMARK VINA RESULT:      -7.5      2.487      5.809
REMARK  8 active torsions:
REMARK  status: ('A' for Active; 'I' for Inactive)
REMARK    1  A    between atoms: N1_2  and  C2_3 
REMARK    2  A    between atoms: C3_5  and  N3_6 
REMARK    3  A    between atoms: N4_7  and  C4_8 
REMARK    4  A    between atoms: C4_8  and  C5_9 
REMARK    5  A    between atoms: C8_12  and  O1_13 
REMARK    6  A    between atoms: C11_17  and  N6_18 
REMARK    7  A    between atoms: N6_18  and  C12_19 
REMARK    8  A    between atoms: C12_19  and  C13_20 
ROOT
HETATM    1  C2  UNL     1      27.752   0.939  53.010  1.00  0.00     0.753 A 
HETATM    2  N2  UNL     1      27.602   2.009  52.185  1.00  0.00     0.134 NA
HETATM    3  C3  UNL     1      26.337   2.346  51.786  1.00  0.00     0.798 A 
HETATM    4  N5  UNL     1      25.320   1.595  52.236  1.00  0.00     0.134 NA
HETATM    5  C11 UNL     1      25.437   0.529  53.057  1.00  0.00     0.754 A 
HETATM    6  N7  UNL     1      26.679   0.206  53.442  1.00  0.00     0.131 NA
ENDROOT
BRANCH   3   7
HETATM    7  N3  UNL     1      25.636   3.297  50.977  1.00  0.00     0.042 NA
HETATM    8  N4  UNL     1      24.550   2.872  50.482  1.00  0.00    -0.172 NA
BRANCH   8   9
HETATM    9  C4  UNL     1      23.627   3.541  49.655  1.00  0.00     0.212 C 
BRANCH   9  10
HETATM   10  C5  UNL     1      22.300   3.641  50.236  1.00  0.00    -0.037 A 
HETATM   11  C6  UNL     1      21.145   3.421  49.498  1.00  0.00     0.012 A 
HETATM   12  C7  UNL     1      19.883   3.462  50.042  1.00  0.00     0.037 A 
HETATM   13  C8  UNL     1      19.859   3.742  51.405  1.00  0.00     0.065 A 
HETATM   14  C9  UNL     1      20.967   3.970  52.194  1.00  0.00     0.037 A 
HETATM   15  C10 UNL     1      22.231   3.917  51.594  1.00  0.00     0.012 A 
BRANCH  13  16
HETATM   16  O1  UNL     1      18.566   3.787  51.973  1.00  0.00    -0.361 OA
HETATM   17  H9  UNL     1      17.956   4.460  51.487  1.00  0.00     0.217 HD
ENDBRANCH  13  16
ENDBRANCH   9  10
ENDBRANCH   8   9
ENDBRANCH   3   7
BRANCH   1  18
HETATM   18  N1  UNL     1      29.049   0.576  53.435  1.00  0.00    -0.226 N 
HETATM   19  C1  UNL     1      29.718  -0.661  53.820  1.00  0.00     0.165 C 
HETATM   20  H4  UNL     1      29.542   1.489  53.421  1.00  0.00     0.177 HD
ENDBRANCH   1  18
BRANCH   5  21
HETATM   21  N6  UNL     1      24.566  -0.393  53.680  1.00  0.00    -0.217 N 
HETATM   22  H12 UNL     1      25.161  -0.600  54.512  1.00  0.00     0.178 HD
BRANCH  21  23
HETATM   23  C12 UNL     1      23.289  -0.972  53.429  1.00  0.00     0.173 C 
BRANCH  23  24
HETATM   24  C13 UNL     1      22.284  -0.068  52.818  1.00  0.00    -0.047 C 
HETATM   25  C14 UNL     1      21.885   0.247  51.603  1.00  0.00    -0.021 C 
HETATM   26  C15 UNL     1      20.600   0.176  51.337  1.00  0.00     0.012 C 
HETATM   27  C16 UNL     1      19.676  -0.163  52.437  1.00  0.00    -0.003 C 
HETATM   28  C17 UNL     1      20.078   0.098  53.690  1.00  0.00    -0.022 C 
HETATM   29  C18 UNL     1      21.452   0.718  53.796  1.00  0.00     0.064 C 
ENDBRANCH  23  24
ENDBRANCH  21  23
ENDBRANCH   5  21
TORSDOF 8
ENDMDL
MODEL 7
REMARK VINA RESULT:      -7.3      3.485      6.437
REMARK  8 active torsions:
REMARK  status: ('A' for Active; 'I' for Inactive)
REMARK    1  A    between atoms: N1_2  and  C2_3 
REMARK    2  A    between atoms: C3_5  and  N3_6 
REMARK    3  A    between atoms: N4_7  and  C4_8 
REMARK    4  A    between atoms: C4_8  and  C5_9 
REMARK    5  A    between atoms: C8_12  and  O1_13 
REMARK    6  A    between atoms: C11_17  and  N6_18 
REMARK    7  A    between atoms: N6_18  and  C12_19 
REMARK    8  A    between atoms: C12_19  and  C13_20 
ROOT
HETATM    1  C2  UNL     1      27.979   7.329  48.613  1.00  0.00     0.753 A 
HETATM    2  N2  UNL     1      26.887   6.597  48.957  1.00  0.00     0.134 NA
HETATM    3  C3  UNL     1      26.994   5.232  48.948  1.00  0.00     0.798 A 
HETATM    4  N5  UNL     1      28.175   4.702  48.598  1.00  0.00     0.134 NA
HETATM    5  C11 UNL     1      29.277   5.401  48.254  1.00  0.00     0.754 A 
HETATM    6  N7  UNL     1      29.164   6.737  48.265  1.00  0.00     0.131 NA
ENDROOT
BRANCH   3   7
HETATM    7  N3  UNL     1      26.225   4.049  49.193  1.00  0.00     0.042 NA
HETATM    8  N4  UNL     1      26.331   3.584  50.367  1.00  0.00    -0.172 NA
BRANCH   8   9
HETATM    9  C4  UNL     1      25.716   2.450  50.932  1.00  0.00     0.212 C 
BRANCH   9  10
HETATM   10  C5  UNL     1      26.588   1.708  51.826  1.00  0.00    -0.037 A 
HETATM   11  C6  UNL     1      26.542   0.324  51.933  1.00  0.00     0.012 A 
HETATM   12  C7  UNL     1      27.392  -0.400  52.735  1.00  0.00     0.037 A 
HETATM   13  C8  UNL     1      28.311   0.377  53.435  1.00  0.00     0.065 A 
HETATM   14  C9  UNL     1      28.409   1.750  53.374  1.00  0.00     0.037 A 
HETATM   15  C10 UNL     1      27.521   2.442  52.542  1.00  0.00     0.012 A 
BRANCH  13  16
HETATM   16  O1  UNL     1      29.189  -0.358  54.262  1.00  0.00    -0.361 OA
HETATM   17  H9  UNL     1      30.131   0.060  54.291  1.00  0.00     0.217 HD
ENDBRANCH  13  16
ENDBRANCH   9  10
ENDBRANCH   8   9
ENDBRANCH   3   7
BRANCH   1  18
HETATM   18  N1  UNL     1      27.891   8.738  48.617  1.00  0.00    -0.226 N 
HETATM   19  C1  UNL     1      28.667   9.836  49.182  1.00  0.00     0.165 C 
HETATM   20  H4  UNL     1      27.038   8.901  48.049  1.00  0.00     0.177 HD
ENDBRANCH   1  18
BRANCH   5  21
HETATM   21  N6  UNL     1      30.608   5.110  47.877  1.00  0.00    -0.217 N 
HETATM   22  H12 UNL     1      30.668   4.164  48.313  1.00  0.00     0.178 HD
BRANCH  21  23
HETATM   23  C12 UNL     1      31.663   5.744  47.160  1.00  0.00     0.173 C 
BRANCH  23  24
HETATM   24  C13 UNL     1      32.856   4.903  46.898  1.00  0.00    -0.047 C 
HETATM   25  C14 UNL     1      34.110   4.861  47.298  1.00  0.00    -0.021 C 
HETATM   26  C15 UNL     1      34.573   3.720  47.759  1.00  0.00     0.012 C 
HETATM   27  C16 UNL     1      33.689   2.539  47.714  1.00  0.00    -0.003 C 
HETATM   28  C17 UNL     1      32.703   2.533  46.805  1.00  0.00    -0.022 C 
HETATM   29  C18 UNL     1      32.639   3.767  45.935  1.00  0.00     0.064 C 
ENDBRANCH  23  24
ENDBRANCH  21  23
ENDBRANCH   5  21
TORSDOF 8
ENDMDL
MODEL 8
REMARK VINA RESULT:      -7.3      2.354      5.186
REMARK  8 active torsions:
REMARK  status: ('A' for Active; 'I' for Inactive)
REMARK    1  A    between atoms: N1_2  and  C2_3 
REMARK    2  A    between atoms: C3_5  and  N3_6 
REMARK    3  A    between atoms: N4_7  and  C4_8 
REMARK    4  A    between atoms: C4_8  and  C5_9 
REMARK    5  A    between atoms: C8_12  and  O1_13 
REMARK    6  A    between atoms: C11_17  and  N6_18 
REMARK    7  A    between atoms: N6_18  and  C12_19 
REMARK    8  A    between atoms: C12_19  and  C13_20 
ROOT
HETATM    1  C2  UNL     1      26.363   4.442  49.947  1.00  0.00     0.753 A 
HETATM    2  N2  UNL     1      26.753   3.233  50.432  1.00  0.00     0.134 NA
HETATM    3  C3  UNL     1      25.801   2.421  50.988  1.00  0.00     0.798 A 
HETATM    4  N5  UNL     1      24.538   2.873  51.019  1.00  0.00     0.134 NA
HETATM    5  C11 UNL     1      24.120   4.066  50.544  1.00  0.00     0.754 A 
HETATM    6  N7  UNL     1      25.059   4.854  50.002  1.00  0.00     0.131 NA
ENDROOT
BRANCH   3   7
HETATM    7  N3  UNL     1      25.649   1.144  51.617  1.00  0.00     0.042 NA
HETATM    8  N4  UNL     1      24.955   1.156  52.677  1.00  0.00    -0.172 NA
BRANCH   8   9
HETATM    9  C4  UNL     1      24.613   0.086  53.527  1.00  0.00     0.212 C 
BRANCH   9  10
HETATM   10  C5  UNL     1      23.182  -0.146  53.612  1.00  0.00    -0.037 A 
HETATM   11  C6  UNL     1      22.279   0.436  52.732  1.00  0.00     0.012 A 
HETATM   12  C7  UNL     1      20.927   0.189  52.765  1.00  0.00     0.037 A 
HETATM   13  C8  UNL     1      20.536  -0.702  53.761  1.00  0.00     0.065 A 
HETATM   14  C9  UNL     1      21.380  -1.313  54.664  1.00  0.00     0.037 A 
HETATM   15  C10 UNL     1      22.748  -1.029  54.590  1.00  0.00     0.012 A 
BRANCH  13  16
HETATM   16  O1  UNL     1      19.148  -0.962  53.803  1.00  0.00    -0.361 OA
HETATM   17  H9  UNL     1      18.788  -1.274  52.889  1.00  0.00     0.217 HD
ENDBRANCH  13  16
ENDBRANCH   9  10
ENDBRANCH   8   9
ENDBRANCH   3   7
BRANCH   1  18
HETATM   18  N1  UNL     1      27.330   5.293  49.368  1.00  0.00    -0.226 N 
HETATM   19  C1  UNL     1      27.316   6.411  48.432  1.00  0.00     0.165 C 
HETATM   20  H4  UNL     1      28.208   4.941  49.794  1.00  0.00     0.177 HD
ENDBRANCH   1  18
BRANCH   5  21
HETATM   21  N6  UNL     1      22.894   4.759  50.432  1.00  0.00    -0.217 N 
HETATM   22  H12 UNL     1      22.913   5.219  51.368  1.00  0.00     0.178 HD
BRANCH  21  23
HETATM   23  C12 UNL     1      21.852   4.912  49.472  1.00  0.00     0.173 C 
BRANCH  23  24
HETATM   24  C13 UNL     1      21.589   3.729  48.617  1.00  0.00    -0.047 C 
HETATM   25  C14 UNL     1      22.241   3.037  47.705  1.00  0.00    -0.021 C 
HETATM   26  C15 UNL     1      22.319   1.734  47.859  1.00  0.00     0.012 C 
HETATM   27  C16 UNL     1      21.597   1.119  48.990  1.00  0.00    -0.003 C 
HETATM   28  C17 UNL     1      20.543   1.780  49.490  1.00  0.00    -0.022 C 
HETATM   29  C18 UNL     1      20.239   3.092  48.804  1.00  0.00     0.064 C 
ENDBRANCH  23  24
ENDBRANCH  21  23
ENDBRANCH   5  21
TORSDOF 8
ENDMDL
MODEL 9
REMARK VINA RESULT:      -7.3      3.283      6.646
REMARK  8 active torsions:
REMARK  status: ('A' for Active; 'I' for Inactive)
REMARK    1  A    between atoms: N1_2  and  C2_3 
REMARK    2  A    between atoms: C3_5  and  N3_6 
REMARK    3  A    between atoms: N4_7  and  C4_8 
REMARK    4  A    between atoms: C4_8  and  C5_9 
REMARK    5  A    between atoms: C8_12  and  O1_13 
REMARK    6  A    between atoms: C11_17  and  N6_18 
REMARK    7  A    between atoms: N6_18  and  C12_19 
REMARK    8  A    between atoms: C12_19  and  C13_20 
ROOT
HETATM    1  C2  UNL     1      21.383   3.418  52.098  1.00  0.00     0.753 A 
HETATM    2  N2  UNL     1      21.682   4.693  51.735  1.00  0.00     0.134 NA
HETATM    3  C3  UNL     1      22.999   5.024  51.556  1.00  0.00     0.798 A 
HETATM    4  N5  UNL     1      23.914   4.063  51.753  1.00  0.00     0.134 NA
HETATM    5  C11 UNL     1      23.649   2.789  52.112  1.00  0.00     0.754 A 
HETATM    6  N7  UNL     1      22.358   2.475  52.285  1.00  0.00     0.131 NA
ENDROOT
BRANCH   3   7
HETATM    7  N3  UNL     1      23.835   6.132  51.209  1.00  0.00     0.042 NA
HETATM    8  N4  UNL     1      24.194   6.164  49.994  1.00  0.00    -0.172 NA
BRANCH   8   9
HETATM    9  C4  UNL     1      25.003   7.106  49.331  1.00  0.00     0.212 C 
BRANCH   9  10
HETATM   10  C5  UNL     1      26.292   6.573  48.923  1.00  0.00    -0.037 A 
HETATM   11  C6  UNL     1      27.342   7.387  48.522  1.00  0.00     0.012 A 
HETATM   12  C7  UNL     1      28.583   6.904  48.180  1.00  0.00     0.037 A 
HETATM   13  C8  UNL     1      28.700   5.519  48.274  1.00  0.00     0.065 A 
HETATM   14  C9  UNL     1      27.698   4.657  48.665  1.00  0.00     0.037 A 
HETATM   15  C10 UNL     1      26.452   5.197  49.003  1.00  0.00     0.012 A 
BRANCH  13  16
HETATM   16  O1  UNL     1      29.972   5.014  47.925  1.00  0.00    -0.361 OA
HETATM   17  H9  UNL     1      30.601   5.756  47.586  1.00  0.00     0.217 HD
ENDBRANCH  13  16
ENDBRANCH   9  10
ENDBRANCH   8   9
ENDBRANCH   3   7
BRANCH   1  18
HETATM   18  N1  UNL     1      20.031   3.056  52.286  1.00  0.00    -0.226 N 
HETATM   19  C1  UNL     1      18.755   3.417  51.680  1.00  0.00     0.165 C 
HETATM   20  H4  UNL     1      20.100   2.363  53.055  1.00  0.00     0.177 HD
ENDBRANCH   1  18
BRANCH   5  21
HETATM   21  N6  UNL     1      24.390   1.611  52.357  1.00  0.00    -0.217 N 
HETATM   22  H12 UNL     1      25.307   1.949  51.989  1.00  0.00     0.178 HD
BRANCH  21  23
HETATM   23  C12 UNL     1      24.160   0.315  52.902  1.00  0.00     0.173 C 
BRANCH  23  24
HETATM   24  C13 UNL     1      25.374  -0.442  53.293  1.00  0.00    -0.047 C 
HETATM   25  C14 UNL     1      26.294  -1.164  52.687  1.00  0.00    -0.021 C 
HETATM   26  C15 UNL     1      27.555  -0.865  52.905  1.00  0.00     0.012 C 
HETATM   27  C16 UNL     1      27.863   0.198  53.882  1.00  0.00    -0.003 C 
HETATM   28  C17 UNL     1      26.950   0.456  54.830  1.00  0.00    -0.022 C 
HETATM   29  C18 UNL     1      25.708  -0.402  54.760  1.00  0.00     0.064 C 
ENDBRANCH  23  24
ENDBRANCH  21  23
ENDBRANCH   5  21
TORSDOF 8
ENDMDL
