MODEL 1
REMARK VINA RESULT:      -8.6      0.000      0.000
REMARK  4 active torsions:
REMARK  status: ('A' for Active; 'I' for Inactive)
REMARK    1  A    between atoms: O1_2  and  C2_3 
REMARK    2  A    between atoms: C9_12  and  C10_13 
REMARK    3  A    between atoms: C10_13  and  C11_14 
REMARK    4  A    between atoms: C13_16  and  N1_17 
ROOT
HETATM    1  C2  UNL     1      20.589  -0.585  53.481  1.00  0.00     0.069 A 
HETATM    2  C3  UNL     1      21.684  -1.150  54.057  1.00  0.00     0.037 A 
HETATM    3  C4  UNL     1      22.978  -0.808  53.804  1.00  0.00     0.017 A 
HETATM    4  C5  UNL     1      23.243   0.195  52.890  1.00  0.00     0.004 A 
HETATM    5  C6  UNL     1      22.118   0.789  52.285  1.00  0.00     0.023 A 
HETATM    6  C7  UNL     1      20.844   0.414  52.571  1.00  0.00     0.056 A 
HETATM    7  S1  UNL     1      22.590   2.086  51.110  1.00  0.00    -0.046 SA
HETATM    8  C8  UNL     1      24.340   1.845  51.416  1.00  0.00     0.232 A 
HETATM    9  O2  UNL     1      25.201   2.527  50.826  1.00  0.00    -0.279 OA
HETATM   10  C9  UNL     1      24.435   0.782  52.403  1.00  0.00     0.079 A 
ENDROOT
BRANCH  10  11
HETATM   11  C10 UNL     1      25.640   0.440  52.777  1.00  0.00    -0.103 C 
BRANCH  11  12
HETATM   12  C11 UNL     1      26.827  -0.044  53.053  1.00  0.00    -0.006 C 
HETATM   13  C12 UNL     1      27.095  -1.403  52.793  1.00  0.00     0.040 C 
HETATM   14  C13 UNL     1      28.324  -1.744  53.246  1.00  0.00     0.003 C 
HETATM   15  C14 UNL     1      29.346  -0.915  53.935  1.00  0.00     0.057 C 
HETATM   16  C15 UNL     1      29.115   0.549  53.852  1.00  0.00     0.015 C 
HETATM   17  C16 UNL     1      27.705   0.978  53.608  1.00  0.00     0.023 C 
HETATM   18  C17 UNL     1      27.720   2.122  52.612  1.00  0.00     0.015 C 
BRANCH  14  19
HETATM   19  N1  UNL     1      28.678  -3.124  53.018  1.00  0.00    -0.402 N 
HETATM   20  H8  UNL     1      28.263  -3.894  53.573  1.00  0.00     0.156 HD
HETATM   21  H9  UNL     1      29.268  -3.759  52.438  1.00  0.00     0.156 HD
ENDBRANCH  14  19
ENDBRANCH  11  12
ENDBRANCH  10  11
BRANCH   1  22
HETATM   22  O1  UNL     1      19.294  -0.984  53.788  1.00  0.00    -0.356 OA
HETATM   23  C1  UNL     1      18.222  -0.881  52.876  1.00  0.00     0.210 C 
ENDBRANCH   1  22
TORSDOF 4
ENDMDL
MODEL 2
REMARK VINA RESULT:      -8.4      1.419      1.986
REMARK  4 active torsions:
REMARK  status: ('A' for Active; 'I' for Inactive)
REMARK    1  A    between atoms: O1_2  and  C2_3 
REMARK    2  A    between atoms: C9_12  and  C10_13 
REMARK    3  A    between atoms: C10_13  and  C11_14 
REMARK    4  A    between atoms: C13_16  and  N1_17 
ROOT
HETATM    1  C2  UNL     1      20.812  -0.137  53.190  1.00  0.00     0.069 A 
HETATM    2  C3  UNL     1      21.909  -0.714  53.751  1.00  0.00     0.037 A 
HETATM    3  C4  UNL     1      23.202  -0.378  53.489  1.00  0.00     0.017 A 
HETATM    4  C5  UNL     1      23.465   0.630  52.580  1.00  0.00     0.004 A 
HETATM    5  C6  UNL     1      22.339   1.236  51.990  1.00  0.00     0.023 A 
HETATM    6  C7  UNL     1      21.065   0.866  52.285  1.00  0.00     0.056 A 
HETATM    7  S1  UNL     1      22.807   2.538  50.819  1.00  0.00    -0.046 SA
HETATM    8  C8  UNL     1      24.559   2.284  51.107  1.00  0.00     0.232 A 
HETATM    9  O2  UNL     1      25.418   2.965  50.515  1.00  0.00    -0.279 OA
HETATM   10  C9  UNL     1      24.657   1.213  52.086  1.00  0.00     0.079 A 
ENDROOT
BRANCH  10  11
HETATM   11  C10 UNL     1      25.862   0.861  52.445  1.00  0.00    -0.103 C 
BRANCH  11  12
HETATM   12  C11 UNL     1      27.064   0.638  52.922  1.00  0.00    -0.006 C 
HETATM   13  C12 UNL     1      27.719   1.655  53.644  1.00  0.00     0.040 C 
HETATM   14  C13 UNL     1      28.984   1.285  53.953  1.00  0.00     0.003 C 
HETATM   15  C14 UNL     1      29.708   0.025  53.641  1.00  0.00     0.057 C 
HETATM   16  C15 UNL     1      28.840  -1.093  53.193  1.00  0.00     0.015 C 
HETATM   17  C16 UNL     1      27.526  -0.706  52.598  1.00  0.00     0.023 C 
HETATM   18  C17 UNL     1      26.468  -1.662  53.116  1.00  0.00     0.015 C 
BRANCH  14  19
HETATM   19  N1  UNL     1      29.727   2.274  54.696  1.00  0.00    -0.402 N 
HETATM   20  H8  UNL     1      30.033   3.164  54.266  1.00  0.00     0.156 HD
HETATM   21  H9  UNL     1      30.144   2.492  55.626  1.00  0.00     0.156 HD
ENDBRANCH  14  19
ENDBRANCH  11  12
ENDBRANCH  10  11
BRANCH   1  22
HETATM   22  O1  UNL     1      19.518  -0.531  53.506  1.00  0.00    -0.356 OA
HETATM   23  C1  UNL     1      18.470  -0.553  52.562  1.00  0.00     0.210 C 
ENDBRANCH   1  22
TORSDOF 4
ENDMDL
MODEL 3
REMARK VINA RESULT:      -8.2      3.324      7.384
REMARK  4 active torsions:
REMARK  status: ('A' for Active; 'I' for Inactive)
REMARK    1  A    between atoms: O1_2  and  C2_3 
REMARK    2  A    between atoms: C9_12  and  C10_13 
REMARK    3  A    between atoms: C10_13  and  C11_14 
REMARK    4  A    between atoms: C13_16  and  N1_17 
ROOT
HETATM    1  C2  UNL     1      26.601   1.588  52.700  1.00  0.00     0.069 A 
HETATM    2  C3  UNL     1      25.506   1.857  51.938  1.00  0.00     0.037 A 
HETATM    3  C4  UNL     1      24.264   1.333  52.123  1.00  0.00     0.017 A 
HETATM    4  C5  UNL     1      24.055   0.447  53.163  1.00  0.00     0.004 A 
HETATM    5  C6  UNL     1      25.179   0.157  53.960  1.00  0.00     0.023 A 
HETATM    6  C7  UNL     1      26.402   0.707  53.737  1.00  0.00     0.056 A 
HETATM    7  S1  UNL     1      24.784  -1.013  55.287  1.00  0.00    -0.046 SA
HETATM    8  C8  UNL     1      23.068  -1.136  54.781  1.00  0.00     0.232 A 
HETATM    9  O2  UNL     1      22.263  -1.866  55.393  1.00  0.00    -0.279 OA
HETATM   10  C9  UNL     1      22.923  -0.266  53.626  1.00  0.00     0.079 A 
ENDROOT
BRANCH  10  11
HETATM   11  C10 UNL     1      21.734  -0.204  53.089  1.00  0.00    -0.103 C 
BRANCH  11  12
HETATM   12  C11 UNL     1      20.483  -0.227  52.691  1.00  0.00    -0.006 C 
HETATM   13  C12 UNL     1      19.510  -0.829  53.513  1.00  0.00     0.040 C 
HETATM   14  C13 UNL     1      18.309  -0.859  52.889  1.00  0.00     0.003 C 
HETATM   15  C14 UNL     1      17.927  -0.370  51.539  1.00  0.00     0.057 C 
HETATM   16  C15 UNL     1      18.917   0.538  50.907  1.00  0.00     0.015 C 
HETATM   17  C16 UNL     1      20.324   0.417  51.394  1.00  0.00     0.023 C 
HETATM   18  C17 UNL     1      20.904   1.812  51.530  1.00  0.00     0.015 C 
BRANCH  14  19
HETATM   19  N1  UNL     1      17.252  -1.462  53.665  1.00  0.00    -0.402 N 
HETATM   20  H8  UNL     1      16.674  -2.236  53.294  1.00  0.00     0.156 HD
HETATM   21  H9  UNL     1      16.759  -1.432  54.583  1.00  0.00     0.156 HD
ENDBRANCH  14  19
ENDBRANCH  11  12
ENDBRANCH  10  11
BRANCH   1  22
HETATM   22  O1  UNL     1      27.842   2.161  52.453  1.00  0.00    -0.356 OA
HETATM   23  C1  UNL     1      28.752   2.495  53.479  1.00  0.00     0.210 C 
ENDBRANCH   1  22
TORSDOF 4
ENDMDL
MODEL 4
REMARK VINA RESULT:      -8.1      2.097      2.949
REMARK  4 active torsions:
REMARK  status: ('A' for Active; 'I' for Inactive)
REMARK    1  A    between atoms: O1_2  and  C2_3 
REMARK    2  A    between atoms: C9_12  and  C10_13 
REMARK    3  A    between atoms: C10_13  and  C11_14 
REMARK    4  A    between atoms: C13_16  and  N1_17 
ROOT
HETATM    1  C2  UNL     1      21.255   2.323  50.685  1.00  0.00     0.069 A 
HETATM    2  C3  UNL     1      22.587   2.351  50.412  1.00  0.00     0.037 A 
HETATM    3  C4  UNL     1      23.554   1.701  51.115  1.00  0.00     0.017 A 
HETATM    4  C5  UNL     1      23.193   0.935  52.208  1.00  0.00     0.004 A 
HETATM    5  C6  UNL     1      21.816   0.896  52.504  1.00  0.00     0.023 A 
HETATM    6  C7  UNL     1      20.886   1.563  51.771  1.00  0.00     0.056 A 
HETATM    7  S1  UNL     1      21.465  -0.135  53.952  1.00  0.00    -0.046 SA
HETATM    8  C8  UNL     1      23.196  -0.539  54.189  1.00  0.00     0.232 A 
HETATM    9  O2  UNL     1      23.566  -1.280  55.121  1.00  0.00    -0.279 OA
HETATM   10  C9  UNL     1      23.921   0.151  53.135  1.00  0.00     0.079 A 
ENDROOT
BRANCH  10  11
HETATM   11  C10 UNL     1      25.217  -0.008  53.119  1.00  0.00    -0.103 C 
BRANCH  11  12
HETATM   12  C11 UNL     1      26.490  -0.322  53.177  1.00  0.00    -0.006 C 
HETATM   13  C12 UNL     1      26.878  -1.663  52.992  1.00  0.00     0.040 C 
HETATM   14  C13 UNL     1      28.207  -1.811  53.200  1.00  0.00     0.003 C 
HETATM   15  C14 UNL     1      29.228  -0.799  53.575  1.00  0.00     0.057 C 
HETATM   16  C15 UNL     1      28.792   0.610  53.409  1.00  0.00     0.015 C 
HETATM   17  C16 UNL     1      27.318   0.849  53.435  1.00  0.00     0.023 C 
HETATM   18  C17 UNL     1      26.979   1.863  52.358  1.00  0.00     0.015 C 
BRANCH  14  19
HETATM   19  N1  UNL     1      28.687  -3.161  53.029  1.00  0.00    -0.402 N 
HETATM   20  H8  UNL     1      29.283  -3.623  53.739  1.00  0.00     0.156 HD
HETATM   21  H9  UNL     1      28.680  -3.984  52.389  1.00  0.00     0.156 HD
ENDBRANCH  14  19
ENDBRANCH  11  12
ENDBRANCH  10  11
BRANCH   1  22
HETATM   22  O1  UNL     1      20.322   3.013  49.923  1.00  0.00    -0.356 OA
HETATM   23  C1  UNL     1      19.039   2.502  49.631  1.00  0.00     0.210 C 
ENDBRANCH   1  22
TORSDOF 4
ENDMDL
MODEL 5
REMARK VINA RESULT:      -8.0      2.914      5.345
REMARK  4 active torsions:
REMARK  status: ('A' for Active; 'I' for Inactive)
REMARK    1  A    between atoms: O1_2  and  C2_3 
REMARK    2  A    between atoms: C9_12  and  C10_13 
REMARK    3  A    between atoms: C10_13  and  C11_14 
REMARK    4  A    between atoms: C13_16  and  N1_17 
ROOT
HETATM    1  C2  UNL     1      24.556   5.201  48.900  1.00  0.00     0.069 A 
HETATM    2  C3  UNL     1      25.799   4.856  49.332  1.00  0.00     0.037 A 
HETATM    3  C4  UNL     1      26.088   3.829  50.178  1.00  0.00     0.017 A 
HETATM    4  C5  UNL     1      25.057   3.045  50.662  1.00  0.00     0.004 A 
HETATM    5  C6  UNL     1      23.763   3.390  50.224  1.00  0.00     0.023 A 
HETATM    6  C7  UNL     1      23.525   4.425  49.377  1.00  0.00     0.056 A 
HETATM    7  S1  UNL     1      22.499   2.296  50.922  1.00  0.00    -0.046 SA
HETATM    8  C8  UNL     1      23.710   1.338  51.834  1.00  0.00     0.232 A 
HETATM    9  O2  UNL     1      23.370   0.375  52.549  1.00  0.00    -0.279 OA
HETATM   10  C9  UNL     1      25.003   1.931  51.534  1.00  0.00     0.079 A 
ENDROOT
BRANCH  10  11
HETATM   11  C10 UNL     1      26.042   1.380  52.102  1.00  0.00    -0.103 C 
BRANCH  11  12
HETATM   12  C11 UNL     1      27.128   0.987  52.726  1.00  0.00    -0.006 C 
HETATM   13  C12 UNL     1      27.867   1.922  53.477  1.00  0.00     0.040 C 
HETATM   14  C13 UNL     1      29.006   1.364  53.949  1.00  0.00     0.003 C 
HETATM   15  C14 UNL     1      29.530  -0.016  53.778  1.00  0.00     0.057 C 
HETATM   16  C15 UNL     1      28.534  -0.998  53.277  1.00  0.00     0.015 C 
HETATM   17  C16 UNL     1      27.380  -0.433  52.516  1.00  0.00     0.023 C 
HETATM   18  C17 UNL     1      26.122  -1.163  52.945  1.00  0.00     0.015 C 
BRANCH  14  19
HETATM   19  N1  UNL     1      29.825   2.258  54.732  1.00  0.00    -0.402 N 
HETATM   20  H8  UNL     1      30.291   1.950  55.604  1.00  0.00     0.156 HD
HETATM   21  H9  UNL     1      30.194   3.231  54.788  1.00  0.00     0.156 HD
ENDBRANCH  14  19
ENDBRANCH  11  12
ENDBRANCH  10  11
BRANCH   1  22
HETATM   22  O1  UNL     1      24.335   6.264  48.034  1.00  0.00    -0.356 OA
HETATM   23  C1  UNL     1      25.251   7.324  47.870  1.00  0.00     0.210 C 
ENDBRANCH   1  22
TORSDOF 4
ENDMDL
MODEL 6
REMARK VINA RESULT:      -7.9      3.134      6.859
REMARK  4 active torsions:
REMARK  status: ('A' for Active; 'I' for Inactive)
REMARK    1  A    between atoms: O1_2  and  C2_3 
REMARK    2  A    between atoms: C9_12  and  C10_13 
REMARK    3  A    between atoms: C10_13  and  C11_14 
REMARK    4  A    between atoms: C13_16  and  N1_17 
ROOT
HETATM    1  C2  UNL     1      27.433  -0.135  53.985  1.00  0.00     0.069 A 
HETATM    2  C3  UNL     1      26.242  -0.719  54.287  1.00  0.00     0.037 A 
HETATM    3  C4  UNL     1      25.038  -0.396  53.738  1.00  0.00     0.017 A 
HETATM    4  C5  UNL     1      24.979   0.606  52.789  1.00  0.00     0.004 A 
HETATM    5  C6  UNL     1      26.204   1.222  52.466  1.00  0.00     0.023 A 
HETATM    6  C7  UNL     1      27.382   0.864  53.041  1.00  0.00     0.056 A 
HETATM    7  S1  UNL     1      26.000   2.517  51.214  1.00  0.00    -0.046 SA
HETATM    8  C8  UNL     1      24.230   2.248  51.103  1.00  0.00     0.232 A 
HETATM    9  O2  UNL     1      23.521   2.921  50.329  1.00  0.00    -0.279 OA
HETATM   10  C9  UNL     1      23.923   1.179  52.039  1.00  0.00     0.079 A 
ENDROOT
BRANCH  10  11
HETATM   11  C10 UNL     1      22.671   0.818  52.120  1.00  0.00    -0.103 C 
BRANCH  11  12
HETATM   12  C11 UNL     1      21.397   0.516  52.039  1.00  0.00    -0.006 C 
HETATM   13  C12 UNL     1      20.708   0.749  50.832  1.00  0.00     0.040 C 
HETATM   14  C13 UNL     1      19.388   0.485  50.975  1.00  0.00     0.003 C 
HETATM   15  C14 UNL     1      18.637   0.015  52.168  1.00  0.00     0.057 C 
HETATM   16  C15 UNL     1      19.485  -0.521  53.262  1.00  0.00     0.015 C 
HETATM   17  C16 UNL     1      20.900  -0.043  53.290  1.00  0.00     0.023 C 
HETATM   18  C17 UNL     1      21.796  -1.222  53.622  1.00  0.00     0.015 C 
BRANCH  14  19
HETATM   19  N1  UNL     1      18.608   0.699  49.780  1.00  0.00    -0.402 N 
HETATM   20  H8  UNL     1      17.768   0.134  49.567  1.00  0.00     0.156 HD
HETATM   21  H9  UNL     1      18.533   1.276  48.914  1.00  0.00     0.156 HD
ENDBRANCH  14  19
ENDBRANCH  11  12
ENDBRANCH  10  11
BRANCH   1  22
HETATM   22  O1  UNL     1      28.625  -0.516  54.586  1.00  0.00    -0.356 OA
HETATM   23  C1  UNL     1      29.782  -0.854  53.851  1.00  0.00     0.210 C 
ENDBRANCH   1  22
TORSDOF 4
ENDMDL
MODEL 7
REMARK VINA RESULT:      -7.8      3.701      6.770
REMARK  4 active torsions:
REMARK  status: ('A' for Active; 'I' for Inactive)
REMARK    1  A    between atoms: O1_2  and  C2_3 
REMARK    2  A    between atoms: C9_12  and  C10_13 
REMARK    3  A    between atoms: C10_13  and  C11_14 
REMARK    4  A    between atoms: C13_16  and  N1_17 
ROOT
HETATM    1  C2  UNL     1      27.489  -0.197  53.620  1.00  0.00     0.069 A 
HETATM    2  C3  UNL     1      27.794   0.842  52.797  1.00  0.00     0.037 A 
HETATM    3  C4  UNL     1      26.897   1.588  52.096  1.00  0.00     0.017 A 
HETATM    4  C5  UNL     1      25.550   1.296  52.202  1.00  0.00     0.004 A 
HETATM    5  C6  UNL     1      25.218   0.222  53.051  1.00  0.00     0.023 A 
HETATM    6  C7  UNL     1      26.151  -0.494  53.732  1.00  0.00     0.056 A 
HETATM    7  S1  UNL     1      23.429  -0.065  53.110  1.00  0.00    -0.046 SA
HETATM    8  C8  UNL     1      23.091   1.279  51.971  1.00  0.00     0.232 A 
HETATM    9  O2  UNL     1      21.926   1.557  51.626  1.00  0.00    -0.279 OA
HETATM   10  C9  UNL     1      24.382   1.852  51.628  1.00  0.00     0.079 A 
ENDROOT
BRANCH  10  11
HETATM   11  C10 UNL     1      24.368   2.861  50.798  1.00  0.00    -0.103 C 
BRANCH  11  12
HETATM   12  C11 UNL     1      24.511   3.914  50.029  1.00  0.00    -0.006 C 
HETATM   13  C12 UNL     1      25.725   4.628  50.056  1.00  0.00     0.040 C 
HETATM   14  C13 UNL     1      25.645   5.740  49.289  1.00  0.00     0.003 C 
HETATM   15  C14 UNL     1      24.509   6.258  48.483  1.00  0.00     0.057 C 
HETATM   16  C15 UNL     1      23.420   5.278  48.247  1.00  0.00     0.015 C 
HETATM   17  C16 UNL     1      23.313   4.163  49.236  1.00  0.00     0.023 C 
HETATM   18  C17 UNL     1      23.021   2.881  48.481  1.00  0.00     0.015 C 
BRANCH  14  19
HETATM   19  N1  UNL     1      26.851   6.531  49.263  1.00  0.00    -0.402 N 
HETATM   20  H8  UNL     1      27.074   7.163  48.473  1.00  0.00     0.156 HD
HETATM   21  H9  UNL     1      27.720   6.761  49.792  1.00  0.00     0.156 HD
ENDBRANCH  14  19
ENDBRANCH  11  12
ENDBRANCH  10  11
BRANCH   1  22
HETATM   22  O1  UNL     1      28.459  -0.916  54.307  1.00  0.00    -0.356 OA
HETATM   23  C1  UNL     1      29.772  -1.093  53.820  1.00  0.00     0.210 C 
ENDBRANCH   1  22
TORSDOF 4
ENDMDL
MODEL 8
REMARK VINA RESULT:      -7.8      2.282      4.526
REMARK  4 active torsions:
REMARK  status: ('A' for Active; 'I' for Inactive)
REMARK    1  A    between atoms: O1_2  and  C2_3 
REMARK    2  A    between atoms: C9_12  and  C10_13 
REMARK    3  A    between atoms: C10_13  and  C11_14 
REMARK    4  A    between atoms: C13_16  and  N1_17 
ROOT
HETATM    1  C2  UNL     1      24.216   4.491  49.313  1.00  0.00     0.069 A 
HETATM    2  C3  UNL     1      25.470   3.983  49.461  1.00  0.00     0.037 A 
HETATM    3  C4  UNL     1      25.824   2.980  50.310  1.00  0.00     0.017 A 
HETATM    4  C5  UNL     1      24.856   2.401  51.109  1.00  0.00     0.004 A 
HETATM    5  C6  UNL     1      23.553   2.916  50.969  1.00  0.00     0.023 A 
HETATM    6  C7  UNL     1      23.247   3.920  50.105  1.00  0.00     0.056 A 
HETATM    7  S1  UNL     1      22.374   2.082  52.064  1.00  0.00    -0.046 SA
HETATM    8  C8  UNL     1      23.638   1.006  52.743  1.00  0.00     0.232 A 
HETATM    9  O2  UNL     1      23.366   0.157  53.614  1.00  0.00    -0.279 OA
HETATM   10  C9  UNL     1      24.878   1.368  52.077  1.00  0.00     0.079 A 
ENDROOT
BRANCH  10  11
HETATM   11  C10 UNL     1      25.944   0.698  52.426  1.00  0.00    -0.103 C 
BRANCH  11  12
HETATM   12  C11 UNL     1      27.028   0.138  52.909  1.00  0.00    -0.006 C 
HETATM   13  C12 UNL     1      27.289  -1.216  52.625  1.00  0.00     0.040 C 
HETATM   14  C13 UNL     1      28.382  -1.645  53.298  1.00  0.00     0.003 C 
HETATM   15  C14 UNL     1      29.270  -0.910  54.234  1.00  0.00     0.057 C 
HETATM   16  C15 UNL     1      29.120   0.567  54.198  1.00  0.00     0.015 C 
HETATM   17  C16 UNL     1      27.811   1.082  53.697  1.00  0.00     0.023 C 
HETATM   18  C17 UNL     1      28.079   2.276  52.800  1.00  0.00     0.015 C 
BRANCH  14  19
HETATM   19  N1  UNL     1      28.719  -3.028  53.061  1.00  0.00    -0.402 N 
HETATM   20  H8  UNL     1      29.674  -3.319  52.788  1.00  0.00     0.156 HD
HETATM   21  H9  UNL     1      28.338  -3.999  53.050  1.00  0.00     0.156 HD
ENDBRANCH  14  19
ENDBRANCH  11  12
ENDBRANCH  10  11
BRANCH   1  22
HETATM   22  O1  UNL     1      23.926   5.518  48.424  1.00  0.00    -0.356 OA
HETATM   23  C1  UNL     1      24.666   6.717  48.368  1.00  0.00     0.210 C 
ENDBRANCH   1  22
TORSDOF 4
ENDMDL
MODEL 9
REMARK VINA RESULT:      -7.7      3.158      4.879
REMARK  4 active torsions:
REMARK  status: ('A' for Active; 'I' for Inactive)
REMARK    1  A    between atoms: O1_2  and  C2_3 
REMARK    2  A    between atoms: C9_12  and  C10_13 
REMARK    3  A    between atoms: C10_13  and  C11_14 
REMARK    4  A    between atoms: C13_16  and  N1_17 
ROOT
HETATM    1  C2  UNL     1      21.175  -0.413  53.434  1.00  0.00     0.069 A 
HETATM    2  C3  UNL     1      21.061   0.592  52.524  1.00  0.00     0.037 A 
HETATM    3  C4  UNL     1      22.097   1.242  51.927  1.00  0.00     0.017 A 
HETATM    4  C5  UNL     1      23.393   0.881  52.246  1.00  0.00     0.004 A 
HETATM    5  C6  UNL     1      23.527  -0.158  53.188  1.00  0.00     0.023 A 
HETATM    6  C7  UNL     1      22.461  -0.779  53.757  1.00  0.00     0.056 A 
HETATM    7  S1  UNL     1      25.266  -0.543  53.526  1.00  0.00    -0.046 SA
HETATM    8  C8  UNL     1      25.853   0.711  52.387  1.00  0.00     0.232 A 
HETATM    9  O2  UNL     1      27.071   0.903  52.206  1.00  0.00    -0.279 OA
HETATM   10  C9  UNL     1      24.666   1.336  51.827  1.00  0.00     0.079 A 
ENDROOT
BRANCH  10  11
HETATM   11  C10 UNL     1      24.865   2.292  50.959  1.00  0.00    -0.103 C 
BRANCH  11  12
HETATM   12  C11 UNL     1      25.154   3.333  50.214  1.00  0.00    -0.006 C 
HETATM   13  C12 UNL     1      26.504   3.667  49.991  1.00  0.00     0.040 C 
HETATM   14  C13 UNL     1      26.603   4.827  49.301  1.00  0.00     0.003 C 
HETATM   15  C14 UNL     1      25.533   5.723  48.791  1.00  0.00     0.057 C 
HETATM   16  C15 UNL     1      24.177   5.120  48.774  1.00  0.00     0.015 C 
HETATM   17  C16 UNL     1      23.949   3.989  49.723  1.00  0.00     0.023 C 
HETATM   18  C17 UNL     1      23.138   2.924  49.010  1.00  0.00     0.015 C 
BRANCH  14  19
HETATM   19  N1  UNL     1      27.958   5.242  49.029  1.00  0.00    -0.402 N 
HETATM   20  H8  UNL     1      28.256   6.230  49.115  1.00  0.00     0.156 HD
HETATM   21  H9  UNL     1      28.901   4.904  48.737  1.00  0.00     0.156 HD
ENDBRANCH  14  19
ENDBRANCH  11  12
ENDBRANCH  10  11
BRANCH   1  22
HETATM   22  O1  UNL     1      20.071  -1.033  54.003  1.00  0.00    -0.356 OA
HETATM   23  C1  UNL     1      18.818  -1.115  53.358  1.00  0.00     0.210 C 
ENDBRANCH   1  22
TORSDOF 4
ENDMDL
