MODEL 1
REMARK VINA RESULT:      -8.5      0.000      0.000
REMARK  6 active torsions:
REMARK  status: ('A' for Active; 'I' for Inactive)
REMARK    1  A    between atoms: C5_6  and  C6_7 
REMARK    2  A    between atoms: C6_7  and  O1_8 
REMARK    3  A    between atoms: O1_8  and  C7_9 
REMARK    4  A    between atoms: C8_10  and  N1_11 
REMARK    5  A    between atoms: N1_11  and  C9_12 
REMARK    6  A    between atoms: C11_14  and  N2_15 
ROOT
HETATM    1  C7  UNL     1      23.705   0.569  52.788  1.00  0.00     0.117 A 
HETATM    2  C8  UNL     1      22.703   0.801  51.934  1.00  0.00     0.070 A 
HETATM    3  C17 UNL     1      21.831  -0.049  52.729  1.00  0.00     0.059 A 
HETATM    4  C18 UNL     1      22.821  -0.299  53.603  1.00  0.00     0.071 A 
HETATM    5 CL1  UNL     1      22.591  -1.346  55.017  1.00  0.00    -0.081 Cl
ENDROOT
BRANCH   2   6
HETATM    6  N1  UNL     1      22.715   1.605  50.762  1.00  0.00    -0.339 N 
HETATM    7  H6  UNL     1      22.517   1.244  49.809  1.00  0.00     0.167 HD
BRANCH   6   8
HETATM    8  C9  UNL     1      23.029   2.963  51.033  1.00  0.00     0.133 A 
HETATM    9  C10 UNL     1      24.148   3.431  50.376  1.00  0.00     0.100 A 
HETATM   10  C11 UNL     1      24.625   4.737  50.505  1.00  0.00     0.130 A 
HETATM   11  N3  UNL     1      23.950   5.571  51.312  1.00  0.00    -0.224 NA
HETATM   12  C16 UNL     1      22.857   5.121  51.956  1.00  0.00     0.237 A 
HETATM   13  N4  UNL     1      22.395   3.864  51.835  1.00  0.00    -0.224 NA
BRANCH  10  14
HETATM   14  N2  UNL     1      25.780   5.171  49.813  1.00  0.00    -0.366 N 
HETATM   15  C12 UNL     1      26.800   4.288  49.232  1.00  0.00     0.124 C 
HETATM   16  C13 UNL     1      27.795   5.238  48.600  1.00  0.00     0.021 C 
HETATM   17  C14 UNL     1      26.874   6.400  48.226  1.00  0.00     0.021 C 
HETATM   18  C15 UNL     1      26.141   6.561  49.564  1.00  0.00     0.124 C 
ENDBRANCH  10  14
ENDBRANCH   6   8
ENDBRANCH   2   6
BRANCH   1  19
HETATM   19  O1  UNL     1      24.998   0.695  53.266  1.00  0.00    -0.343 OA
BRANCH  19  20
HETATM   20  C6  UNL     1      26.078   1.205  52.506  1.00  0.00     0.214 C 
BRANCH  20  21
HETATM   21  C5  UNL     1      27.276   0.369  52.864  1.00  0.00    -0.031 A 
HETATM   22  C4  UNL     1      28.406   1.021  53.349  1.00  0.00     0.009 A 
HETATM   23  C3  UNL     1      29.533   0.307  53.693  1.00  0.00     0.004 A 
HETATM   24  C2  UNL     1      29.580  -1.071  53.571  1.00  0.00     0.042 A 
HETATM   25  C1  UNL     1      28.437  -1.715  53.082  1.00  0.00     0.117 A 
HETATM   26  F1  UNL     1      28.458  -3.058  52.953  1.00  0.00    -0.206 F 
HETATM   27  C19 UNL     1      27.301  -1.009  52.733  1.00  0.00     0.051 A 
ENDBRANCH  20  21
ENDBRANCH  19  20
ENDBRANCH   1  19
TORSDOF 6
ENDMDL
MODEL 2
REMARK VINA RESULT:      -8.4      2.804      5.763
REMARK  6 active torsions:
REMARK  status: ('A' for Active; 'I' for Inactive)
REMARK    1  A    between atoms: C5_6  and  C6_7 
REMARK    2  A    between atoms: C6_7  and  O1_8 
REMARK    3  A    between atoms: O1_8  and  C7_9 
REMARK    4  A    between atoms: C8_10  and  N1_11 
REMARK    5  A    between atoms: N1_11  and  C9_12 
REMARK    6  A    between atoms: C11_14  and  N2_15 
ROOT
HETATM    1  C7  UNL     1      25.856   3.726  50.362  1.00  0.00     0.117 A 
HETATM    2  C8  UNL     1      24.742   4.444  50.184  1.00  0.00     0.070 A 
HETATM    3  C17 UNL     1      25.425   5.255  49.190  1.00  0.00     0.059 A 
HETATM    4  C18 UNL     1      26.558   4.550  49.349  1.00  0.00     0.071 A 
HETATM    5 CL1  UNL     1      28.033   4.910  48.429  1.00  0.00    -0.081 Cl
ENDROOT
BRANCH   2   6
HETATM    6  N1  UNL     1      23.486   4.292  50.832  1.00  0.00    -0.339 N 
HETATM    7  H6  UNL     1      23.082   4.991  51.484  1.00  0.00     0.167 HD
BRANCH   6   8
HETATM    8  C9  UNL     1      22.836   3.077  50.490  1.00  0.00     0.133 A 
HETATM    9  C10 UNL     1      22.541   2.267  51.567  1.00  0.00     0.100 A 
HETATM   10  C11 UNL     1      21.903   1.031  51.446  1.00  0.00     0.130 A 
HETATM   11  N3  UNL     1      21.564   0.621  50.213  1.00  0.00    -0.224 NA
HETATM   12  C16 UNL     1      21.850   1.405  49.158  1.00  0.00     0.237 A 
HETATM   13  N4  UNL     1      22.465   2.597  49.270  1.00  0.00    -0.224 NA
BRANCH  10  14
HETATM   14  N2  UNL     1      21.622   0.233  52.581  1.00  0.00    -0.366 N 
HETATM   15  C12 UNL     1      22.435  -0.899  53.041  1.00  0.00     0.124 C 
HETATM   16  C13 UNL     1      21.721  -1.388  54.282  1.00  0.00     0.021 C 
HETATM   17  C14 UNL     1      21.108  -0.080  54.785  1.00  0.00     0.021 C 
HETATM   18  C15 UNL     1      20.482   0.409  53.473  1.00  0.00     0.124 C 
ENDBRANCH  10  14
ENDBRANCH   6   8
ENDBRANCH   2   6
BRANCH   1  19
HETATM   19  O1  UNL     1      26.623   2.724  50.932  1.00  0.00    -0.343 OA
BRANCH  19  20
HETATM   20  C6  UNL     1      26.093   1.653  51.689  1.00  0.00     0.214 C 
BRANCH  20  21
HETATM   21  C5  UNL     1      27.208   1.171  52.575  1.00  0.00    -0.031 A 
HETATM   22  C4  UNL     1      27.431  -0.201  52.656  1.00  0.00     0.009 A 
HETATM   23  C3  UNL     1      28.439  -0.701  53.451  1.00  0.00     0.004 A 
HETATM   24  C2  UNL     1      29.259   0.136  54.189  1.00  0.00     0.042 A 
HETATM   25  C1  UNL     1      29.025   1.513  54.099  1.00  0.00     0.117 A 
HETATM   26  F1  UNL     1      29.811   2.349  54.808  1.00  0.00    -0.206 F 
HETATM   27  C19 UNL     1      28.017   2.026  53.305  1.00  0.00     0.051 A 
ENDBRANCH  20  21
ENDBRANCH  19  20
ENDBRANCH   1  19
TORSDOF 6
ENDMDL
MODEL 3
REMARK VINA RESULT:      -8.4      3.474      6.779
REMARK  6 active torsions:
REMARK  status: ('A' for Active; 'I' for Inactive)
REMARK    1  A    between atoms: C5_6  and  C6_7 
REMARK    2  A    between atoms: C6_7  and  O1_8 
REMARK    3  A    between atoms: O1_8  and  C7_9 
REMARK    4  A    between atoms: C8_10  and  N1_11 
REMARK    5  A    between atoms: N1_11  and  C9_12 
REMARK    6  A    between atoms: C11_14  and  N2_15 
ROOT
HETATM    1  C7  UNL     1      24.272   3.103  50.803  1.00  0.00     0.117 A 
HETATM    2  C8  UNL     1      23.655   2.294  51.672  1.00  0.00     0.070 A 
HETATM    3  C17 UNL     1      23.290   3.445  52.481  1.00  0.00     0.059 A 
HETATM    4  C18 UNL     1      23.902   4.280  51.624  1.00  0.00     0.071 A 
HETATM    5 CL1  UNL     1      23.939   6.036  51.879  1.00  0.00    -0.081 Cl
ENDROOT
BRANCH   2   6
HETATM    6  N1  UNL     1      23.532   0.879  51.621  1.00  0.00    -0.339 N 
HETATM    7  H6  UNL     1      23.116   0.362  50.823  1.00  0.00     0.167 HD
BRANCH   6   8
HETATM    8  C9  UNL     1      24.041   0.243  52.783  1.00  0.00     0.133 A 
HETATM    9  C10 UNL     1      25.419   0.188  52.845  1.00  0.00     0.100 A 
HETATM   10  C11 UNL     1      26.117  -0.394  53.905  1.00  0.00     0.130 A 
HETATM   11  N3  UNL     1      25.401  -0.924  54.910  1.00  0.00    -0.224 NA
HETATM   12  C16 UNL     1      24.057  -0.874  54.855  1.00  0.00     0.237 A 
HETATM   13  N4  UNL     1      23.380  -0.315  53.835  1.00  0.00    -0.224 NA
BRANCH  10  14
HETATM   14  N2  UNL     1      27.532  -0.429  53.924  1.00  0.00    -0.366 N 
HETATM   15  C12 UNL     1      28.367  -1.319  53.108  1.00  0.00     0.124 C 
HETATM   16  C13 UNL     1      29.784  -0.948  53.487  1.00  0.00     0.021 C 
HETATM   17  C14 UNL     1      29.604   0.531  53.831  1.00  0.00     0.021 C 
HETATM   18  C15 UNL     1      28.384   0.413  54.754  1.00  0.00     0.124 C 
ENDBRANCH  10  14
ENDBRANCH   6   8
ENDBRANCH   2   6
BRANCH   1  19
HETATM   19  O1  UNL     1      24.998   3.393  49.661  1.00  0.00    -0.343 OA
BRANCH  19  20
HETATM   20  C6  UNL     1      26.412   3.379  49.594  1.00  0.00     0.214 C 
BRANCH  20  21
HETATM   21  C5  UNL     1      26.818   4.695  48.991  1.00  0.00    -0.031 A 
HETATM   22  C4  UNL     1      25.842   5.679  48.855  1.00  0.00     0.009 A 
HETATM   23  C3  UNL     1      26.155   6.905  48.309  1.00  0.00     0.004 A 
HETATM   24  C2  UNL     1      27.439   7.199  47.882  1.00  0.00     0.042 A 
HETATM   25  C1  UNL     1      28.411   6.201  48.025  1.00  0.00     0.117 A 
HETATM   26  F1  UNL     1      29.670   6.463  47.617  1.00  0.00    -0.206 F 
HETATM   27  C19 UNL     1      28.108   4.967  48.571  1.00  0.00     0.051 A 
ENDBRANCH  20  21
ENDBRANCH  19  20
ENDBRANCH   1  19
TORSDOF 6
ENDMDL
MODEL 4
REMARK VINA RESULT:      -8.4      3.300      6.277
REMARK  6 active torsions:
REMARK  status: ('A' for Active; 'I' for Inactive)
REMARK    1  A    between atoms: C5_6  and  C6_7 
REMARK    2  A    between atoms: C6_7  and  O1_8 
REMARK    3  A    between atoms: O1_8  and  C7_9 
REMARK    4  A    between atoms: C8_10  and  N1_11 
REMARK    5  A    between atoms: N1_11  and  C9_12 
REMARK    6  A    between atoms: C11_14  and  N2_15 
ROOT
HETATM    1  C7  UNL     1      22.706   1.810  51.532  1.00  0.00     0.117 A 
HETATM    2  C8  UNL     1      21.980   0.956  52.261  1.00  0.00     0.070 A 
HETATM    3  C17 UNL     1      21.081   2.037  52.630  1.00  0.00     0.059 A 
HETATM    4  C18 UNL     1      21.793   2.917  51.905  1.00  0.00     0.071 A 
HETATM    5 CL1  UNL     1      21.346   4.632  51.795  1.00  0.00    -0.081 Cl
ENDROOT
BRANCH   2   6
HETATM    6  N1  UNL     1      22.195  -0.436  52.456  1.00  0.00    -0.339 N 
HETATM    7  H6  UNL     1      21.778  -1.175  51.860  1.00  0.00     0.167 HD
BRANCH   6   8
HETATM    8  C9  UNL     1      23.044  -0.709  53.560  1.00  0.00     0.133 A 
HETATM    9  C10 UNL     1      24.386  -0.502  53.311  1.00  0.00     0.100 A 
HETATM   10  C11 UNL     1      25.385  -0.711  54.264  1.00  0.00     0.130 A 
HETATM   11  N3  UNL     1      25.009  -1.134  55.481  1.00  0.00    -0.224 NA
HETATM   12  C16 UNL     1      23.703  -1.339  55.731  1.00  0.00     0.237 A 
HETATM   13  N4  UNL     1      22.737  -1.140  54.815  1.00  0.00    -0.224 NA
BRANCH  10  14
HETATM   14  N2  UNL     1      26.749  -0.486  53.962  1.00  0.00    -0.366 N 
HETATM   15  C12 UNL     1      27.705   0.207  54.834  1.00  0.00     0.124 C 
HETATM   16  C13 UNL     1      29.008   0.163  54.064  1.00  0.00     0.021 C 
HETATM   17  C14 UNL     1      28.832  -1.145  53.292  1.00  0.00     0.021 C 
HETATM   18  C15 UNL     1      27.422  -0.907  52.739  1.00  0.00     0.124 C 
ENDBRANCH  10  14
ENDBRANCH   6   8
ENDBRANCH   2   6
BRANCH   1  19
HETATM   19  O1  UNL     1      23.751   2.172  50.699  1.00  0.00    -0.343 OA
BRANCH  19  20
HETATM   20  C6  UNL     1      25.063   2.453  51.149  1.00  0.00     0.214 C 
BRANCH  20  21
HETATM   21  C5  UNL     1      25.555   3.606  50.318  1.00  0.00    -0.031 A 
HETATM   22  C4  UNL     1      24.751   4.740  50.235  1.00  0.00     0.009 A 
HETATM   23  C3  UNL     1      25.150   5.828  49.489  1.00  0.00     0.004 A 
HETATM   24  C2  UNL     1      26.352   5.831  48.803  1.00  0.00     0.042 A 
HETATM   25  C1  UNL     1      27.151   4.685  48.894  1.00  0.00     0.117 A 
HETATM   26  F1  UNL     1      28.327   4.664  48.234  1.00  0.00    -0.206 F 
HETATM   27  C19 UNL     1      26.761   3.588  49.639  1.00  0.00     0.051 A 
ENDBRANCH  20  21
ENDBRANCH  19  20
ENDBRANCH   1  19
TORSDOF 6
ENDMDL
MODEL 5
REMARK VINA RESULT:      -8.3      1.219      1.767
REMARK  6 active torsions:
REMARK  status: ('A' for Active; 'I' for Inactive)
REMARK    1  A    between atoms: C5_6  and  C6_7 
REMARK    2  A    between atoms: C6_7  and  O1_8 
REMARK    3  A    between atoms: O1_8  and  C7_9 
REMARK    4  A    between atoms: C8_10  and  N1_11 
REMARK    5  A    between atoms: N1_11  and  C9_12 
REMARK    6  A    between atoms: C11_14  and  N2_15 
ROOT
HETATM    1  C7  UNL     1      24.598   1.662  51.538  1.00  0.00     0.117 A 
HETATM    2  C8  UNL     1      23.498   2.080  50.903  1.00  0.00     0.070 A 
HETATM    3  C17 UNL     1      22.681   1.260  51.782  1.00  0.00     0.059 A 
HETATM    4  C18 UNL     1      23.770   0.824  52.438  1.00  0.00     0.071 A 
HETATM    5 CL1  UNL     1      23.664  -0.320  53.791  1.00  0.00    -0.081 Cl
ENDROOT
BRANCH   2   6
HETATM    6  N1  UNL     1      23.404   2.984  49.810  1.00  0.00    -0.339 N 
HETATM    7  H6  UNL     1      22.964   2.749  48.901  1.00  0.00     0.167 HD
BRANCH   6   8
HETATM    8  C9  UNL     1      23.980   4.250  50.095  1.00  0.00     0.133 A 
HETATM    9  C10 UNL     1      25.111   4.539  49.359  1.00  0.00     0.100 A 
HETATM   10  C11 UNL     1      25.827   5.731  49.487  1.00  0.00     0.130 A 
HETATM   11  N3  UNL     1      25.381   6.635  50.375  1.00  0.00    -0.224 NA
HETATM   12  C16 UNL     1      24.279   6.359  51.096  1.00  0.00     0.237 A 
HETATM   13  N4  UNL     1      23.587   5.211  50.976  1.00  0.00    -0.224 NA
BRANCH  10  14
HETATM   14  N2  UNL     1      26.983   5.983  48.711  1.00  0.00    -0.366 N 
HETATM   15  C12 UNL     1      27.286   7.249  48.032  1.00  0.00     0.124 C 
HETATM   16  C13 UNL     1      28.625   7.002  47.370  1.00  0.00     0.021 C 
HETATM   17  C14 UNL     1      29.239   5.999  48.346  1.00  0.00     0.021 C 
HETATM   18  C15 UNL     1      28.057   5.029  48.464  1.00  0.00     0.124 C 
ENDBRANCH  10  14
ENDBRANCH   6   8
ENDBRANCH   2   6
BRANCH   1  19
HETATM   19  O1  UNL     1      25.961   1.603  51.777  1.00  0.00    -0.343 OA
BRANCH  19  20
HETATM   20  C6  UNL     1      26.548   1.733  53.058  1.00  0.00     0.214 C 
BRANCH  20  21
HETATM   21  C5  UNL     1      27.573   0.638  53.164  1.00  0.00    -0.031 A 
HETATM   22  C4  UNL     1      28.867   0.989  53.541  1.00  0.00     0.009 A 
HETATM   23  C3  UNL     1      29.848   0.029  53.655  1.00  0.00     0.004 A 
HETATM   24  C2  UNL     1      29.585  -1.307  53.401  1.00  0.00     0.042 A 
HETATM   25  C1  UNL     1      28.281  -1.647  53.022  1.00  0.00     0.117 A 
HETATM   26  F1  UNL     1      27.999  -2.941  52.770  1.00  0.00    -0.206 F 
HETATM   27  C19 UNL     1      27.288  -0.692  52.905  1.00  0.00     0.051 A 
ENDBRANCH  20  21
ENDBRANCH  19  20
ENDBRANCH   1  19
TORSDOF 6
ENDMDL
MODEL 6
REMARK VINA RESULT:      -8.0      2.803      5.508
REMARK  6 active torsions:
REMARK  status: ('A' for Active; 'I' for Inactive)
REMARK    1  A    between atoms: C5_6  and  C6_7 
REMARK    2  A    between atoms: C6_7  and  O1_8 
REMARK    3  A    between atoms: O1_8  and  C7_9 
REMARK    4  A    between atoms: C8_10  and  N1_11 
REMARK    5  A    between atoms: N1_11  and  C9_12 
REMARK    6  A    between atoms: C11_14  and  N2_15 
ROOT
HETATM    1  C7  UNL     1      24.886   4.449  50.765  1.00  0.00     0.117 A 
HETATM    2  C8  UNL     1      24.197   5.533  51.134  1.00  0.00     0.070 A 
HETATM    3  C17 UNL     1      24.984   6.343  50.219  1.00  0.00     0.059 A 
HETATM    4  C18 UNL     1      25.693   5.269  49.830  1.00  0.00     0.071 A 
HETATM    5 CL1  UNL     1      26.988   5.378  48.621  1.00  0.00    -0.081 Cl
ENDROOT
BRANCH   2   6
HETATM    6  N1  UNL     1      23.139   5.623  52.080  1.00  0.00    -0.339 N 
HETATM    7  H6  UNL     1      23.130   6.287  52.876  1.00  0.00     0.167 HD
BRANCH   6   8
HETATM    8  C9  UNL     1      22.091   4.702  51.818  1.00  0.00     0.133 A 
HETATM    9  C10 UNL     1      22.254   3.469  52.415  1.00  0.00     0.100 A 
HETATM   10  C11 UNL     1      21.337   2.425  52.284  1.00  0.00     0.130 A 
HETATM   11  N3  UNL     1      20.243   2.644  51.537  1.00  0.00    -0.224 NA
HETATM   12  C16 UNL     1      20.078   3.844  50.951  1.00  0.00     0.237 A 
HETATM   13  N4  UNL     1      20.960   4.853  51.074  1.00  0.00    -0.224 NA
BRANCH  10  14
HETATM   14  N2  UNL     1      21.548   1.175  52.914  1.00  0.00    -0.366 N 
HETATM   15  C12 UNL     1      22.818   0.438  52.926  1.00  0.00     0.124 C 
HETATM   16  C13 UNL     1      22.517  -0.804  53.736  1.00  0.00     0.021 C 
HETATM   17  C14 UNL     1      21.443  -0.268  54.683  1.00  0.00     0.021 C 
HETATM   18  C15 UNL     1      20.541   0.423  53.652  1.00  0.00     0.124 C 
ENDBRANCH  10  14
ENDBRANCH   6   8
ENDBRANCH   2   6
BRANCH   1  19
HETATM   19  O1  UNL     1      25.213   3.104  50.790  1.00  0.00    -0.343 OA
BRANCH  19  20
HETATM   20  C6  UNL     1      26.530   2.610  50.946  1.00  0.00     0.214 C 
BRANCH  20  21
HETATM   21  C5  UNL     1      26.461   1.557  52.017  1.00  0.00    -0.031 A 
HETATM   22  C4  UNL     1      26.259   1.974  53.330  1.00  0.00     0.009 A 
HETATM   23  C3  UNL     1      26.186   1.054  54.353  1.00  0.00     0.004 A 
HETATM   24  C2  UNL     1      26.309  -0.304  54.114  1.00  0.00     0.042 A 
HETATM   25  C1  UNL     1      26.512  -0.710  52.790  1.00  0.00     0.117 A 
HETATM   26  F1  UNL     1      26.636  -2.028  52.531  1.00  0.00    -0.206 F 
HETATM   27  C19 UNL     1      26.587   0.203  51.755  1.00  0.00     0.051 A 
ENDBRANCH  20  21
ENDBRANCH  19  20
ENDBRANCH   1  19
TORSDOF 6
ENDMDL
MODEL 7
REMARK VINA RESULT:      -8.0      2.969      5.193
REMARK  6 active torsions:
REMARK  status: ('A' for Active; 'I' for Inactive)
REMARK    1  A    between atoms: C5_6  and  C6_7 
REMARK    2  A    between atoms: C6_7  and  O1_8 
REMARK    3  A    between atoms: O1_8  and  C7_9 
REMARK    4  A    between atoms: C8_10  and  N1_11 
REMARK    5  A    between atoms: N1_11  and  C9_12 
REMARK    6  A    between atoms: C11_14  and  N2_15 
ROOT
HETATM    1  C7  UNL     1      26.572   1.025  52.729  1.00  0.00     0.117 A 
HETATM    2  C8  UNL     1      26.989   2.202  52.250  1.00  0.00     0.070 A 
HETATM    3  C17 UNL     1      28.113   2.177  53.172  1.00  0.00     0.059 A 
HETATM    4  C18 UNL     1      27.717   0.994  53.671  1.00  0.00     0.071 A 
HETATM    5 CL1  UNL     1      28.610   0.165  54.962  1.00  0.00    -0.081 Cl
ENDROOT
BRANCH   2   6
HETATM    6  N1  UNL     1      26.398   2.995  51.229  1.00  0.00    -0.339 N 
HETATM    7  H6  UNL     1      26.925   3.401  50.433  1.00  0.00     0.167 HD
BRANCH   6   8
HETATM    8  C9  UNL     1      25.002   3.173  51.413  1.00  0.00     0.133 A 
HETATM    9  C10 UNL     1      24.255   3.052  50.259  1.00  0.00     0.100 A 
HETATM   10  C11 UNL     1      22.866   3.191  50.224  1.00  0.00     0.130 A 
HETATM   11  N3  UNL     1      22.236   3.455  51.380  1.00  0.00    -0.224 NA
HETATM   12  C16 UNL     1      22.958   3.576  52.509  1.00  0.00     0.237 A 
HETATM   13  N4  UNL     1      24.297   3.443  52.547  1.00  0.00    -0.224 NA
BRANCH  10  14
HETATM   14  N2  UNL     1      22.143   3.059  49.015  1.00  0.00    -0.366 N 
HETATM   15  C12 UNL     1      20.879   3.741  48.708  1.00  0.00     0.124 C 
HETATM   16  C13 UNL     1      20.542   3.280  47.306  1.00  0.00     0.021 C 
HETATM   17  C14 UNL     1      21.944   3.061  46.739  1.00  0.00     0.021 C 
HETATM   18  C15 UNL     1      22.536   2.229  47.884  1.00  0.00     0.124 C 
ENDBRANCH  10  14
ENDBRANCH   6   8
ENDBRANCH   2   6
BRANCH   1  19
HETATM   19  O1  UNL     1      25.725  -0.067  52.805  1.00  0.00    -0.343 OA
BRANCH  19  20
HETATM   20  C6  UNL     1      25.144  -0.540  54.006  1.00  0.00     0.214 C 
BRANCH  20  21
HETATM   21  C5  UNL     1      23.657  -0.536  53.784  1.00  0.00    -0.031 A 
HETATM   22  C4  UNL     1      22.846  -1.053  54.791  1.00  0.00     0.009 A 
HETATM   23  C3  UNL     1      21.476  -1.076  54.644  1.00  0.00     0.004 A 
HETATM   24  C2  UNL     1      20.864  -0.588  53.501  1.00  0.00     0.042 A 
HETATM   25  C1  UNL     1      21.691  -0.071  52.497  1.00  0.00     0.117 A 
HETATM   26  F1  UNL     1      21.118   0.410  51.374  1.00  0.00    -0.206 F 
HETATM   27  C19 UNL     1      23.066  -0.043  52.633  1.00  0.00     0.051 A 
ENDBRANCH  20  21
ENDBRANCH  19  20
ENDBRANCH   1  19
TORSDOF 6
ENDMDL
MODEL 8
REMARK VINA RESULT:      -7.8      2.615      5.537
REMARK  6 active torsions:
REMARK  status: ('A' for Active; 'I' for Inactive)
REMARK    1  A    between atoms: C5_6  and  C6_7 
REMARK    2  A    between atoms: C6_7  and  O1_8 
REMARK    3  A    between atoms: O1_8  and  C7_9 
REMARK    4  A    between atoms: C8_10  and  N1_11 
REMARK    5  A    between atoms: N1_11  and  C9_12 
REMARK    6  A    between atoms: C11_14  and  N2_15 
ROOT
HETATM    1  C7  UNL     1      21.728   2.785  50.980  1.00  0.00     0.117 A 
HETATM    2  C8  UNL     1      22.018   3.874  51.699  1.00  0.00     0.070 A 
HETATM    3  C17 UNL     1      20.748   4.466  51.312  1.00  0.00     0.059 A 
HETATM    4  C18 UNL     1      20.431   3.382  50.583  1.00  0.00     0.071 A 
HETATM    5 CL1  UNL     1      18.903   3.259  49.688  1.00  0.00    -0.081 Cl
ENDROOT
BRANCH   2   6
HETATM    6  N1  UNL     1      23.185   4.136  52.467  1.00  0.00    -0.339 N 
HETATM    7  H6  UNL     1      23.174   4.577  53.406  1.00  0.00     0.167 HD
BRANCH   6   8
HETATM    8  C9  UNL     1      24.376   3.727  51.811  1.00  0.00     0.133 A 
HETATM    9  C10 UNL     1      24.998   2.638  52.386  1.00  0.00     0.100 A 
HETATM   10  C11 UNL     1      26.179   2.079  51.894  1.00  0.00     0.130 A 
HETATM   11  N3  UNL     1      26.727   2.639  50.803  1.00  0.00    -0.224 NA
HETATM   12  C16 UNL     1      26.126   3.702  50.238  1.00  0.00     0.237 A 
HETATM   13  N4  UNL     1      24.989   4.243  50.710  1.00  0.00    -0.224 NA
BRANCH  10  14
HETATM   14  N2  UNL     1      26.782   0.962  52.519  1.00  0.00    -0.366 N 
HETATM   15  C12 UNL     1      26.716  -0.420  52.028  1.00  0.00     0.124 C 
HETATM   16  C13 UNL     1      27.526  -1.209  53.033  1.00  0.00     0.021 C 
HETATM   17  C14 UNL     1      28.537  -0.150  53.472  1.00  0.00     0.021 C 
HETATM   18  C15 UNL     1      27.565   1.005  53.748  1.00  0.00     0.124 C 
ENDBRANCH  10  14
ENDBRANCH   6   8
ENDBRANCH   2   6
BRANCH   1  19
HETATM   19  O1  UNL     1      21.972   1.524  50.464  1.00  0.00    -0.343 OA
BRANCH  19  20
HETATM   20  C6  UNL     1      21.214   0.373  50.789  1.00  0.00     0.214 C 
BRANCH  20  21
HETATM   21  C5  UNL     1      21.576   0.018  52.204  1.00  0.00    -0.031 A 
HETATM   22  C4  UNL     1      20.551  -0.036  53.145  1.00  0.00     0.009 A 
HETATM   23  C3  UNL     1      20.821  -0.357  54.458  1.00  0.00     0.004 A 
HETATM   24  C2  UNL     1      22.110  -0.635  54.883  1.00  0.00     0.042 A 
HETATM   25  C1  UNL     1      23.131  -0.577  53.927  1.00  0.00     0.117 A 
HETATM   26  F1  UNL     1      24.394  -0.844  54.316  1.00  0.00    -0.206 F 
HETATM   27  C19 UNL     1      22.871  -0.256  52.607  1.00  0.00     0.051 A 
ENDBRANCH  20  21
ENDBRANCH  19  20
ENDBRANCH   1  19
TORSDOF 6
ENDMDL
MODEL 9
REMARK VINA RESULT:      -7.6      3.645      7.214
REMARK  6 active torsions:
REMARK  status: ('A' for Active; 'I' for Inactive)
REMARK    1  A    between atoms: C5_6  and  C6_7 
REMARK    2  A    between atoms: C6_7  and  O1_8 
REMARK    3  A    between atoms: O1_8  and  C7_9 
REMARK    4  A    between atoms: C8_10  and  N1_11 
REMARK    5  A    between atoms: N1_11  and  C9_12 
REMARK    6  A    between atoms: C11_14  and  N2_15 
ROOT
HETATM    1  C7  UNL     1      23.088   3.353  51.105  1.00  0.00     0.117 A 
HETATM    2  C8  UNL     1      24.203   3.644  51.781  1.00  0.00     0.070 A 
HETATM    3  C17 UNL     1      24.701   4.389  50.636  1.00  0.00     0.059 A 
HETATM    4  C18 UNL     1      23.590   4.111  49.934  1.00  0.00     0.071 A 
HETATM    5 CL1  UNL     1      23.350   4.692  48.274  1.00  0.00    -0.081 Cl
ENDROOT
BRANCH   2   6
HETATM    6  N1  UNL     1      24.554   3.263  53.105  1.00  0.00    -0.339 N 
HETATM    7  H6  UNL     1      24.703   3.935  53.881  1.00  0.00     0.167 HD
BRANCH   6   8
HETATM    8  C9  UNL     1      24.680   1.857  53.254  1.00  0.00     0.133 A 
HETATM    9  C10 UNL     1      25.980   1.413  53.391  1.00  0.00     0.100 A 
HETATM   10  C11 UNL     1      26.320   0.069  53.551  1.00  0.00     0.130 A 
HETATM   11  N3  UNL     1      25.322  -0.830  53.572  1.00  0.00    -0.224 NA
HETATM   12  C16 UNL     1      24.052  -0.404  53.438  1.00  0.00     0.237 A 
HETATM   13  N4  UNL     1      23.720   0.891  53.283  1.00  0.00    -0.224 NA
BRANCH  10  14
HETATM   14  N2  UNL     1      27.668  -0.339  53.686  1.00  0.00    -0.366 N 
HETATM   15  C12 UNL     1      28.254  -1.538  53.074  1.00  0.00     0.124 C 
HETATM   16  C13 UNL     1      29.704  -1.504  53.507  1.00  0.00     0.021 C 
HETATM   17  C14 UNL     1      29.926   0.004  53.620  1.00  0.00     0.021 C 
HETATM   18  C15 UNL     1      28.689   0.365  54.452  1.00  0.00     0.124 C 
ENDBRANCH  10  14
ENDBRANCH   6   8
ENDBRANCH   2   6
BRANCH   1  19
HETATM   19  O1  UNL     1      21.840   2.778  50.935  1.00  0.00    -0.343 OA
BRANCH  19  20
HETATM   20  C6  UNL     1      21.596   1.631  50.144  1.00  0.00     0.214 C 
BRANCH  20  21
HETATM   21  C5  UNL     1      20.392   0.956  50.741  1.00  0.00    -0.031 A 
HETATM   22  C4  UNL     1      19.200   0.993  50.022  1.00  0.00     0.009 A 
HETATM   23  C3  UNL     1      18.064   0.391  50.519  1.00  0.00     0.004 A 
HETATM   24  C2  UNL     1      18.068  -0.265  51.738  1.00  0.00     0.042 A 
HETATM   25  C1  UNL     1      19.273  -0.295  52.450  1.00  0.00     0.117 A 
HETATM   26  F1  UNL     1      19.303  -0.929  53.641  1.00  0.00    -0.206 F 
HETATM   27  C19 UNL     1      20.419   0.305  51.962  1.00  0.00     0.051 A 
ENDBRANCH  20  21
ENDBRANCH  19  20
ENDBRANCH   1  19
TORSDOF 6
ENDMDL
