MODEL 1
REMARK VINA RESULT:      -9.2      0.000      0.000
REMARK  1 active torsions:
REMARK  status: ('A' for Active; 'I' for Inactive)
REMARK    1  A    between atoms: N1_6  and  C6_7 
ROOT
HETATM    1  C1  UNL     1      22.880   2.659  49.123  1.00  0.00     0.020 C 
HETATM    2  C2  UNL     1      23.950   3.490  49.249  1.00  0.00     0.002 C 
HETATM    3  C3  UNL     1      24.506   3.643  50.597  1.00  0.00     0.034 C 
HETATM    4  C4  UNL     1      25.934   3.258  50.725  1.00  0.00    -0.009 C 
HETATM    5  C5  UNL     1      26.813   2.501  51.348  1.00  0.00     0.094 C 
HETATM    6  N1  UNL     1      26.567   1.574  52.366  1.00  0.00    -0.317 N 
HETATM    7  C12 UNL     1      25.321   1.352  53.067  1.00  0.00     0.215 C 
HETATM    8  N2  UNL     1      24.920   0.151  52.719  1.00  0.00    -0.237 NA
HETATM    9  C13 UNL     1      23.735  -0.420  53.204  1.00  0.00     0.235 C 
HETATM   10  N3  UNL     1      22.926   0.331  53.879  1.00  0.00    -0.234 NA
HETATM   11  C14 UNL     1      21.699  -0.174  54.406  1.00  0.00     0.255 C 
HETATM   12  N4  UNL     1      20.766  -0.007  53.499  1.00  0.00    -0.173 NA
HETATM   13  N5  UNL     1      21.173   0.589  52.308  1.00  0.00    -0.313 N 
HETATM   14  C15 UNL     1      21.667   1.259  51.096  1.00  0.00     0.145 C 
HETATM   15  C16 UNL     1      20.765   0.779  49.973  1.00  0.00     0.048 C 
HETATM   16  C17 UNL     1      21.105   1.336  48.661  1.00  0.00    -0.029 C 
HETATM   17  C18 UNL     1      21.974   2.166  48.045  1.00  0.00    -0.025 C 
HETATM   18  H15 UNL     1      20.336  -0.071  52.275  1.00  0.00     0.182 HD
ENDROOT
BRANCH   6  19
HETATM   19  C6  UNL     1      27.574   0.703  52.846  1.00  0.00     0.039 A 
HETATM   20  C7  UNL     1      28.706   1.159  53.496  1.00  0.00     0.030 A 
HETATM   21  C8  UNL     1      29.699   0.346  53.979  1.00  0.00     0.002 A 
HETATM   22  C9  UNL     1      29.607  -1.023  53.832  1.00  0.00     0.000 A 
HETATM   23  C10 UNL     1      28.503  -1.543  53.193  1.00  0.00     0.002 A 
HETATM   24  C11 UNL     1      27.566  -0.669  52.745  1.00  0.00     0.030 A 
ENDBRANCH   6  19
TORSDOF 1
ENDMDL
MODEL 2
REMARK VINA RESULT:      -8.5      2.622      7.426
REMARK  1 active torsions:
REMARK  status: ('A' for Active; 'I' for Inactive)
REMARK    1  A    between atoms: N1_6  and  C6_7 
ROOT
HETATM    1  C1  UNL     1      25.459  -0.062  53.105  1.00  0.00     0.020 C 
HETATM    2  C2  UNL     1      24.775  -0.884  53.946  1.00  0.00     0.002 C 
HETATM    3  C3  UNL     1      23.530  -0.354  54.512  1.00  0.00     0.034 C 
HETATM    4  C4  UNL     1      22.319  -1.154  54.200  1.00  0.00    -0.009 C 
HETATM    5  C5  UNL     1      21.110  -1.152  53.680  1.00  0.00     0.094 C 
HETATM    6  N1  UNL     1      20.431  -0.071  53.108  1.00  0.00    -0.317 N 
HETATM    7  C12 UNL     1      20.842   1.316  53.099  1.00  0.00     0.215 C 
HETATM    8  N2  UNL     1      21.101   1.608  51.846  1.00  0.00    -0.237 NA
HETATM    9  C13 UNL     1      21.531   2.879  51.439  1.00  0.00     0.235 C 
HETATM   10  N3  UNL     1      21.850   3.738  52.352  1.00  0.00    -0.234 NA
HETATM   11  C14 UNL     1      22.298   5.052  52.022  1.00  0.00     0.255 C 
HETATM   12  N4  UNL     1      23.603   5.017  51.892  1.00  0.00    -0.173 NA
HETATM   13  N5  UNL     1      24.204   3.778  52.097  1.00  0.00    -0.313 N 
HETATM   14  C15 UNL     1      24.770   2.448  52.367  1.00  0.00     0.145 C 
HETATM   15  C16 UNL     1      26.052   2.383  51.556  1.00  0.00     0.048 C 
HETATM   16  C17 UNL     1      26.771   1.113  51.686  1.00  0.00    -0.029 C 
HETATM   17  C18 UNL     1      26.712  -0.091  52.296  1.00  0.00    -0.025 C 
HETATM   18  H15 UNL     1      24.694   4.469  51.450  1.00  0.00     0.182 HD
ENDROOT
BRANCH   6  19
HETATM   19  C6  UNL     1      19.195  -0.232  52.437  1.00  0.00     0.039 A 
HETATM   20  C7  UNL     1      18.126  -0.907  52.996  1.00  0.00     0.030 A 
HETATM   21  C8  UNL     1      16.913  -1.078  52.379  1.00  0.00     0.002 A 
HETATM   22  C9  UNL     1      16.697  -0.559  51.119  1.00  0.00     0.000 A 
HETATM   23  C10 UNL     1      17.723   0.127  50.505  1.00  0.00     0.002 A 
HETATM   24  C11 UNL     1      18.892   0.250  51.185  1.00  0.00     0.030 A 
ENDBRANCH   6  19
TORSDOF 1
ENDMDL
MODEL 3
REMARK VINA RESULT:      -8.2      2.117      5.726
REMARK  1 active torsions:
REMARK  status: ('A' for Active; 'I' for Inactive)
REMARK    1  A    between atoms: N1_6  and  C6_7 
ROOT
HETATM    1  C1  UNL     1      25.170  -0.594  54.059  1.00  0.00     0.020 C 
HETATM    2  C2  UNL     1      26.284  -0.300  53.335  1.00  0.00     0.002 C 
HETATM    3  C3  UNL     1      26.069   0.140  51.952  1.00  0.00     0.034 C 
HETATM    4  C4  UNL     1      26.609   1.487  51.640  1.00  0.00    -0.009 C 
HETATM    5  C5  UNL     1      26.344   2.695  51.187  1.00  0.00     0.094 C 
HETATM    6  N1  UNL     1      25.112   3.185  50.742  1.00  0.00    -0.317 N 
HETATM    7  C12 UNL     1      23.893   2.434  50.535  1.00  0.00     0.215 C 
HETATM    8  N2  UNL     1      23.044   2.868  51.438  1.00  0.00    -0.237 NA
HETATM    9  C13 UNL     1      21.739   2.370  51.549  1.00  0.00     0.235 C 
HETATM   10  N3  UNL     1      21.420   1.327  50.852  1.00  0.00    -0.234 NA
HETATM   11  C14 UNL     1      20.113   0.758  50.909  1.00  0.00     0.255 C 
HETATM   12  N4  UNL     1      20.099  -0.137  51.868  1.00  0.00    -0.173 NA
HETATM   13  N5  UNL     1      21.295  -0.307  52.561  1.00  0.00    -0.313 N 
HETATM   14  C15 UNL     1      22.601  -0.459  53.218  1.00  0.00     0.145 C 
HETATM   15  C16 UNL     1      22.290  -0.934  54.627  1.00  0.00     0.048 C 
HETATM   16  C17 UNL     1      23.480  -1.140  55.459  1.00  0.00    -0.029 C 
HETATM   17  C18 UNL     1      24.827  -1.059  55.434  1.00  0.00    -0.025 C 
HETATM   18  H15 UNL     1      20.386  -0.525  53.073  1.00  0.00     0.182 HD
ENDROOT
BRANCH   6  19
HETATM   19  C6  UNL     1      24.918   4.552  50.429  1.00  0.00     0.039 A 
HETATM   20  C7  UNL     1      25.153   5.068  49.168  1.00  0.00     0.030 A 
HETATM   21  C8  UNL     1      24.971   6.384  48.826  1.00  0.00     0.002 A 
HETATM   22  C9  UNL     1      24.526   7.289  49.767  1.00  0.00     0.000 A 
HETATM   23  C10 UNL     1      24.273   6.839  51.045  1.00  0.00     0.002 A 
HETATM   24  C11 UNL     1      24.478   5.522  51.300  1.00  0.00     0.030 A 
ENDBRANCH   6  19
TORSDOF 1
ENDMDL
MODEL 4
REMARK VINA RESULT:      -7.9      2.487      3.417
REMARK  1 active torsions:
REMARK  status: ('A' for Active; 'I' for Inactive)
REMARK    1  A    between atoms: N1_6  and  C6_7 
ROOT
HETATM    1  C1  UNL     1      20.988   5.364  50.044  1.00  0.00     0.020 C 
HETATM    2  C2  UNL     1      21.858   5.816  50.987  1.00  0.00     0.002 C 
HETATM    3  C3  UNL     1      21.996   4.999  52.197  1.00  0.00     0.034 C 
HETATM    4  C4  UNL     1      23.373   4.510  52.459  1.00  0.00    -0.009 C 
HETATM    5  C5  UNL     1      24.142   3.461  52.665  1.00  0.00     0.094 C 
HETATM    6  N1  UNL     1      23.755   2.118  52.707  1.00  0.00    -0.317 N 
HETATM    7  C12 UNL     1      22.408   1.593  52.687  1.00  0.00     0.215 C 
HETATM    8  N2  UNL     1      22.285   0.954  51.546  1.00  0.00    -0.237 NA
HETATM    9  C13 UNL     1      21.102   0.305  51.166  1.00  0.00     0.235 C 
HETATM   10  N3  UNL     1      20.044   0.490  51.887  1.00  0.00    -0.234 NA
HETATM   11  C14 UNL     1      18.801  -0.133  51.568  1.00  0.00     0.255 C 
HETATM   12  N4  UNL     1      18.139   0.664  50.764  1.00  0.00    -0.173 NA
HETATM   13  N5  UNL     1      18.772   1.860  50.434  1.00  0.00    -0.313 N 
HETATM   14  C15 UNL     1      19.483   3.118  50.164  1.00  0.00     0.145 C 
HETATM   15  C16 UNL     1      18.998   3.570  48.798  1.00  0.00     0.048 C 
HETATM   16  C17 UNL     1      19.606   4.822  48.338  1.00  0.00    -0.029 C 
HETATM   17  C18 UNL     1      20.489   5.777  48.701  1.00  0.00    -0.025 C 
HETATM   18  H15 UNL     1      18.074   1.455  49.736  1.00  0.00     0.182 HD
ENDROOT
BRANCH   6  19
HETATM   19  C6  UNL     1      24.701   1.067  52.777  1.00  0.00     0.039 A 
HETATM   20  C7  UNL     1      24.625   0.058  53.719  1.00  0.00     0.030 A 
HETATM   21  C8  UNL     1      25.519  -0.978  53.814  1.00  0.00     0.002 A 
HETATM   22  C9  UNL     1      26.578  -1.063  52.934  1.00  0.00     0.000 A 
HETATM   23  C10 UNL     1      26.711  -0.089  51.969  1.00  0.00     0.002 A 
HETATM   24  C11 UNL     1      25.784   0.902  51.944  1.00  0.00     0.030 A 
ENDBRANCH   6  19
TORSDOF 1
ENDMDL
MODEL 5
REMARK VINA RESULT:      -7.8      3.058      6.833
REMARK  1 active torsions:
REMARK  status: ('A' for Active; 'I' for Inactive)
REMARK    1  A    between atoms: N1_6  and  C6_7 
ROOT
HETATM    1  C1  UNL     1      26.342   3.218  50.569  1.00  0.00     0.020 C 
HETATM    2  C2  UNL     1      26.289   2.221  51.494  1.00  0.00     0.002 C 
HETATM    3  C3  UNL     1      25.204   2.298  52.478  1.00  0.00     0.034 C 
HETATM    4  C4  UNL     1      24.293   1.126  52.487  1.00  0.00    -0.009 C 
HETATM    5  C5  UNL     1      23.050   0.704  52.382  1.00  0.00     0.094 C 
HETATM    6  N1  UNL     1      21.905   1.478  52.171  1.00  0.00    -0.317 N 
HETATM    7  C12 UNL     1      21.809   2.922  52.175  1.00  0.00     0.215 C 
HETATM    8  N2  UNL     1      21.522   3.269  50.942  1.00  0.00    -0.237 NA
HETATM    9  C13 UNL     1      21.349   4.604  50.553  1.00  0.00     0.235 C 
HETATM   10  N3  UNL     1      21.653   5.533  51.401  1.00  0.00    -0.234 NA
HETATM   11  C14 UNL     1      21.507   6.916  51.083  1.00  0.00     0.255 C 
HETATM   12  N4  UNL     1      22.628   7.331  50.542  1.00  0.00    -0.173 NA
HETATM   13  N5  UNL     1      23.633   6.377  50.415  1.00  0.00    -0.313 N 
HETATM   14  C15 UNL     1      24.661   5.327  50.353  1.00  0.00     0.145 C 
HETATM   15  C16 UNL     1      25.543   5.697  49.173  1.00  0.00     0.048 C 
HETATM   16  C17 UNL     1      26.640   4.753  48.935  1.00  0.00    -0.029 C 
HETATM   17  C18 UNL     1      27.187   3.611  49.404  1.00  0.00    -0.025 C 
HETATM   18  H15 UNL     1      23.623   7.186  49.721  1.00  0.00     0.182 HD
ENDROOT
BRANCH   6  19
HETATM   19  C6  UNL     1      20.641   0.893  51.915  1.00  0.00     0.039 A 
HETATM   20  C7  UNL     1      19.950   0.167  52.867  1.00  0.00     0.030 A 
HETATM   21  C8  UNL     1      18.723  -0.409  52.658  1.00  0.00     0.002 A 
HETATM   22  C9  UNL     1      18.097  -0.282  51.435  1.00  0.00     0.000 A 
HETATM   23  C10 UNL     1      18.732   0.430  50.442  1.00  0.00     0.002 A 
HETATM   24  C11 UNL     1      19.945   0.969  50.732  1.00  0.00     0.030 A 
ENDBRANCH   6  19
TORSDOF 1
ENDMDL
MODEL 6
REMARK VINA RESULT:      -7.7      2.993      7.655
REMARK  1 active torsions:
REMARK  status: ('A' for Active; 'I' for Inactive)
REMARK    1  A    between atoms: N1_6  and  C6_7 
ROOT
HETATM    1  C1  UNL     1      23.457   2.472  50.123  1.00  0.00     0.020 C 
HETATM    2  C2  UNL     1      22.623   2.350  49.054  1.00  0.00     0.002 C 
HETATM    3  C3  UNL     1      21.629   1.274  49.118  1.00  0.00     0.034 C 
HETATM    4  C4  UNL     1      20.219   1.728  49.021  1.00  0.00    -0.009 C 
HETATM    5  C5  UNL     1      19.029   1.734  49.585  1.00  0.00     0.094 C 
HETATM    6  N1  UNL     1      18.657   1.132  50.790  1.00  0.00    -0.317 N 
HETATM    7  C12 UNL     1      19.452   0.243  51.608  1.00  0.00     0.215 C 
HETATM    8  N2  UNL     1      19.696   0.896  52.721  1.00  0.00    -0.237 NA
HETATM    9  C13 UNL     1      20.448   0.349  53.770  1.00  0.00     0.235 C 
HETATM   10  N3  UNL     1      21.066  -0.769  53.561  1.00  0.00    -0.234 NA
HETATM   11  C14 UNL     1      21.853  -1.391  54.576  1.00  0.00     0.255 C 
HETATM   12  N4  UNL     1      23.079  -0.935  54.479  1.00  0.00    -0.173 NA
HETATM   13  N5  UNL     1      23.306  -0.006  53.466  1.00  0.00    -0.313 N 
HETATM   14  C15 UNL     1      23.478   0.937  52.352  1.00  0.00     0.145 C 
HETATM   15  C16 UNL     1      24.626   1.842  52.763  1.00  0.00     0.048 C 
HETATM   16  C17 UNL     1      24.951   2.873  51.772  1.00  0.00    -0.029 C 
HETATM   17  C18 UNL     1      24.587   3.341  50.559  1.00  0.00    -0.025 C 
HETATM   18  H15 UNL     1      23.930   0.035  54.330  1.00  0.00     0.182 HD
ENDROOT
BRANCH   6  19
HETATM   19  C6  UNL     1      17.383   1.344  51.373  1.00  0.00     0.039 A 
HETATM   20  C7  UNL     1      16.822   2.601  51.498  1.00  0.00     0.030 A 
HETATM   21  C8  UNL     1      15.591   2.845  52.052  1.00  0.00     0.002 A 
HETATM   22  C9  UNL     1      14.825   1.800  52.527  1.00  0.00     0.000 A 
HETATM   23  C10 UNL     1      15.327   0.520  52.431  1.00  0.00     0.002 A 
HETATM   24  C11 UNL     1      16.554   0.366  51.870  1.00  0.00     0.030 A 
ENDBRANCH   6  19
TORSDOF 1
ENDMDL
MODEL 7
REMARK VINA RESULT:      -7.5      3.390      6.175
REMARK  1 active torsions:
REMARK  status: ('A' for Active; 'I' for Inactive)
REMARK    1  A    between atoms: N1_6  and  C6_7 
ROOT
HETATM    1  C1  UNL     1      21.209   6.502  49.711  1.00  0.00     0.020 C 
HETATM    2  C2  UNL     1      20.148   5.676  49.503  1.00  0.00     0.002 C 
HETATM    3  C3  UNL     1      20.456   4.267  49.238  1.00  0.00     0.034 C 
HETATM    4  C4  UNL     1      19.858   3.311  50.202  1.00  0.00    -0.009 C 
HETATM    5  C5  UNL     1      20.081   2.337  51.060  1.00  0.00     0.094 C 
HETATM    6  N1  UNL     1      21.312   1.766  51.397  1.00  0.00    -0.317 N 
HETATM    7  C12 UNL     1      22.593   2.010  50.769  1.00  0.00     0.215 C 
HETATM    8  N2  UNL     1      23.327   2.622  51.670  1.00  0.00    -0.237 NA
HETATM    9  C13 UNL     1      24.647   3.023  51.424  1.00  0.00     0.235 C 
HETATM   10  N3  UNL     1      25.095   2.942  50.213  1.00  0.00    -0.234 NA
HETATM   11  C14 UNL     1      26.427   3.331  49.879  1.00  0.00     0.255 C 
HETATM   12  N4  UNL     1      26.414   4.605  49.567  1.00  0.00    -0.173 NA
HETATM   13  N5  UNL     1      25.175   5.236  49.632  1.00  0.00    -0.313 N 
HETATM   14  C15 UNL     1      23.828   5.823  49.684  1.00  0.00     0.145 C 
HETATM   15  C16 UNL     1      24.042   7.296  49.985  1.00  0.00     0.048 C 
HETATM   16  C17 UNL     1      22.799   8.066  50.086  1.00  0.00    -0.029 C 
HETATM   17  C18 UNL     1      21.456   7.943  50.007  1.00  0.00    -0.025 C 
HETATM   18  H15 UNL     1      26.047   5.831  49.783  1.00  0.00     0.182 HD
ENDROOT
BRANCH   6  19
HETATM   19  C6  UNL     1      21.442   0.833  52.454  1.00  0.00     0.039 A 
HETATM   20  C7  UNL     1      20.792   0.983  53.664  1.00  0.00     0.030 A 
HETATM   21  C8  UNL     1      20.890   0.098  54.708  1.00  0.00     0.002 A 
HETATM   22  C9  UNL     1      21.675  -1.030  54.589  1.00  0.00     0.000 A 
HETATM   23  C10 UNL     1      22.350  -1.240  53.407  1.00  0.00     0.002 A 
HETATM   24  C11 UNL     1      22.199  -0.315  52.424  1.00  0.00     0.030 A 
ENDBRANCH   6  19
TORSDOF 1
ENDMDL
MODEL 8
REMARK VINA RESULT:      -7.5      3.373      5.660
REMARK  1 active torsions:
REMARK  status: ('A' for Active; 'I' for Inactive)
REMARK    1  A    between atoms: N1_6  and  C6_7 
ROOT
HETATM    1  C1  UNL     1      19.632   4.165  48.119  1.00  0.00     0.020 C 
HETATM    2  C2  UNL     1      19.855   2.873  47.756  1.00  0.00     0.002 C 
HETATM    3  C3  UNL     1      21.139   2.291  48.160  1.00  0.00     0.034 C 
HETATM    4  C4  UNL     1      21.029   1.084  49.018  1.00  0.00    -0.009 C 
HETATM    5  C5  UNL     1      21.358   0.520  50.161  1.00  0.00     0.094 C 
HETATM    6  N1  UNL     1      22.135   1.067  51.187  1.00  0.00    -0.317 N 
HETATM    7  C12 UNL     1      22.877   2.308  51.158  1.00  0.00     0.215 C 
HETATM    8  N2  UNL     1      22.285   3.104  52.019  1.00  0.00    -0.237 NA
HETATM    9  C13 UNL     1      22.726   4.410  52.269  1.00  0.00     0.235 C 
HETATM   10  N3  UNL     1      23.641   4.905  51.498  1.00  0.00    -0.234 NA
HETATM   11  C14 UNL     1      24.143   6.227  51.685  1.00  0.00     0.255 C 
HETATM   12  N4  UNL     1      23.400   7.049  50.982  1.00  0.00    -0.173 NA
HETATM   13  N5  UNL     1      22.359   6.467  50.265  1.00  0.00    -0.313 N 
HETATM   14  C15 UNL     1      21.308   5.778  49.502  1.00  0.00     0.145 C 
HETATM   15  C16 UNL     1      20.194   6.797  49.339  1.00  0.00     0.048 C 
HETATM   16  C17 UNL     1      19.032   6.291  48.601  1.00  0.00    -0.029 C 
HETATM   17  C18 UNL     1      18.559   5.191  47.977  1.00  0.00    -0.025 C 
HETATM   18  H15 UNL     1      22.246   7.482  50.574  1.00  0.00     0.182 HD
ENDROOT
BRANCH   6  19
HETATM   19  C6  UNL     1      22.287   0.422  52.439  1.00  0.00     0.039 A 
HETATM   20  C7  UNL     1      21.212   0.110  53.250  1.00  0.00     0.030 A 
HETATM   21  C8  UNL     1      21.319  -0.517  54.465  1.00  0.00     0.002 A 
HETATM   22  C9  UNL     1      22.558  -0.882  54.950  1.00  0.00     0.000 A 
HETATM   23  C10 UNL     1      23.671  -0.600  54.190  1.00  0.00     0.002 A 
HETATM   24  C11 UNL     1      23.478   0.023  52.999  1.00  0.00     0.030 A 
ENDBRANCH   6  19
TORSDOF 1
ENDMDL
MODEL 9
REMARK VINA RESULT:      -6.7      3.088      4.560
REMARK  1 active torsions:
REMARK  status: ('A' for Active; 'I' for Inactive)
REMARK    1  A    between atoms: N1_6  and  C6_7 
ROOT
HETATM    1  C1  UNL     1      22.899   6.362  47.098  1.00  0.00     0.020 C 
HETATM    2  C2  UNL     1      23.689   6.869  48.084  1.00  0.00     0.002 C 
HETATM    3  C3  UNL     1      23.394   6.427  49.451  1.00  0.00     0.034 C 
HETATM    4  C4  UNL     1      24.521   5.749  50.139  1.00  0.00    -0.009 C 
HETATM    5  C5  UNL     1      24.929   4.664  50.764  1.00  0.00     0.094 C 
HETATM    6  N1  UNL     1      24.189   3.508  51.032  1.00  0.00    -0.317 N 
HETATM    7  C12 UNL     1      22.773   3.306  50.821  1.00  0.00     0.215 C 
HETATM    8  N2  UNL     1      22.673   2.406  49.869  1.00  0.00    -0.237 NA
HETATM    9  C13 UNL     1      21.440   1.948  49.388  1.00  0.00     0.235 C 
HETATM   10  N3  UNL     1      20.367   2.559  49.774  1.00  0.00    -0.234 NA
HETATM   11  C14 UNL     1      19.072   2.155  49.329  1.00  0.00     0.255 C 
HETATM   12  N4  UNL     1      18.797   2.809  48.226  1.00  0.00    -0.173 NA
HETATM   13  N5  UNL     1      19.778   3.690  47.779  1.00  0.00    -0.313 N 
HETATM   14  C15 UNL     1      20.841   4.630  47.392  1.00  0.00     0.145 C 
HETATM   15  C16 UNL     1      20.733   4.761  45.883  1.00  0.00     0.048 C 
HETATM   16  C17 UNL     1      21.728   5.663  45.294  1.00  0.00    -0.029 C 
HETATM   17  C18 UNL     1      22.764   6.466  45.616  1.00  0.00    -0.025 C 
HETATM   18  H15 UNL     1      19.124   3.262  47.054  1.00  0.00     0.182 HD
ENDROOT
BRANCH   6  19
HETATM   19  C6  UNL     1      24.787   2.343  51.571  1.00  0.00     0.039 A 
HETATM   20  C7  UNL     1      24.127   1.507  52.452  1.00  0.00     0.030 A 
HETATM   21  C8  UNL     1      24.671   0.369  52.991  1.00  0.00     0.002 A 
HETATM   22  C9  UNL     1      25.956  -0.008  52.660  1.00  0.00     0.000 A 
HETATM   23  C10 UNL     1      26.669   0.781  51.785  1.00  0.00     0.002 A 
HETATM   24  C11 UNL     1      26.057   1.891  51.298  1.00  0.00     0.030 A 
ENDBRANCH   6  19
TORSDOF 1
ENDMDL
