MODEL 1
REMARK VINA RESULT:      -8.0      0.000      0.000
REMARK  4 active torsions:
REMARK  status: ('A' for Active; 'I' for Inactive)
REMARK    1  A    between atoms: C4_4  and  N1_5 
REMARK    2  A    between atoms: N1_5  and  C5_6 
REMARK    3  A    between atoms: P1_13  and  C10_14 
REMARK    4  A    between atoms: C10_14  and  N4_15 
ROOT
HETATM    1  C5  UNL     1      24.059   1.608  51.576  1.00  0.00     0.142 A 
HETATM    2  N2  UNL     1      22.766   1.389  51.843  1.00  0.00    -0.224 NA
HETATM    3  C6  UNL     1      22.412   0.629  52.881  1.00  0.00     0.236 A 
HETATM    4  N3  UNL     1      23.314   0.052  53.705  1.00  0.00    -0.241 NA
HETATM    5  C7  UNL     1      24.641   0.267  53.447  1.00  0.00     0.075 A 
HETATM    6  C8  UNL     1      25.019   1.044  52.381  1.00  0.00     0.040 A 
HETATM    7  C9  UNL     1      26.460   1.170  52.066  1.00  0.00     0.030 C 
HETATM    8  P1  UNL     1      27.497   0.935  53.210  1.00  0.00    -0.013 P 
HETATM    9  C11 UNL     1      28.362  -0.576  53.485  1.00  0.00     0.217 C 
HETATM   10  O1  UNL     1      28.150  -0.249  54.897  1.00  0.00    -0.346 OA
HETATM   11  C12 UNL     1      26.801  -0.149  54.491  1.00  0.00     0.077 C 
HETATM   12  C13 UNL     1      25.492  -0.312  54.456  1.00  0.00     0.070 C 
ENDROOT
BRANCH   1  13
HETATM   13  N1  UNL     1      24.457   2.414  50.485  1.00  0.00    -0.340 N 
HETATM   14  H5  UNL     1      24.622   1.973  49.554  1.00  0.00     0.167 HD
BRANCH  13  15
HETATM   15  C4  UNL     1      24.697   3.808  50.420  1.00  0.00     0.034 A 
HETATM   16  C3  UNL     1      25.676   4.390  49.608  1.00  0.00     0.038 A 
HETATM   17  C2  UNL     1      25.912   5.724  49.537  1.00  0.00    -0.038 A 
HETATM   18  C1  UNL     1      26.976   6.216  48.641  1.00  0.00     0.050 C 
HETATM   19  C16 UNL     1      25.188   6.603  50.273  1.00  0.00     0.040 A 
HETATM   20  C15 UNL     1      24.207   6.111  51.096  1.00  0.00     0.026 A 
HETATM   21 CL1  UNL     1      25.544   8.303  50.133  1.00  0.00    -0.084 Cl
HETATM   22  C14 UNL     1      23.993   4.750  51.144  1.00  0.00     0.031 A 
ENDBRANCH  13  15
ENDBRANCH   1  13
BRANCH   8  23
HETATM   23  C10 UNL     1      28.299   2.402  53.902  1.00  0.00     0.308 C 
BRANCH  23  24
HETATM   24  N4  UNL     1      29.634   2.067  54.386  1.00  0.00     0.082 N 
HETATM   25  H10 UNL     1      29.890   2.766  55.137  1.00  0.00     0.313 HD
HETATM   26  H11 UNL     1      30.338   2.245  53.618  1.00  0.00     0.313 HD
ENDBRANCH  23  24
ENDBRANCH   8  23
TORSDOF 4
ENDMDL
MODEL 2
REMARK VINA RESULT:      -7.9      1.509      2.095
REMARK  4 active torsions:
REMARK  status: ('A' for Active; 'I' for Inactive)
REMARK    1  A    between atoms: C4_4  and  N1_5 
REMARK    2  A    between atoms: N1_5  and  C5_6 
REMARK    3  A    between atoms: P1_13  and  C10_14 
REMARK    4  A    between atoms: C10_14  and  N4_15 
ROOT
HETATM    1  C5  UNL     1      24.834   2.871  50.559  1.00  0.00     0.142 A 
HETATM    2  N2  UNL     1      23.616   3.425  50.606  1.00  0.00    -0.224 NA
HETATM    3  C6  UNL     1      22.737   3.042  51.535  1.00  0.00     0.236 A 
HETATM    4  N3  UNL     1      23.018   2.101  52.461  1.00  0.00    -0.241 NA
HETATM    5  C7  UNL     1      24.259   1.525  52.429  1.00  0.00     0.075 A 
HETATM    6  C8  UNL     1      25.171   1.906  51.476  1.00  0.00     0.040 A 
HETATM    7  C9  UNL     1      26.465   1.191  51.401  1.00  0.00     0.030 C 
HETATM    8  P1  UNL     1      26.995   0.471  52.682  1.00  0.00    -0.013 P 
HETATM    9  C11 UNL     1      26.812  -1.250  53.015  1.00  0.00     0.217 C 
HETATM   10  O1  UNL     1      26.596  -0.793  54.390  1.00  0.00    -0.346 OA
HETATM   11  C12 UNL     1      25.619   0.023  53.780  1.00  0.00     0.077 C 
HETATM   12  C13 UNL     1      24.468   0.618  53.529  1.00  0.00     0.070 C 
ENDROOT
BRANCH   1  13
HETATM   13  N1  UNL     1      25.782   3.264  49.587  1.00  0.00    -0.340 N 
HETATM   14  H5  UNL     1      26.192   2.547  48.951  1.00  0.00     0.167 HD
BRANCH  13  15
HETATM   15  C4  UNL     1      26.321   4.542  49.303  1.00  0.00     0.034 A 
HETATM   16  C3  UNL     1      27.572   4.743  48.710  1.00  0.00     0.038 A 
HETATM   17  C2  UNL     1      28.095   5.963  48.433  1.00  0.00    -0.038 A 
HETATM   18  C1  UNL     1      29.429   6.044  47.806  1.00  0.00     0.050 C 
HETATM   19  C16 UNL     1      27.414   7.100  48.721  1.00  0.00     0.040 A 
HETATM   20  C15 UNL     1      26.178   6.988  49.304  1.00  0.00     0.026 A 
HETATM   21 CL1  UNL     1      28.147   8.634  48.336  1.00  0.00    -0.084 Cl
HETATM   22  C14 UNL     1      25.675   5.733  49.573  1.00  0.00     0.031 A 
ENDBRANCH  13  15
ENDBRANCH   1  13
BRANCH   8  23
HETATM   23  C10 UNL     1      28.357   1.271  53.566  1.00  0.00     0.308 C 
BRANCH  23  24
HETATM   24  N4  UNL     1      27.985   2.631  53.942  1.00  0.00     0.082 N 
HETATM   25  H10 UNL     1      27.022   2.823  53.549  1.00  0.00     0.313 HD
HETATM   26  H11 UNL     1      28.611   3.316  53.436  1.00  0.00     0.313 HD
ENDBRANCH  23  24
ENDBRANCH   8  23
TORSDOF 4
ENDMDL
MODEL 3
REMARK VINA RESULT:      -7.9      4.928      6.932
REMARK  4 active torsions:
REMARK  status: ('A' for Active; 'I' for Inactive)
REMARK    1  A    between atoms: C4_4  and  N1_5 
REMARK    2  A    between atoms: N1_5  and  C5_6 
REMARK    3  A    between atoms: P1_13  and  C10_14 
REMARK    4  A    between atoms: C10_14  and  N4_15 
ROOT
HETATM    1  C5  UNL     1      23.223   0.057  53.471  1.00  0.00     0.142 A 
HETATM    2  N2  UNL     1      23.240  -0.883  54.424  1.00  0.00    -0.224 NA
HETATM    3  C6  UNL     1      22.111  -1.500  54.782  1.00  0.00     0.236 A 
HETATM    4  N3  UNL     1      20.917  -1.222  54.218  1.00  0.00    -0.241 NA
HETATM    5  C7  UNL     1      20.882  -0.264  53.240  1.00  0.00     0.075 A 
HETATM    6  C8  UNL     1      22.034   0.381  52.865  1.00  0.00     0.040 A 
HETATM    7  C9  UNL     1      21.945   1.484  51.882  1.00  0.00     0.030 C 
HETATM    8  P1  UNL     1      20.732   1.513  50.900  1.00  0.00    -0.013 P 
HETATM    9  C11 UNL     1      19.277   2.479  51.129  1.00  0.00     0.217 C 
HETATM   10  O1  UNL     1      18.604   1.298  50.584  1.00  0.00    -0.346 OA
HETATM   11  C12 UNL     1      19.309   0.638  51.614  1.00  0.00     0.077 C 
HETATM   12  C13 UNL     1      19.574  -0.138  52.648  1.00  0.00     0.070 C 
ENDROOT
BRANCH   1  13
HETATM   13  N1  UNL     1      24.406   0.719  53.072  1.00  0.00    -0.340 N 
HETATM   14  H5  UNL     1      24.342   1.656  52.619  1.00  0.00     0.167 HD
BRANCH  13  15
HETATM   15  C4  UNL     1      25.758   0.313  53.177  1.00  0.00     0.034 A 
HETATM   16  C3  UNL     1      26.781   1.133  53.665  1.00  0.00     0.038 A 
HETATM   17  C2  UNL     1      28.078   0.752  53.770  1.00  0.00    -0.038 A 
HETATM   18  C1  UNL     1      29.065   1.712  54.301  1.00  0.00     0.050 C 
HETATM   19  C16 UNL     1      28.476  -0.490  53.397  1.00  0.00     0.040 A 
HETATM   20  C15 UNL     1      27.532  -1.356  52.907  1.00  0.00     0.026 A 
HETATM   21 CL1  UNL     1      30.158  -0.913  53.560  1.00  0.00    -0.084 Cl
HETATM   22  C14 UNL     1      26.222  -0.937  52.813  1.00  0.00     0.031 A 
ENDBRANCH  13  15
ENDBRANCH   1  13
BRANCH   8  23
HETATM   23  C10 UNL     1      21.055   1.029  49.185  1.00  0.00     0.308 C 
BRANCH  23  24
HETATM   24  N4  UNL     1      20.366   1.931  48.268  1.00  0.00     0.082 N 
HETATM   25  H10 UNL     1      19.422   2.157  48.686  1.00  0.00     0.313 HD
HETATM   26  H11 UNL     1      20.136   1.412  47.376  1.00  0.00     0.313 HD
ENDBRANCH  23  24
ENDBRANCH   8  23
TORSDOF 4
ENDMDL
MODEL 4
REMARK VINA RESULT:      -7.8      3.648      6.145
REMARK  4 active torsions:
REMARK  status: ('A' for Active; 'I' for Inactive)
REMARK    1  A    between atoms: C4_4  and  N1_5 
REMARK    2  A    between atoms: N1_5  and  C5_6 
REMARK    3  A    between atoms: P1_13  and  C10_14 
REMARK    4  A    between atoms: C10_14  and  N4_15 
ROOT
HETATM    1  C5  UNL     1      23.368   1.059  52.323  1.00  0.00     0.142 A 
HETATM    2  N2  UNL     1      22.350   0.200  52.197  1.00  0.00    -0.224 NA
HETATM    3  C6  UNL     1      21.470   0.339  51.202  1.00  0.00     0.236 A 
HETATM    4  N3  UNL     1      21.555   1.328  50.286  1.00  0.00    -0.241 NA
HETATM    5  C7  UNL     1      22.592   2.214  50.400  1.00  0.00     0.075 A 
HETATM    6  C8  UNL     1      23.501   2.085  51.420  1.00  0.00     0.040 A 
HETATM    7  C9  UNL     1      24.548   3.120  51.578  1.00  0.00     0.030 C 
HETATM    8  P1  UNL     1      24.957   3.964  50.330  1.00  0.00    -0.013 P 
HETATM    9  C11 UNL     1      24.345   5.575  49.962  1.00  0.00     0.217 C 
HETATM   10  O1  UNL     1      24.360   5.087  48.581  1.00  0.00    -0.346 OA
HETATM   11  C12 UNL     1      23.595   4.035  49.130  1.00  0.00     0.077 C 
HETATM   12  C13 UNL     1      22.629   3.151  49.306  1.00  0.00     0.070 C 
ENDROOT
BRANCH   1  13
HETATM   13  N1  UNL     1      24.314   0.927  53.366  1.00  0.00    -0.340 N 
HETATM   14  H5  UNL     1      24.082   1.285  54.317  1.00  0.00     0.167 HD
BRANCH  13  15
HETATM   15  C4  UNL     1      25.614   0.366  53.353  1.00  0.00     0.034 A 
HETATM   16  C3  UNL     1      26.748   1.022  53.844  1.00  0.00     0.038 A 
HETATM   17  C2  UNL     1      27.996   0.492  53.838  1.00  0.00    -0.038 A 
HETATM   18  C1  UNL     1      29.113   1.285  54.385  1.00  0.00     0.050 C 
HETATM   19  C16 UNL     1      28.228  -0.748  53.340  1.00  0.00     0.040 A 
HETATM   20  C15 UNL     1      27.167  -1.458  52.839  1.00  0.00     0.026 A 
HETATM   21 CL1  UNL     1      29.856  -1.368  53.365  1.00  0.00    -0.084 Cl
HETATM   22  C14 UNL     1      25.911  -0.890  52.861  1.00  0.00     0.031 A 
ENDBRANCH  13  15
ENDBRANCH   1  13
BRANCH   8  23
HETATM   23  C10 UNL     1      26.543   3.563  49.556  1.00  0.00     0.308 C 
BRANCH  23  24
HETATM   24  N4  UNL     1      27.282   4.785  49.255  1.00  0.00     0.082 N 
HETATM   25  H10 UNL     1      28.214   4.505  48.841  1.00  0.00     0.313 HD
HETATM   26  H11 UNL     1      27.536   5.270  50.160  1.00  0.00     0.313 HD
ENDBRANCH  23  24
ENDBRANCH   8  23
TORSDOF 4
ENDMDL
MODEL 5
REMARK VINA RESULT:      -7.6      4.021      6.283
REMARK  4 active torsions:
REMARK  status: ('A' for Active; 'I' for Inactive)
REMARK    1  A    between atoms: C4_4  and  N1_5 
REMARK    2  A    between atoms: N1_5  and  C5_6 
REMARK    3  A    between atoms: P1_13  and  C10_14 
REMARK    4  A    between atoms: C10_14  and  N4_15 
ROOT
HETATM    1  C5  UNL     1      23.994   2.953  51.468  1.00  0.00     0.142 A 
HETATM    2  N2  UNL     1      24.236   4.256  51.660  1.00  0.00    -0.224 NA
HETATM    3  C6  UNL     1      23.254   5.072  52.050  1.00  0.00     0.236 A 
HETATM    4  N3  UNL     1      21.993   4.644  52.271  1.00  0.00    -0.241 NA
HETATM    5  C7  UNL     1      21.729   3.315  52.080  1.00  0.00     0.075 A 
HETATM    6  C8  UNL     1      22.728   2.464  51.676  1.00  0.00     0.040 A 
HETATM    7  C9  UNL     1      22.387   1.055  51.376  1.00  0.00     0.030 C 
HETATM    8  P1  UNL     1      21.119   0.436  52.045  1.00  0.00    -0.013 P 
HETATM    9  C11 UNL     1      19.543   0.294  51.269  1.00  0.00     0.217 C 
HETATM   10  O1  UNL     1      19.039   0.636  52.601  1.00  0.00    -0.346 OA
HETATM   11  C12 UNL     1      19.917   1.733  52.460  1.00  0.00     0.077 C 
HETATM   12  C13 UNL     1      20.380   2.969  52.450  1.00  0.00     0.070 C 
ENDROOT
BRANCH   1  13
HETATM   13  N1  UNL     1      25.020   2.070  51.060  1.00  0.00    -0.340 N 
HETATM   14  H5  UNL     1      25.081   1.782  50.060  1.00  0.00     0.167 HD
BRANCH  13  15
HETATM   15  C4  UNL     1      26.046   1.453  51.815  1.00  0.00     0.034 A 
HETATM   16  C3  UNL     1      27.066   2.159  52.463  1.00  0.00     0.038 A 
HETATM   17  C2  UNL     1      28.051   1.577  53.190  1.00  0.00    -0.038 A 
HETATM   18  C1  UNL     1      29.072   2.432  53.825  1.00  0.00     0.050 C 
HETATM   19  C16 UNL     1      28.110   0.230  53.338  1.00  0.00     0.040 A 
HETATM   20  C15 UNL     1      27.146  -0.535  52.733  1.00  0.00     0.026 A 
HETATM   21 CL1  UNL     1      29.405  -0.451  54.286  1.00  0.00    -0.084 Cl
HETATM   22  C14 UNL     1      26.158   0.089  52.002  1.00  0.00     0.031 A 
ENDBRANCH  13  15
ENDBRANCH   1  13
BRANCH   8  23
HETATM   23  C10 UNL     1      21.395  -0.718  53.412  1.00  0.00     0.308 C 
BRANCH  23  24
HETATM   24  N4  UNL     1      20.914  -0.143  54.664  1.00  0.00     0.082 N 
HETATM   25  H10 UNL     1      20.114  -0.743  55.007  1.00  0.00     0.313 HD
HETATM   26  H11 UNL     1      20.469   0.795  54.468  1.00  0.00     0.313 HD
ENDBRANCH  23  24
ENDBRANCH   8  23
TORSDOF 4
ENDMDL
MODEL 6
REMARK VINA RESULT:      -7.5      2.102      3.348
REMARK  4 active torsions:
REMARK  status: ('A' for Active; 'I' for Inactive)
REMARK    1  A    between atoms: C4_4  and  N1_5 
REMARK    2  A    between atoms: N1_5  and  C5_6 
REMARK    3  A    between atoms: P1_13  and  C10_14 
REMARK    4  A    between atoms: C10_14  and  N4_15 
ROOT
HETATM    1  C5  UNL     1      25.520   3.967  50.146  1.00  0.00     0.142 A 
HETATM    2  N2  UNL     1      24.400   4.688  50.018  1.00  0.00    -0.224 NA
HETATM    3  C6  UNL     1      23.451   4.630  50.955  1.00  0.00     0.236 A 
HETATM    4  N3  UNL     1      23.563   3.864  52.061  1.00  0.00    -0.241 NA
HETATM    5  C7  UNL     1      24.704   3.122  52.209  1.00  0.00     0.075 A 
HETATM    6  C8  UNL     1      25.686   3.168  51.251  1.00  0.00     0.040 A 
HETATM    7  C9  UNL     1      26.858   2.274  51.388  1.00  0.00     0.030 C 
HETATM    8  P1  UNL     1      27.241   1.759  52.811  1.00  0.00    -0.013 P 
HETATM    9  C11 UNL     1      26.792   0.185  53.463  1.00  0.00     0.217 C 
HETATM   10  O1  UNL     1      26.614   0.935  54.709  1.00  0.00    -0.346 OA
HETATM   11  C12 UNL     1      25.787   1.743  53.899  1.00  0.00     0.077 C 
HETATM   12  C13 UNL     1      24.746   2.435  53.475  1.00  0.00     0.070 C 
ENDROOT
BRANCH   1  13
HETATM   13  N1  UNL     1      26.540   4.016  49.169  1.00  0.00    -0.340 N 
HETATM   14  H5  UNL     1      26.857   3.133  48.712  1.00  0.00     0.167 HD
BRANCH  13  15
HETATM   15  C4  UNL     1      27.268   5.121  48.664  1.00  0.00     0.034 A 
HETATM   16  C3  UNL     1      26.693   6.361  48.370  1.00  0.00     0.038 A 
HETATM   17  C2  UNL     1      27.383   7.425  47.889  1.00  0.00    -0.038 A 
HETATM   18  C1  UNL     1      26.660   8.682  47.616  1.00  0.00     0.050 C 
HETATM   19  C16 UNL     1      28.717   7.348  47.657  1.00  0.00     0.040 A 
HETATM   20  C15 UNL     1      29.357   6.164  47.921  1.00  0.00     0.026 A 
HETATM   21 CL1  UNL     1      29.540   8.754  47.039  1.00  0.00    -0.084 Cl
HETATM   22  C14 UNL     1      28.626   5.102  48.410  1.00  0.00     0.031 A 
ENDBRANCH  13  15
ENDBRANCH   1  13
BRANCH   8  23
HETATM   23  C10 UNL     1      28.686   2.517  53.594  1.00  0.00     0.308 C 
BRANCH  23  24
HETATM   24  N4  UNL     1      29.628   1.487  54.020  1.00  0.00     0.082 N 
HETATM   25  H10 UNL     1      30.390   1.959  54.581  1.00  0.00     0.313 HD
HETATM   26  H11 UNL     1      30.131   1.102  53.174  1.00  0.00     0.313 HD
ENDBRANCH  23  24
ENDBRANCH   8  23
TORSDOF 4
ENDMDL
MODEL 7
REMARK VINA RESULT:      -7.3      3.910      6.083
REMARK  4 active torsions:
REMARK  status: ('A' for Active; 'I' for Inactive)
REMARK    1  A    between atoms: C4_4  and  N1_5 
REMARK    2  A    between atoms: N1_5  and  C5_6 
REMARK    3  A    between atoms: P1_13  and  C10_14 
REMARK    4  A    between atoms: C10_14  and  N4_15 
ROOT
HETATM    1  C5  UNL     1      22.601   1.794  51.734  1.00  0.00     0.142 A 
HETATM    2  N2  UNL     1      22.267   3.062  51.466  1.00  0.00    -0.224 NA
HETATM    3  C6  UNL     1      22.981   4.068  51.978  1.00  0.00     0.236 A 
HETATM    4  N3  UNL     1      24.054   3.872  52.774  1.00  0.00    -0.241 NA
HETATM    5  C7  UNL     1      24.409   2.580  53.057  1.00  0.00     0.075 A 
HETATM    6  C8  UNL     1      23.682   1.536  52.540  1.00  0.00     0.040 A 
HETATM    7  C9  UNL     1      24.027   0.156  52.950  1.00  0.00     0.030 C 
HETATM    8  P1  UNL     1      25.477  -0.133  53.452  1.00  0.00    -0.013 P 
HETATM    9  C11 UNL     1      25.956  -0.213  55.145  1.00  0.00     0.217 C 
HETATM   10  O1  UNL     1      27.166   0.459  54.665  1.00  0.00    -0.346 OA
HETATM   11  C12 UNL     1      26.233   1.374  54.128  1.00  0.00     0.077 C 
HETATM   12  C13 UNL     1      25.626   2.506  53.824  1.00  0.00     0.070 C 
ENDROOT
BRANCH   1  13
HETATM   13  N1  UNL     1      21.863   0.713  51.199  1.00  0.00    -0.340 N 
HETATM   14  H5  UNL     1      22.366  -0.061  50.713  1.00  0.00     0.167 HD
BRANCH  13  15
HETATM   15  C4  UNL     1      20.468   0.475  51.194  1.00  0.00     0.034 A 
HETATM   16  C3  UNL     1      19.793  -0.218  52.205  1.00  0.00     0.038 A 
HETATM   17  C2  UNL     1      18.458  -0.448  52.210  1.00  0.00    -0.038 A 
HETATM   18  C1  UNL     1      17.864  -1.195  53.336  1.00  0.00     0.050 C 
HETATM   19  C16 UNL     1      17.666  -0.006  51.201  1.00  0.00     0.040 A 
HETATM   20  C15 UNL     1      18.251   0.684  50.170  1.00  0.00     0.026 A 
HETATM   21 CL1  UNL     1      15.957  -0.337  51.271  1.00  0.00    -0.084 Cl
HETATM   22  C14 UNL     1      19.612   0.901  50.196  1.00  0.00     0.031 A 
ENDBRANCH  13  15
ENDBRANCH   1  13
BRANCH   8  23
HETATM   23  C10 UNL     1      26.577  -1.010  52.313  1.00  0.00     0.308 C 
BRANCH  23  24
HETATM   24  N4  UNL     1      27.265  -2.093  53.008  1.00  0.00     0.082 N 
HETATM   25  H10 UNL     1      26.565  -2.869  53.170  1.00  0.00     0.313 HD
HETATM   26  H11 UNL     1      27.524  -1.772  53.982  1.00  0.00     0.313 HD
ENDBRANCH  23  24
ENDBRANCH   8  23
TORSDOF 4
ENDMDL
MODEL 8
REMARK VINA RESULT:      -7.3      3.041      4.909
REMARK  4 active torsions:
REMARK  status: ('A' for Active; 'I' for Inactive)
REMARK    1  A    between atoms: C4_4  and  N1_5 
REMARK    2  A    between atoms: N1_5  and  C5_6 
REMARK    3  A    between atoms: P1_13  and  C10_14 
REMARK    4  A    between atoms: C10_14  and  N4_15 
ROOT
HETATM    1  C5  UNL     1      25.990   2.865  50.659  1.00  0.00     0.142 A 
HETATM    2  N2  UNL     1      27.068   2.583  51.399  1.00  0.00    -0.224 NA
HETATM    3  C6  UNL     1      26.930   2.017  52.601  1.00  0.00     0.236 A 
HETATM    4  N3  UNL     1      25.727   1.701  53.126  1.00  0.00    -0.241 NA
HETATM    5  C7  UNL     1      24.614   1.983  52.380  1.00  0.00     0.075 A 
HETATM    6  C8  UNL     1      24.740   2.568  51.145  1.00  0.00     0.040 A 
HETATM    7  C9  UNL     1      23.514   2.956  50.411  1.00  0.00     0.030 C 
HETATM    8  P1  UNL     1      22.181   2.213  50.740  1.00  0.00    -0.013 P 
HETATM    9  C11 UNL     1      20.933   2.824  51.824  1.00  0.00     0.217 C 
HETATM   10  O1  UNL     1      20.826   1.420  52.227  1.00  0.00    -0.346 OA
HETATM   11  C12 UNL     1      22.217   1.555  52.433  1.00  0.00     0.077 C 
HETATM   12  C13 UNL     1      23.406   1.503  53.003  1.00  0.00     0.070 C 
ENDROOT
BRANCH   1  13
HETATM   13  N1  UNL     1      26.112   3.460  49.382  1.00  0.00    -0.340 N 
HETATM   14  H5  UNL     1      25.765   2.949  48.542  1.00  0.00     0.167 HD
BRANCH  13  15
HETATM   15  C4  UNL     1      26.665   4.708  49.006  1.00  0.00     0.034 A 
HETATM   16  C3  UNL     1      27.990   4.877  48.590  1.00  0.00     0.038 A 
HETATM   17  C2  UNL     1      28.528   6.067  48.227  1.00  0.00    -0.038 A 
HETATM   18  C1  UNL     1      29.942   6.116  47.807  1.00  0.00     0.050 C 
HETATM   19  C16 UNL     1      27.788   7.205  48.243  1.00  0.00     0.040 A 
HETATM   20  C15 UNL     1      26.478   7.123  48.639  1.00  0.00     0.026 A 
HETATM   21 CL1  UNL     1      28.543   8.700  47.763  1.00  0.00    -0.084 Cl
HETATM   22  C14 UNL     1      25.963   5.897  49.003  1.00  0.00     0.031 A 
ENDBRANCH  13  15
ENDBRANCH   1  13
BRANCH   8  23
HETATM   23  C10 UNL     1      21.603   0.995  49.533  1.00  0.00     0.308 C 
BRANCH  23  24
HETATM   24  N4  UNL     1      20.221   1.275  49.155  1.00  0.00     0.082 N 
HETATM   25  H10 UNL     1      19.593   0.704  49.785  1.00  0.00     0.313 HD
HETATM   26  H11 UNL     1      20.039   0.886  48.189  1.00  0.00     0.313 HD
ENDBRANCH  23  24
ENDBRANCH   8  23
TORSDOF 4
ENDMDL
MODEL 9
REMARK VINA RESULT:      -7.3      4.123      6.998
REMARK  4 active torsions:
REMARK  status: ('A' for Active; 'I' for Inactive)
REMARK    1  A    between atoms: C4_4  and  N1_5 
REMARK    2  A    between atoms: N1_5  and  C5_6 
REMARK    3  A    between atoms: P1_13  and  C10_14 
REMARK    4  A    between atoms: C10_14  and  N4_15 
ROOT
HETATM    1  C5  UNL     1      24.542   2.456  52.243  1.00  0.00     0.142 A 
HETATM    2  N2  UNL     1      25.567   1.627  52.472  1.00  0.00    -0.224 NA
HETATM    3  C6  UNL     1      26.646   1.656  51.685  1.00  0.00     0.236 A 
HETATM    4  N3  UNL     1      26.765   2.503  50.641  1.00  0.00    -0.241 NA
HETATM    5  C7  UNL     1      25.725   3.358  50.393  1.00  0.00     0.075 A 
HETATM    6  C8  UNL     1      24.609   3.337  51.191  1.00  0.00     0.040 A 
HETATM    7  C9  UNL     1      23.460   4.199  50.833  1.00  0.00     0.030 C 
HETATM    8  P1  UNL     1      23.723   5.473  49.970  1.00  0.00    -0.013 P 
HETATM    9  C11 UNL     1      23.495   5.570  48.226  1.00  0.00     0.217 C 
HETATM   10  O1  UNL     1      24.709   6.388  48.277  1.00  0.00    -0.346 OA
HETATM   11  C12 UNL     1      25.223   5.268  48.967  1.00  0.00     0.077 C 
HETATM   12  C13 UNL     1      26.020   4.277  49.322  1.00  0.00     0.070 C 
ENDROOT
BRANCH   1  13
HETATM   13  N1  UNL     1      23.392   2.446  53.065  1.00  0.00    -0.340 N 
HETATM   14  H5  UNL     1      23.295   3.160  53.819  1.00  0.00     0.167 HD
BRANCH  13  15
HETATM   15  C4  UNL     1      22.273   1.579  53.058  1.00  0.00     0.034 A 
HETATM   16  C3  UNL     1      22.268   0.312  53.651  1.00  0.00     0.038 A 
HETATM   17  C2  UNL     1      21.201  -0.524  53.651  1.00  0.00    -0.038 A 
HETATM   18  C1  UNL     1      21.322  -1.839  54.310  1.00  0.00     0.050 C 
HETATM   19  C16 UNL     1      20.034  -0.170  53.058  1.00  0.00     0.040 A 
HETATM   20  C15 UNL     1      19.956   1.059  52.454  1.00  0.00     0.026 A 
HETATM   21 CL1  UNL     1      18.702  -1.294  53.097  1.00  0.00    -0.084 Cl
HETATM   22  C14 UNL     1      21.060   1.884  52.472  1.00  0.00     0.031 A 
ENDBRANCH  13  15
ENDBRANCH   1  13
BRANCH   8  23
HETATM   23  C10 UNL     1      23.674   7.067  50.828  1.00  0.00     0.308 C 
BRANCH  23  24
HETATM   24  N4  UNL     1      24.500   7.019  52.030  1.00  0.00     0.082 N 
HETATM   25  H10 UNL     1      25.511   6.959  51.725  1.00  0.00     0.313 HD
HETATM   26  H11 UNL     1      24.328   6.107  52.536  1.00  0.00     0.313 HD
ENDBRANCH  23  24
ENDBRANCH   8  23
TORSDOF 4
ENDMDL
