MODEL 1
REMARK VINA RESULT:      -8.5      0.000      0.000
REMARK  5 active torsions:
REMARK  status: ('A' for Active; 'I' for Inactive)
REMARK    1  A    between atoms: C3_4  and  N2_5 
REMARK    2  A    between atoms: N2_5  and  C4_6 
REMARK    3  A    between atoms: C6_8  and  O1_9 
REMARK    4  A    between atoms: C8_11  and  O2_12 
REMARK    5  A    between atoms: C10_14  and  O3_15 
ROOT
HETATM    1  C1  UNL     1      24.551   0.971  52.253  1.00  0.00     0.044 C 
HETATM    2  C2  UNL     1      24.113   0.244  53.265  1.00  0.00     0.084 A 
HETATM    3  N1  UNL     1      22.714   0.253  53.536  1.00  0.00    -0.065 NA
HETATM    4  C3  UNL     1      22.305  -0.473  54.550  1.00  0.00     0.727 A 
HETATM    5  N3  UNL     1      23.132  -1.272  55.403  1.00  0.00    -0.076 NA
HETATM    6  C13 UNL     1      24.411  -1.255  55.118  1.00  0.00     0.153 A 
HETATM    7  C14 UNL     1      25.105  -0.514  54.027  1.00  0.00     0.151 A 
HETATM    8  C15 UNL     1      25.966  -1.377  53.205  1.00  0.00     0.032 A 
HETATM    9  C16 UNL     1      27.248  -1.076  53.350  1.00  0.00    -0.008 A 
HETATM   10  C17 UNL     1      28.471  -1.502  52.872  1.00  0.00     0.013 A 
HETATM   11  C18 UNL     1      29.664  -0.905  53.279  1.00  0.00     0.001 A 
HETATM   12  C19 UNL     1      29.657   0.144  54.183  1.00  0.00     0.002 A 
HETATM   13  C20 UNL     1      28.426   0.567  54.659  1.00  0.00     0.032 A 
HETATM   14  C21 UNL     1      27.244  -0.030  54.251  1.00  0.00     0.063 A 
HETATM   15  N4  UNL     1      26.086   0.346  54.681  1.00  0.00    -0.262 NA
ENDROOT
BRANCH   4  16
HETATM   16  N2  UNL     1      20.904  -0.435  54.785  1.00  0.00    -0.188 N 
HETATM   17  H3  UNL     1      20.557  -0.362  55.788  1.00  0.00     0.184 HD
BRANCH  16  18
HETATM   18  C4  UNL     1      19.921  -0.482  53.773  1.00  0.00     0.054 A 
HETATM   19  C5  UNL     1      19.954   0.401  52.690  1.00  0.00     0.069 A 
HETATM   20  C6  UNL     1      19.020   0.391  51.676  1.00  0.00     0.106 A 
HETATM   21  C8  UNL     1      17.989  -0.517  51.692  1.00  0.00     0.135 A 
HETATM   22  C10 UNL     1      17.904  -1.414  52.735  1.00  0.00     0.106 A 
HETATM   23  C12 UNL     1      18.865  -1.357  53.718  1.00  0.00     0.069 A 
BRANCH  20  24
HETATM   24  O1  UNL     1      19.106   1.286  50.637  1.00  0.00    -0.353 OA
HETATM   25  C7  UNL     1      20.156   1.275  49.694  1.00  0.00     0.210 C 
ENDBRANCH  20  24
BRANCH  21  26
HETATM   26  O2  UNL     1      17.062  -0.507  50.659  1.00  0.00    -0.351 OA
HETATM   27  C9  UNL     1      15.871   0.259  50.795  1.00  0.00     0.210 C 
ENDBRANCH  21  26
BRANCH  22  28
HETATM   28  O3  UNL     1      16.872  -2.329  52.758  1.00  0.00    -0.353 OA
HETATM   29  C11 UNL     1      17.038  -3.559  53.457  1.00  0.00     0.210 C 
ENDBRANCH  22  28
ENDBRANCH  16  18
ENDBRANCH   4  16
TORSDOF 5
ENDMDL
MODEL 2
REMARK VINA RESULT:      -8.5      0.393      2.429
REMARK  5 active torsions:
REMARK  status: ('A' for Active; 'I' for Inactive)
REMARK    1  A    between atoms: C3_4  and  N2_5 
REMARK    2  A    between atoms: N2_5  and  C4_6 
REMARK    3  A    between atoms: C6_8  and  O1_9 
REMARK    4  A    between atoms: C8_11  and  O2_12 
REMARK    5  A    between atoms: C10_14  and  O3_15 
ROOT
HETATM    1  C1  UNL     1      24.392   1.108  52.244  1.00  0.00     0.044 C 
HETATM    2  C2  UNL     1      23.899   0.327  53.189  1.00  0.00     0.084 A 
HETATM    3  N1  UNL     1      22.490   0.339  53.396  1.00  0.00    -0.065 NA
HETATM    4  C3  UNL     1      22.025  -0.440  54.344  1.00  0.00     0.727 A 
HETATM    5  N3  UNL     1      22.803  -1.302  55.183  1.00  0.00    -0.076 NA
HETATM    6  C13 UNL     1      24.094  -1.286  54.959  1.00  0.00     0.153 A 
HETATM    7  C14 UNL     1      24.846  -0.490  53.948  1.00  0.00     0.151 A 
HETATM    8  C15 UNL     1      25.735  -1.314  53.115  1.00  0.00     0.032 A 
HETATM    9  C16 UNL     1      27.011  -1.040  53.336  1.00  0.00    -0.008 A 
HETATM   10  C17 UNL     1      28.250  -1.454  52.889  1.00  0.00     0.013 A 
HETATM   11  C18 UNL     1      29.430  -0.900  53.385  1.00  0.00     0.001 A 
HETATM   12  C19 UNL     1      29.393   0.092  54.351  1.00  0.00     0.002 A 
HETATM   13  C20 UNL     1      28.147   0.504  54.795  1.00  0.00     0.032 A 
HETATM   14  C21 UNL     1      26.978  -0.051  54.298  1.00  0.00     0.063 A 
HETATM   15  N4  UNL     1      25.806   0.315  54.697  1.00  0.00    -0.262 NA
ENDROOT
BRANCH   4  16
HETATM   16  N2  UNL     1      20.616  -0.397  54.517  1.00  0.00    -0.188 N 
HETATM   17  H3  UNL     1      20.224  -0.340  55.505  1.00  0.00     0.184 HD
BRANCH  16  18
HETATM   18  C4  UNL     1      19.679  -0.418  53.462  1.00  0.00     0.054 A 
HETATM   19  C5  UNL     1      18.500  -1.164  53.554  1.00  0.00     0.069 A 
HETATM   20  C6  UNL     1      17.554  -1.212  52.554  1.00  0.00     0.106 A 
HETATM   21  C8  UNL     1      17.739  -0.505  51.389  1.00  0.00     0.135 A 
HETATM   22  C10 UNL     1      18.883   0.249  51.240  1.00  0.00     0.106 A 
HETATM   23  C12 UNL     1      19.791   0.259  52.273  1.00  0.00     0.069 A 
BRANCH  20  24
HETATM   24  O1  UNL     1      16.414  -1.965  52.704  1.00  0.00    -0.353 OA
HETATM   25  C7  UNL     1      16.432  -3.322  53.090  1.00  0.00     0.210 C 
ENDBRANCH  20  24
BRANCH  21  26
HETATM   26  O2  UNL     1      16.771  -0.571  50.397  1.00  0.00    -0.351 OA
HETATM   27  C9  UNL     1      15.726   0.394  50.375  1.00  0.00     0.210 C 
ENDBRANCH  21  26
BRANCH  22  28
HETATM   28  O3  UNL     1      19.075   0.961  50.074  1.00  0.00    -0.353 OA
HETATM   29  C11 UNL     1      20.397   1.306  49.672  1.00  0.00     0.210 C 
ENDBRANCH  22  28
ENDBRANCH  16  18
ENDBRANCH   4  16
TORSDOF 5
ENDMDL
MODEL 3
REMARK VINA RESULT:      -8.3      1.498      2.546
REMARK  5 active torsions:
REMARK  status: ('A' for Active; 'I' for Inactive)
REMARK    1  A    between atoms: C3_4  and  N2_5 
REMARK    2  A    between atoms: N2_5  and  C4_6 
REMARK    3  A    between atoms: C6_8  and  O1_9 
REMARK    4  A    between atoms: C8_11  and  O2_12 
REMARK    5  A    between atoms: C10_14  and  O3_15 
ROOT
HETATM    1  C1  UNL     1      24.971  -1.257  56.025  1.00  0.00     0.044 C 
HETATM    2  C2  UNL     1      24.396  -0.811  54.922  1.00  0.00     0.084 A 
HETATM    3  N1  UNL     1      22.976  -0.876  54.838  1.00  0.00    -0.065 NA
HETATM    4  C3  UNL     1      22.428  -0.432  53.731  1.00  0.00     0.727 A 
HETATM    5  N3  UNL     1      23.127   0.114  52.606  1.00  0.00    -0.076 NA
HETATM    6  C13 UNL     1      24.431   0.158  52.724  1.00  0.00     0.153 A 
HETATM    7  C14 UNL     1      25.270  -0.284  53.874  1.00  0.00     0.151 A 
HETATM    8  C15 UNL     1      26.205   0.753  54.334  1.00  0.00     0.032 A 
HETATM    9  C16 UNL     1      27.466   0.413  54.113  1.00  0.00    -0.008 A 
HETATM   10  C17 UNL     1      28.728   0.936  54.311  1.00  0.00     0.013 A 
HETATM   11  C18 UNL     1      29.876   0.244  53.926  1.00  0.00     0.001 A 
HETATM   12  C19 UNL     1      29.782  -1.002  53.329  1.00  0.00     0.002 A 
HETATM   13  C20 UNL     1      28.513  -1.522  53.134  1.00  0.00     0.032 A 
HETATM   14  C21 UNL     1      27.376  -0.830  53.518  1.00  0.00     0.063 A 
HETATM   15  N4  UNL     1      26.184  -1.293  53.347  1.00  0.00    -0.262 NA
ENDROOT
BRANCH   4  16
HETATM   16  N2  UNL     1      21.011  -0.516  53.689  1.00  0.00    -0.188 N 
HETATM   17  H3  UNL     1      20.520  -1.197  54.344  1.00  0.00     0.184 HD
BRANCH  16  18
HETATM   18  C4  UNL     1      20.188   0.250  52.835  1.00  0.00     0.054 A 
HETATM   19  C5  UNL     1      20.274   1.645  52.807  1.00  0.00     0.069 A 
HETATM   20  C6  UNL     1      19.496   2.435  51.989  1.00  0.00     0.106 A 
HETATM   21  C8  UNL     1      18.578   1.863  51.140  1.00  0.00     0.135 A 
HETATM   22  C10 UNL     1      18.449   0.490  51.124  1.00  0.00     0.106 A 
HETATM   23  C12 UNL     1      19.252  -0.246  51.962  1.00  0.00     0.069 A 
BRANCH  20  24
HETATM   24  O1  UNL     1      19.626   3.803  52.007  1.00  0.00    -0.353 OA
HETATM   25  C7  UNL     1      20.768   4.475  51.522  1.00  0.00     0.210 C 
ENDBRANCH  20  24
BRANCH  21  26
HETATM   26  O2  UNL     1      17.808   2.680  50.326  1.00  0.00    -0.351 OA
HETATM   27  C9  UNL     1      18.249   2.967  49.004  1.00  0.00     0.210 C 
ENDBRANCH  21  26
BRANCH  22  28
HETATM   28  O3  UNL     1      17.530  -0.091  50.274  1.00  0.00    -0.353 OA
HETATM   29  C11 UNL     1      16.292  -0.563  50.796  1.00  0.00     0.210 C 
ENDBRANCH  22  28
ENDBRANCH  16  18
ENDBRANCH   4  16
TORSDOF 5
ENDMDL
MODEL 4
REMARK VINA RESULT:      -8.3      1.531      3.245
REMARK  5 active torsions:
REMARK  status: ('A' for Active; 'I' for Inactive)
REMARK    1  A    between atoms: C3_4  and  N2_5 
REMARK    2  A    between atoms: N2_5  and  C4_6 
REMARK    3  A    between atoms: C6_8  and  O1_9 
REMARK    4  A    between atoms: C8_11  and  O2_12 
REMARK    5  A    between atoms: C10_14  and  O3_15 
ROOT
HETATM    1  C1  UNL     1      24.869  -1.273  55.939  1.00  0.00     0.044 C 
HETATM    2  C2  UNL     1      24.319  -0.816  54.828  1.00  0.00     0.084 A 
HETATM    3  N1  UNL     1      22.902  -0.884  54.710  1.00  0.00    -0.065 NA
HETATM    4  C3  UNL     1      22.379  -0.428  53.596  1.00  0.00     0.727 A 
HETATM    5  N3  UNL     1      23.102   0.132  52.494  1.00  0.00    -0.076 NA
HETATM    6  C13 UNL     1      24.404   0.179  52.643  1.00  0.00     0.153 A 
HETATM    7  C14 UNL     1      25.216  -0.274  53.808  1.00  0.00     0.151 A 
HETATM    8  C15 UNL     1      26.137   0.760  54.301  1.00  0.00     0.032 A 
HETATM    9  C16 UNL     1      27.404   0.426  54.106  1.00  0.00    -0.008 A 
HETATM   10  C17 UNL     1      28.659   0.950  54.339  1.00  0.00     0.013 A 
HETATM   11  C18 UNL     1      29.818   0.265  53.973  1.00  0.00     0.001 A 
HETATM   12  C19 UNL     1      29.742  -0.974  53.360  1.00  0.00     0.002 A 
HETATM   13  C20 UNL     1      28.479  -1.495  53.129  1.00  0.00     0.032 A 
HETATM   14  C21 UNL     1      27.332  -0.810  53.495  1.00  0.00     0.063 A 
HETATM   15  N4  UNL     1      26.145  -1.274  53.290  1.00  0.00    -0.262 NA
ENDROOT
BRANCH   4  16
HETATM   16  N2  UNL     1      20.963  -0.515  53.520  1.00  0.00    -0.188 N 
HETATM   17  H3  UNL     1      20.466  -1.261  54.094  1.00  0.00     0.184 HD
BRANCH  16  18
HETATM   18  C4  UNL     1      20.150   0.328  52.732  1.00  0.00     0.054 A 
HETATM   19  C5  UNL     1      19.174  -0.197  51.880  1.00  0.00     0.069 A 
HETATM   20  C6  UNL     1      18.354   0.584  51.095  1.00  0.00     0.106 A 
HETATM   21  C8  UNL     1      18.468   1.954  51.123  1.00  0.00     0.135 A 
HETATM   22  C10 UNL     1      19.413   2.530  51.944  1.00  0.00     0.106 A 
HETATM   23  C12 UNL     1      20.203   1.699  52.705  1.00  0.00     0.069 A 
BRANCH  20  24
HETATM   24  O1  UNL     1      17.413   0.009  50.277  1.00  0.00    -0.353 OA
HETATM   25  C7  UNL     1      16.248  -0.621  50.765  1.00  0.00     0.210 C 
ENDBRANCH  20  24
BRANCH  21  26
HETATM   26  O2  UNL     1      17.630   2.719  50.324  1.00  0.00    -0.351 OA
HETATM   27  C9  UNL     1      16.413   3.220  50.864  1.00  0.00     0.210 C 
ENDBRANCH  21  26
BRANCH  22  28
HETATM   28  O3  UNL     1      19.533   3.904  51.978  1.00  0.00    -0.353 OA
HETATM   29  C11 UNL     1      20.581   4.536  51.250  1.00  0.00     0.210 C 
ENDBRANCH  22  28
ENDBRANCH  16  18
ENDBRANCH   4  16
TORSDOF 5
ENDMDL
MODEL 5
REMARK VINA RESULT:      -8.2      3.311      4.526
REMARK  5 active torsions:
REMARK  status: ('A' for Active; 'I' for Inactive)
REMARK    1  A    between atoms: C3_4  and  N2_5 
REMARK    2  A    between atoms: N2_5  and  C4_6 
REMARK    3  A    between atoms: C6_8  and  O1_9 
REMARK    4  A    between atoms: C8_11  and  O2_12 
REMARK    5  A    between atoms: C10_14  and  O3_15 
ROOT
HETATM    1  C1  UNL     1      26.536   2.468  50.181  1.00  0.00     0.044 C 
HETATM    2  C2  UNL     1      25.760   2.773  51.205  1.00  0.00     0.084 A 
HETATM    3  N1  UNL     1      24.798   3.809  51.027  1.00  0.00    -0.065 NA
HETATM    4  C3  UNL     1      24.043   4.098  52.061  1.00  0.00     0.727 A 
HETATM    5  N3  UNL     1      24.095   3.467  53.345  1.00  0.00    -0.076 NA
HETATM    6  C13 UNL     1      24.991   2.517  53.467  1.00  0.00     0.153 A 
HETATM    7  C14 UNL     1      25.952   2.018  52.443  1.00  0.00     0.151 A 
HETATM    8  C15 UNL     1      25.903   0.559  52.274  1.00  0.00     0.032 A 
HETATM    9  C16 UNL     1      27.023  -0.022  52.677  1.00  0.00    -0.008 A 
HETATM   10  C17 UNL     1      27.555  -1.293  52.767  1.00  0.00     0.013 A 
HETATM   11  C18 UNL     1      28.835  -1.517  53.272  1.00  0.00     0.001 A 
HETATM   12  C19 UNL     1      29.619  -0.460  53.703  1.00  0.00     0.002 A 
HETATM   13  C20 UNL     1      29.080   0.813  53.610  1.00  0.00     0.032 A 
HETATM   14  C21 UNL     1      27.808   1.029  53.107  1.00  0.00     0.063 A 
HETATM   15  N4  UNL     1      27.284   2.205  53.012  1.00  0.00    -0.262 NA
ENDROOT
BRANCH   4  16
HETATM   16  N2  UNL     1      23.099   5.136  51.840  1.00  0.00    -0.188 N 
HETATM   17  H3  UNL     1      23.401   6.144  52.004  1.00  0.00     0.184 HD
BRANCH  16  18
HETATM   18  C4  UNL     1      21.772   4.933  51.407  1.00  0.00     0.054 A 
HETATM   19  C5  UNL     1      21.222   5.695  50.372  1.00  0.00     0.069 A 
HETATM   20  C6  UNL     1      19.934   5.531  49.911  1.00  0.00     0.106 A 
HETATM   21  C8  UNL     1      19.114   4.578  50.469  1.00  0.00     0.135 A 
HETATM   22  C10 UNL     1      19.601   3.796  51.494  1.00  0.00     0.106 A 
HETATM   23  C12 UNL     1      20.894   4.005  51.911  1.00  0.00     0.069 A 
BRANCH  20  24
HETATM   24  O1  UNL     1      19.450   6.312  48.890  1.00  0.00    -0.353 OA
HETATM   25  C7  UNL     1      19.429   7.722  48.941  1.00  0.00     0.210 C 
ENDBRANCH  20  24
BRANCH  21  26
HETATM   26  O2  UNL     1      17.821   4.432  49.988  1.00  0.00    -0.351 OA
HETATM   27  C9  UNL     1      17.568   3.517  48.929  1.00  0.00     0.210 C 
ENDBRANCH  21  26
BRANCH  22  28
HETATM   28  O3  UNL     1      18.784   2.837  52.059  1.00  0.00    -0.353 OA
HETATM   29  C11 UNL     1      18.988   1.464  51.741  1.00  0.00     0.210 C 
ENDBRANCH  22  28
ENDBRANCH  16  18
ENDBRANCH   4  16
TORSDOF 5
ENDMDL
MODEL 6
REMARK VINA RESULT:      -8.1      3.276      5.068
REMARK  5 active torsions:
REMARK  status: ('A' for Active; 'I' for Inactive)
REMARK    1  A    between atoms: C3_4  and  N2_5 
REMARK    2  A    between atoms: N2_5  and  C4_6 
REMARK    3  A    between atoms: C6_8  and  O1_9 
REMARK    4  A    between atoms: C8_11  and  O2_12 
REMARK    5  A    between atoms: C10_14  and  O3_15 
ROOT
HETATM    1  C1  UNL     1      26.426   2.452  50.191  1.00  0.00     0.044 C 
HETATM    2  C2  UNL     1      25.701   2.787  51.244  1.00  0.00     0.084 A 
HETATM    3  N1  UNL     1      24.753   3.840  51.092  1.00  0.00    -0.065 NA
HETATM    4  C3  UNL     1      24.049   4.158  52.153  1.00  0.00     0.727 A 
HETATM    5  N3  UNL     1      24.145   3.543  53.443  1.00  0.00    -0.076 NA
HETATM    6  C13 UNL     1      25.026   2.578  53.540  1.00  0.00     0.153 A 
HETATM    7  C14 UNL     1      25.933   2.045  52.483  1.00  0.00     0.151 A 
HETATM    8  C15 UNL     1      25.848   0.585  52.337  1.00  0.00     0.032 A 
HETATM    9  C16 UNL     1      26.973  -0.012  52.700  1.00  0.00    -0.008 A 
HETATM   10  C17 UNL     1      27.484  -1.292  52.785  1.00  0.00     0.013 A 
HETATM   11  C18 UNL     1      28.780  -1.534  53.238  1.00  0.00     0.001 A 
HETATM   12  C19 UNL     1      29.603  -0.488  53.619  1.00  0.00     0.002 A 
HETATM   13  C20 UNL     1      29.085   0.795  53.531  1.00  0.00     0.032 A 
HETATM   14  C21 UNL     1      27.796   1.029  53.081  1.00  0.00     0.063 A 
HETATM   15  N4  UNL     1      27.291   2.214  52.991  1.00  0.00    -0.262 NA
ENDROOT
BRANCH   4  16
HETATM   16  N2  UNL     1      23.117   5.212  51.958  1.00  0.00    -0.188 N 
HETATM   17  H3  UNL     1      23.407   6.203  52.213  1.00  0.00     0.184 HD
BRANCH  16  18
HETATM   18  C4  UNL     1      21.816   5.043  51.438  1.00  0.00     0.054 A 
HETATM   19  C5  UNL     1      20.948   4.079  51.957  1.00  0.00     0.069 A 
HETATM   20  C6  UNL     1      19.667   3.880  51.488  1.00  0.00     0.106 A 
HETATM   21  C8  UNL     1      19.180   4.649  50.457  1.00  0.00     0.135 A 
HETATM   22  C10 UNL     1      19.990   5.617  49.905  1.00  0.00     0.106 A 
HETATM   23  C12 UNL     1      21.258   5.770  50.415  1.00  0.00     0.069 A 
BRANCH  20  24
HETATM   24  O1  UNL     1      18.861   2.914  52.039  1.00  0.00    -0.353 OA
HETATM   25  C7  UNL     1      19.005   1.538  51.761  1.00  0.00     0.210 C 
ENDBRANCH  20  24
BRANCH  21  26
HETATM   26  O2  UNL     1      17.888   4.429  50.002  1.00  0.00    -0.351 OA
HETATM   27  C9  UNL     1      17.675   3.580  48.881  1.00  0.00     0.210 C 
ENDBRANCH  21  26
BRANCH  22  28
HETATM   28  O3  UNL     1      19.507   6.393  48.871  1.00  0.00    -0.353 OA
HETATM   29  C11 UNL     1      20.203   6.420  47.628  1.00  0.00     0.210 C 
ENDBRANCH  22  28
ENDBRANCH  16  18
ENDBRANCH   4  16
TORSDOF 5
ENDMDL
MODEL 7
REMARK VINA RESULT:      -7.8      8.014     11.755
REMARK  5 active torsions:
REMARK  status: ('A' for Active; 'I' for Inactive)
REMARK    1  A    between atoms: C3_4  and  N2_5 
REMARK    2  A    between atoms: N2_5  and  C4_6 
REMARK    3  A    between atoms: C6_8  and  O1_9 
REMARK    4  A    between atoms: C8_11  and  O2_12 
REMARK    5  A    between atoms: C10_14  and  O3_15 
ROOT
HETATM    1  C1  UNL     1      26.422   2.840  49.935  1.00  0.00     0.044 C 
HETATM    2  C2  UNL     1      25.871   3.965  49.516  1.00  0.00     0.084 A 
HETATM    3  N1  UNL     1      26.726   4.960  48.962  1.00  0.00    -0.065 NA
HETATM    4  C3  UNL     1      26.156   6.071  48.557  1.00  0.00     0.727 A 
HETATM    5  N3  UNL     1      24.756   6.370  48.619  1.00  0.00    -0.076 NA
HETATM    6  C13 UNL     1      24.004   5.428  49.133  1.00  0.00     0.153 A 
HETATM    7  C14 UNL     1      24.420   4.095  49.656  1.00  0.00     0.151 A 
HETATM    8  C15 UNL     1      23.655   2.985  49.070  1.00  0.00     0.032 A 
HETATM    9  C16 UNL     1      22.893   2.384  49.970  1.00  0.00    -0.008 A 
HETATM   10  C17 UNL     1      21.996   1.336  50.031  1.00  0.00     0.013 A 
HETATM   11  C18 UNL     1      21.361   0.984  51.222  1.00  0.00     0.001 A 
HETATM   12  C19 UNL     1      21.614   1.683  52.391  1.00  0.00     0.002 A 
HETATM   13  C20 UNL     1      22.516   2.733  52.323  1.00  0.00     0.032 A 
HETATM   14  C21 UNL     1      23.143   3.078  51.137  1.00  0.00     0.063 A 
HETATM   15  N4  UNL     1      23.986   4.052  51.048  1.00  0.00    -0.262 NA
ENDROOT
BRANCH   4  16
HETATM   16  N2  UNL     1      27.045   7.035  48.012  1.00  0.00    -0.188 N 
HETATM   17  H3  UNL     1      26.665   7.741  47.311  1.00  0.00     0.184 HD
BRANCH  16  18
HETATM   18  C4  UNL     1      28.414   7.136  48.337  1.00  0.00     0.054 A 
HETATM   19  C5  UNL     1      28.974   8.348  48.749  1.00  0.00     0.069 A 
HETATM   20  C6  UNL     1      30.304   8.495  49.082  1.00  0.00     0.106 A 
HETATM   21  C8  UNL     1      31.157   7.418  49.019  1.00  0.00     0.135 A 
HETATM   22  C10 UNL     1      30.662   6.196  48.618  1.00  0.00     0.106 A 
HETATM   23  C12 UNL     1      29.327   6.110  48.300  1.00  0.00     0.069 A 
BRANCH  20  24
HETATM   24  O1  UNL     1      30.796   9.714  49.480  1.00  0.00    -0.353 OA
HETATM   25  C7  UNL     1      30.767  10.862  48.660  1.00  0.00     0.210 C 
ENDBRANCH  20  24
BRANCH  21  26
HETATM   26  O2  UNL     1      32.491   7.592  49.358  1.00  0.00    -0.351 OA
HETATM   27  C9  UNL     1      33.430   7.947  48.350  1.00  0.00     0.210 C 
ENDBRANCH  21  26
BRANCH  22  28
HETATM   28  O3  UNL     1      31.512   5.111  48.553  1.00  0.00    -0.353 OA
HETATM   29  C11 UNL     1      31.946   4.634  47.283  1.00  0.00     0.210 C 
ENDBRANCH  22  28
ENDBRANCH  16  18
ENDBRANCH   4  16
TORSDOF 5
ENDMDL
MODEL 8
REMARK VINA RESULT:      -7.8      6.217      8.662
REMARK  5 active torsions:
REMARK  status: ('A' for Active; 'I' for Inactive)
REMARK    1  A    between atoms: C3_4  and  N2_5 
REMARK    2  A    between atoms: N2_5  and  C4_6 
REMARK    3  A    between atoms: C6_8  and  O1_9 
REMARK    4  A    between atoms: C8_11  and  O2_12 
REMARK    5  A    between atoms: C10_14  and  O3_15 
ROOT
HETATM    1  C1  UNL     1      26.544   4.612  49.008  1.00  0.00     0.044 C 
HETATM    2  C2  UNL     1      25.599   5.124  49.776  1.00  0.00     0.084 A 
HETATM    3  N1  UNL     1      25.028   4.287  50.777  1.00  0.00    -0.065 NA
HETATM    4  C3  UNL     1      24.088   4.817  51.524  1.00  0.00     0.727 A 
HETATM    5  N3  UNL     1      23.589   6.156  51.428  1.00  0.00    -0.076 NA
HETATM    6  C13 UNL     1      24.143   6.894  50.496  1.00  0.00     0.153 A 
HETATM    7  C14 UNL     1      25.217   6.516  49.535  1.00  0.00     0.151 A 
HETATM    8  C15 UNL     1      26.344   7.460  49.535  1.00  0.00     0.032 A 
HETATM    9  C16 UNL     1      26.437   8.116  48.388  1.00  0.00    -0.008 A 
HETATM   10  C17 UNL     1      27.240   9.078  47.810  1.00  0.00     0.013 A 
HETATM   11  C18 UNL     1      27.012   9.539  46.513  1.00  0.00     0.001 A 
HETATM   12  C19 UNL     1      25.963   9.039  45.760  1.00  0.00     0.002 A 
HETATM   13  C20 UNL     1      25.161   8.073  46.346  1.00  0.00     0.032 A 
HETATM   14  C21 UNL     1      25.393   7.619  47.634  1.00  0.00     0.063 A 
HETATM   15  N4  UNL     1      24.660   6.720  48.202  1.00  0.00    -0.262 NA
ENDROOT
BRANCH   4  16
HETATM   16  N2  UNL     1      23.546   3.948  52.508  1.00  0.00    -0.188 N 
HETATM   17  H3  UNL     1      22.640   4.227  52.993  1.00  0.00     0.184 HD
BRANCH  16  18
HETATM   18  C4  UNL     1      24.122   2.719  52.897  1.00  0.00     0.054 A 
HETATM   19  C5  UNL     1      25.414   2.661  53.428  1.00  0.00     0.069 A 
HETATM   20  C6  UNL     1      26.018   1.488  53.826  1.00  0.00     0.106 A 
HETATM   21  C8  UNL     1      25.350   0.291  53.712  1.00  0.00     0.135 A 
HETATM   22  C10 UNL     1      24.072   0.286  53.195  1.00  0.00     0.106 A 
HETATM   23  C12 UNL     1      23.522   1.488  52.816  1.00  0.00     0.069 A 
BRANCH  20  24
HETATM   24  O1  UNL     1      27.291   1.495  54.340  1.00  0.00    -0.353 OA
HETATM   25  C7  UNL     1      28.407   1.988  53.630  1.00  0.00     0.210 C 
ENDBRANCH  20  24
BRANCH  21  26
HETATM   26  O2  UNL     1      25.979  -0.876  54.120  1.00  0.00    -0.351 OA
HETATM   27  C9  UNL     1      26.765  -1.609  53.188  1.00  0.00     0.210 C 
ENDBRANCH  21  26
BRANCH  22  28
HETATM   28  O3  UNL     1      23.396  -0.911  53.079  1.00  0.00    -0.353 OA
HETATM   29  C11 UNL     1      22.342  -1.214  53.989  1.00  0.00     0.210 C 
ENDBRANCH  22  28
ENDBRANCH  16  18
ENDBRANCH   4  16
TORSDOF 5
ENDMDL
MODEL 9
REMARK VINA RESULT:      -7.6      7.163     10.283
REMARK  5 active torsions:
REMARK  status: ('A' for Active; 'I' for Inactive)
REMARK    1  A    between atoms: C3_4  and  N2_5 
REMARK    2  A    between atoms: N2_5  and  C4_6 
REMARK    3  A    between atoms: C6_8  and  O1_9 
REMARK    4  A    between atoms: C8_11  and  O2_12 
REMARK    5  A    between atoms: C10_14  and  O3_15 
ROOT
HETATM    1  C1  UNL     1      23.473   4.685  52.947  1.00  0.00     0.044 C 
HETATM    2  C2  UNL     1      23.769   4.448  51.681  1.00  0.00     0.084 A 
HETATM    3  N1  UNL     1      23.955   5.568  50.820  1.00  0.00    -0.065 NA
HETATM    4  C3  UNL     1      24.243   5.308  49.567  1.00  0.00     0.727 A 
HETATM    5  N3  UNL     1      24.389   4.006  48.989  1.00  0.00    -0.076 NA
HETATM    6  C13 UNL     1      24.213   3.003  49.814  1.00  0.00     0.153 A 
HETATM    7  C14 UNL     1      23.882   3.050  51.267  1.00  0.00     0.151 A 
HETATM    8  C15 UNL     1      24.799   2.249  52.090  1.00  0.00     0.032 A 
HETATM    9  C16 UNL     1      24.188   1.211  52.641  1.00  0.00    -0.008 A 
HETATM   10  C17 UNL     1      24.495   0.152  53.471  1.00  0.00     0.013 A 
HETATM   11  C18 UNL     1      23.532  -0.783  53.851  1.00  0.00     0.001 A 
HETATM   12  C19 UNL     1      22.227  -0.675  53.403  1.00  0.00     0.002 A 
HETATM   13  C20 UNL     1      21.925   0.391  52.570  1.00  0.00     0.032 A 
HETATM   14  C21 UNL     1      22.886   1.316  52.196  1.00  0.00     0.063 A 
HETATM   15  N4  UNL     1      22.629   2.317  51.422  1.00  0.00    -0.262 NA
ENDROOT
BRANCH   4  16
HETATM   16  N2  UNL     1      24.419   6.452  48.744  1.00  0.00    -0.188 N 
HETATM   17  H3  UNL     1      23.642   6.720  48.069  1.00  0.00     0.184 HD
BRANCH  16  18
HETATM   18  C4  UNL     1      25.564   7.278  48.756  1.00  0.00     0.054 A 
HETATM   19  C5  UNL     1      26.839   6.753  48.526  1.00  0.00     0.069 A 
HETATM   20  C6  UNL     1      27.985   7.518  48.523  1.00  0.00     0.106 A 
HETATM   21  C8  UNL     1      27.915   8.872  48.753  1.00  0.00     0.135 A 
HETATM   22  C10 UNL     1      26.684   9.447  48.987  1.00  0.00     0.106 A 
HETATM   23  C12 UNL     1      25.576   8.633  48.977  1.00  0.00     0.069 A 
BRANCH  20  24
HETATM   24  O1  UNL     1      29.210   6.944  48.290  1.00  0.00    -0.353 OA
HETATM   25  C7  UNL     1      29.393   5.553  48.132  1.00  0.00     0.210 C 
ENDBRANCH  20  24
BRANCH  21  26
HETATM   26  O2  UNL     1      29.082   9.621  48.745  1.00  0.00    -0.351 OA
HETATM   27  C9  UNL     1      29.499  10.254  47.542  1.00  0.00     0.210 C 
ENDBRANCH  21  26
BRANCH  22  28
HETATM   28  O3  UNL     1      26.606  10.805  49.218  1.00  0.00    -0.353 OA
HETATM   29  C11 UNL     1      26.087  11.662  48.206  1.00  0.00     0.210 C 
ENDBRANCH  22  28
ENDBRANCH  16  18
ENDBRANCH   4  16
TORSDOF 5
ENDMDL
