MODEL 1
REMARK VINA RESULT:      -9.0      0.000      0.000
REMARK  4 active torsions:
REMARK  status: ('A' for Active; 'I' for Inactive)
REMARK    1  A    between atoms: C7_9  and  O1_11 
REMARK    2  A    between atoms: O1_11  and  C9_12 
REMARK    3  A    between atoms: C14_18  and  C15_19 
REMARK    4  A    between atoms: C16_20  and  C17_21 
REMARK       I    between atoms: C17_21  and  N2_22 
ROOT
HETATM    1  C9  UNL     1      24.260   3.721  51.562  1.00  0.00     0.071 A 
HETATM    2  C10 UNL     1      23.020   3.407  52.107  1.00  0.00     0.039 A 
HETATM    3  C11 UNL     1      22.772   2.181  52.705  1.00  0.00     0.035 A 
HETATM    4  C12 UNL     1      23.819   1.300  52.725  1.00  0.00     0.067 A 
HETATM    5  N1  UNL     1      23.678   0.081  53.285  1.00  0.00    -0.260 NA
HETATM    6  C13 UNL     1      24.686  -0.802  53.320  1.00  0.00     0.128 A 
HETATM    7  C14 UNL     1      25.948  -0.591  52.811  1.00  0.00    -0.018 A 
HETATM    8  C18 UNL     1      26.075   0.658  52.244  1.00  0.00     0.026 A 
HETATM    9  C19 UNL     1      25.057   1.579  52.196  1.00  0.00    -0.004 A 
HETATM   10  C20 UNL     1      25.308   2.795  51.602  1.00  0.00     0.050 A 
ENDROOT
BRANCH   1  11
HETATM   11  O1  UNL     1      24.539   4.920  50.966  1.00  0.00    -0.334 OA
BRANCH  11  12
HETATM   12  C7  UNL     1      24.711   5.044  49.562  1.00  0.00     0.108 A 
HETATM   13  C2  UNL     1      24.178   6.380  49.118  1.00  0.00     0.086 A 
HETATM   14  C1  UNL     1      22.965   6.284  48.215  1.00  0.00     0.041 C 
HETATM   15 CL1  UNL     1      23.768   7.345  50.583  1.00  0.00    -0.112 Cl
HETATM   16  C3  UNL     1      25.282   7.120  48.460  1.00  0.00     0.003 A 
HETATM   17  C4  UNL     1      26.555   6.969  48.153  1.00  0.00     0.021 A 
HETATM   18  C5  UNL     1      27.063   5.676  48.585  1.00  0.00     0.033 A 
HETATM   19 CL2  UNL     1      28.704   5.190  48.323  1.00  0.00    -0.085 Cl
HETATM   20  C6  UNL     1      26.139   4.954  49.182  1.00  0.00     0.037 A 
HETATM   21  C8  UNL     1      23.926   3.964  48.835  1.00  0.00     0.053 C 
ENDBRANCH  11  12
ENDBRANCH   1  11
BRANCH   7  22
HETATM   22  C15 UNL     1      27.031  -1.532  52.845  1.00  0.00     0.018 C 
HETATM   23  C16 UNL     1      28.306  -1.445  53.108  1.00  0.00     0.075 C 
BRANCH  23  24
HETATM   24  C17 UNL     1      29.320  -0.478  53.484  1.00  0.00     0.238 C 
HETATM   25  N2  UNL     1      29.657   0.908  53.679  1.00  0.00    -0.367 N 
HETATM   26  H15 UNL     1      29.544   1.448  54.589  1.00  0.00     0.159 HD
HETATM   27  H16 UNL     1      30.051   1.559  52.936  1.00  0.00     0.159 HD
HETATM   28  O2  UNL     1      30.482  -0.771  53.820  1.00  0.00    -0.269 OA
ENDBRANCH  23  24
ENDBRANCH   7  22
TORSDOF 4
ENDMDL
MODEL 2
REMARK VINA RESULT:      -8.9      4.015      7.065
REMARK  4 active torsions:
REMARK  status: ('A' for Active; 'I' for Inactive)
REMARK    1  A    between atoms: C7_9  and  O1_11 
REMARK    2  A    between atoms: O1_11  and  C9_12 
REMARK    3  A    between atoms: C14_18  and  C15_19 
REMARK    4  A    between atoms: C16_20  and  C17_21 
REMARK       I    between atoms: C17_21  and  N2_22 
ROOT
HETATM    1  C9  UNL     1      24.072   3.239  49.958  1.00  0.00     0.071 A 
HETATM    2  C10 UNL     1      23.284   4.353  49.695  1.00  0.00     0.039 A 
HETATM    3  C11 UNL     1      23.820   5.523  49.179  1.00  0.00     0.035 A 
HETATM    4  C12 UNL     1      25.168   5.516  48.946  1.00  0.00     0.067 A 
HETATM    5  N1  UNL     1      25.784   6.607  48.445  1.00  0.00    -0.260 NA
HETATM    6  C13 UNL     1      27.102   6.628  48.206  1.00  0.00     0.128 A 
HETATM    7  C14 UNL     1      27.969   5.582  48.431  1.00  0.00    -0.018 A 
HETATM    8  C18 UNL     1      27.326   4.477  48.942  1.00  0.00     0.026 A 
HETATM    9  C19 UNL     1      25.976   4.432  49.195  1.00  0.00    -0.004 A 
HETATM   10  C20 UNL     1      25.449   3.267  49.707  1.00  0.00     0.050 A 
ENDROOT
BRANCH   1  11
HETATM   11  O1  UNL     1      23.578   2.069  50.465  1.00  0.00    -0.334 OA
BRANCH  11  12
HETATM   12  C7  UNL     1      23.301   1.902  51.848  1.00  0.00     0.108 A 
HETATM   13  C2  UNL     1      21.970   1.217  52.002  1.00  0.00     0.086 A 
HETATM   14  C1  UNL     1      20.909   2.083  52.652  1.00  0.00     0.041 C 
HETATM   15 CL1  UNL     1      21.407   0.690  50.374  1.00  0.00    -0.112 Cl
HETATM   16  C3  UNL     1      22.183  -0.036  52.765  1.00  0.00     0.003 A 
HETATM   17  C4  UNL     1      23.158  -0.717  53.336  1.00  0.00     0.021 A 
HETATM   18  C5  UNL     1      24.442  -0.049  53.182  1.00  0.00     0.033 A 
HETATM   19 CL2  UNL     1      25.910  -0.703  53.824  1.00  0.00    -0.085 Cl
HETATM   20  C6  UNL     1      24.337   1.079  52.511  1.00  0.00     0.037 A 
HETATM   21  C8  UNL     1      23.213   3.254  52.537  1.00  0.00     0.053 C 
ENDBRANCH  11  12
ENDBRANCH   1  11
BRANCH   7  22
HETATM   22  C15 UNL     1      29.382   5.599  48.178  1.00  0.00     0.018 C 
HETATM   23  C16 UNL     1      30.334   6.468  48.382  1.00  0.00     0.075 C 
BRANCH  23  24
HETATM   24  C17 UNL     1      30.558   7.796  48.921  1.00  0.00     0.238 C 
HETATM   25  N2  UNL     1      30.023   8.902  49.671  1.00  0.00    -0.367 N 
HETATM   26  H15 UNL     1      30.097   9.026  50.725  1.00  0.00     0.159 HD
HETATM   27  H16 UNL     1      29.486   9.724  49.262  1.00  0.00     0.159 HD
HETATM   28  O2  UNL     1      31.613   8.441  48.788  1.00  0.00    -0.269 OA
ENDBRANCH  23  24
ENDBRANCH   7  22
TORSDOF 4
ENDMDL
MODEL 3
REMARK VINA RESULT:      -8.5      3.807      6.559
REMARK  4 active torsions:
REMARK  status: ('A' for Active; 'I' for Inactive)
REMARK    1  A    between atoms: C7_9  and  O1_11 
REMARK    2  A    between atoms: O1_11  and  C9_12 
REMARK    3  A    between atoms: C14_18  and  C15_19 
REMARK    4  A    between atoms: C16_20  and  C17_21 
REMARK       I    between atoms: C17_21  and  N2_22 
ROOT
HETATM    1  C9  UNL     1      24.177   4.736  50.117  1.00  0.00     0.071 A 
HETATM    2  C10 UNL     1      23.863   6.056  50.418  1.00  0.00     0.039 A 
HETATM    3  C11 UNL     1      24.729   7.099  50.128  1.00  0.00     0.035 A 
HETATM    4  C12 UNL     1      25.909   6.752  49.530  1.00  0.00     0.067 A 
HETATM    5  N1  UNL     1      26.818   7.696  49.209  1.00  0.00    -0.260 NA
HETATM    6  C13 UNL     1      27.983   7.385  48.622  1.00  0.00     0.128 A 
HETATM    7  C14 UNL     1      28.390   6.114  48.283  1.00  0.00    -0.018 A 
HETATM    8  C18 UNL     1      27.451   5.164  48.617  1.00  0.00     0.026 A 
HETATM    9  C19 UNL     1      26.251   5.458  49.219  1.00  0.00    -0.004 A 
HETATM   10  C20 UNL     1      25.395   4.418  49.504  1.00  0.00     0.050 A 
ENDROOT
BRANCH   1  11
HETATM   11  O1  UNL     1      23.348   3.683  50.387  1.00  0.00    -0.334 OA
BRANCH  11  12
HETATM   12  C7  UNL     1      23.048   3.278  51.715  1.00  0.00     0.108 A 
HETATM   13  C2  UNL     1      22.268   1.992  51.672  1.00  0.00     0.086 A 
HETATM   14  C1  UNL     1      20.846   2.123  52.180  1.00  0.00     0.041 C 
HETATM   15 CL1  UNL     1      22.251   1.392  49.973  1.00  0.00    -0.112 Cl
HETATM   16  C3  UNL     1      23.021   0.971  52.439  1.00  0.00     0.003 A 
HETATM   17  C4  UNL     1      24.137   0.848  53.129  1.00  0.00     0.021 A 
HETATM   18  C5  UNL     1      24.887   2.095  53.166  1.00  0.00     0.033 A 
HETATM   19 CL2  UNL     1      26.397   2.245  53.997  1.00  0.00    -0.085 Cl
HETATM   20  C6  UNL     1      24.281   3.058  52.504  1.00  0.00     0.037 A 
HETATM   21  C8  UNL     1      22.187   4.324  52.405  1.00  0.00     0.053 C 
ENDBRANCH  11  12
ENDBRANCH   1  11
BRANCH   7  22
HETATM   22  C15 UNL     1      29.635   5.775  47.655  1.00  0.00     0.018 C 
HETATM   23  C16 UNL     1      30.863   5.645  48.077  1.00  0.00     0.075 C 
BRANCH  23  24
HETATM   24  C17 UNL     1      31.660   5.742  49.286  1.00  0.00     0.238 C 
HETATM   25  N2  UNL     1      31.681   5.733  50.725  1.00  0.00    -0.367 N 
HETATM   26  H15 UNL     1      31.802   4.869  51.335  1.00  0.00     0.159 HD
HETATM   27  H16 UNL     1      31.570   6.586  51.350  1.00  0.00     0.159 HD
HETATM   28  O2  UNL     1      32.893   5.908  49.304  1.00  0.00    -0.269 OA
ENDBRANCH  23  24
ENDBRANCH   7  22
TORSDOF 4
ENDMDL
MODEL 4
REMARK VINA RESULT:      -8.4      1.817      2.769
REMARK  4 active torsions:
REMARK  status: ('A' for Active; 'I' for Inactive)
REMARK    1  A    between atoms: C7_9  and  O1_11 
REMARK    2  A    between atoms: O1_11  and  C9_12 
REMARK    3  A    between atoms: C14_18  and  C15_19 
REMARK    4  A    between atoms: C16_20  and  C17_21 
REMARK       I    between atoms: C17_21  and  N2_22 
ROOT
HETATM    1  C9  UNL     1      25.100   3.875  49.785  1.00  0.00     0.071 A 
HETATM    2  C10 UNL     1      23.825   3.400  49.502  1.00  0.00     0.039 A 
HETATM    3  C11 UNL     1      23.243   2.380  50.240  1.00  0.00     0.035 A 
HETATM    4  C12 UNL     1      23.998   1.871  51.261  1.00  0.00     0.067 A 
HETATM    5  N1  UNL     1      23.519   0.877  52.037  1.00  0.00    -0.260 NA
HETATM    6  C13 UNL     1      24.236   0.359  53.045  1.00  0.00     0.128 A 
HETATM    7  C14 UNL     1      25.503   0.757  53.407  1.00  0.00    -0.018 A 
HETATM    8  C18 UNL     1      25.976   1.772  52.606  1.00  0.00     0.026 A 
HETATM    9  C19 UNL     1      25.261   2.318  51.568  1.00  0.00    -0.004 A 
HETATM   10  C20 UNL     1      25.843   3.330  50.839  1.00  0.00     0.050 A 
ENDROOT
BRANCH   1  11
HETATM   11  O1  UNL     1      25.704   4.878  49.079  1.00  0.00    -0.334 OA
BRANCH  11  12
HETATM   12  C7  UNL     1      25.222   6.213  49.098  1.00  0.00     0.108 A 
HETATM   13  C2  UNL     1      26.345   7.147  48.736  1.00  0.00     0.086 A 
HETATM   14  C1  UNL     1      26.762   8.067  49.865  1.00  0.00     0.041 C 
HETATM   15 CL1  UNL     1      27.757   6.162  48.205  1.00  0.00    -0.112 Cl
HETATM   16  C3  UNL     1      25.936   7.918  47.537  1.00  0.00     0.003 A 
HETATM   17  C4  UNL     1      24.913   8.033  46.712  1.00  0.00     0.021 A 
HETATM   18  C5  UNL     1      23.831   7.127  47.068  1.00  0.00     0.033 A 
HETATM   19 CL2  UNL     1      22.355   7.047  46.167  1.00  0.00    -0.085 Cl
HETATM   20  C6  UNL     1      24.119   6.402  48.129  1.00  0.00     0.037 A 
HETATM   21  C8  UNL     1      24.738   6.583  50.491  1.00  0.00     0.053 C 
ENDBRANCH  11  12
ENDBRANCH   1  11
BRANCH   7  22
HETATM   22  C15 UNL     1      26.276   0.206  54.485  1.00  0.00     0.018 C 
HETATM   23  C16 UNL     1      27.534   0.266  54.828  1.00  0.00     0.075 C 
BRANCH  23  24
HETATM   24  C17 UNL     1      28.795   0.847  54.407  1.00  0.00     0.238 C 
HETATM   25  N2  UNL     1      29.934   0.759  53.531  1.00  0.00    -0.367 N 
HETATM   26  H15 UNL     1      30.004   1.199  52.565  1.00  0.00     0.159 HD
HETATM   27  H16 UNL     1      30.838   0.240  53.742  1.00  0.00     0.159 HD
HETATM   28  O2  UNL     1      29.293   1.877  54.894  1.00  0.00    -0.269 OA
ENDBRANCH  23  24
ENDBRANCH   7  22
TORSDOF 4
ENDMDL
MODEL 5
REMARK VINA RESULT:      -8.4      2.607      3.212
REMARK  4 active torsions:
REMARK  status: ('A' for Active; 'I' for Inactive)
REMARK    1  A    between atoms: C7_9  and  O1_11 
REMARK    2  A    between atoms: O1_11  and  C9_12 
REMARK    3  A    between atoms: C14_18  and  C15_19 
REMARK    4  A    between atoms: C16_20  and  C17_21 
REMARK       I    between atoms: C17_21  and  N2_22 
ROOT
HETATM    1  C9  UNL     1      21.471   3.386  52.051  1.00  0.00     0.071 A 
HETATM    2  C10 UNL     1      20.436   2.614  52.565  1.00  0.00     0.039 A 
HETATM    3  C11 UNL     1      20.658   1.350  53.092  1.00  0.00     0.035 A 
HETATM    4  C12 UNL     1      21.953   0.910  53.073  1.00  0.00     0.067 A 
HETATM    5  N1  UNL     1      22.272  -0.307  53.562  1.00  0.00    -0.260 NA
HETATM    6  C13 UNL     1      23.532  -0.763  53.558  1.00  0.00     0.128 A 
HETATM    7  C14 UNL     1      24.625  -0.080  53.073  1.00  0.00    -0.018 A 
HETATM    8  C18 UNL     1      24.283   1.159  52.577  1.00  0.00     0.026 A 
HETATM    9  C19 UNL     1      22.999   1.648  52.571  1.00  0.00    -0.004 A 
HETATM   10  C20 UNL     1      22.785   2.903  52.048  1.00  0.00     0.050 A 
ENDROOT
BRANCH   1  11
HETATM   11  O1  UNL     1      21.289   4.635  51.525  1.00  0.00    -0.334 OA
BRANCH  11  12
HETATM   12  C7  UNL     1      20.910   4.838  50.172  1.00  0.00     0.108 A 
HETATM   13  C2  UNL     1      21.502   6.134  49.685  1.00  0.00     0.086 A 
HETATM   14  C1  UNL     1      20.468   7.193  49.359  1.00  0.00     0.041 C 
HETATM   15 CL1  UNL     1      22.628   6.756  50.946  1.00  0.00    -0.112 Cl
HETATM   16  C3  UNL     1      22.357   5.838  48.511  1.00  0.00     0.003 A 
HETATM   17  C4  UNL     1      22.748   4.811  47.781  1.00  0.00     0.021 A 
HETATM   18  C5  UNL     1      22.173   3.562  48.257  1.00  0.00     0.033 A 
HETATM   19 CL2  UNL     1      22.504   2.041  47.500  1.00  0.00    -0.085 Cl
HETATM   20  C6  UNL     1      21.396   3.741  49.304  1.00  0.00     0.037 A 
HETATM   21  C8  UNL     1      19.398   4.942  50.055  1.00  0.00     0.053 C 
ENDBRANCH  11  12
ENDBRANCH   1  11
BRANCH   7  22
HETATM   22  C15 UNL     1      25.976  -0.564  53.064  1.00  0.00     0.018 C 
HETATM   23  C16 UNL     1      27.128  -0.056  53.409  1.00  0.00     0.075 C 
BRANCH  23  24
HETATM   24  C17 UNL     1      27.714   1.156  53.949  1.00  0.00     0.238 C 
HETATM   25  N2  UNL     1      27.757   2.594  53.922  1.00  0.00    -0.367 N 
HETATM   26  H15 UNL     1      27.154   3.241  54.514  1.00  0.00     0.159 HD
HETATM   27  H16 UNL     1      28.391   3.182  53.303  1.00  0.00     0.159 HD
HETATM   28  O2  UNL     1      28.585   1.181  54.837  1.00  0.00    -0.269 OA
ENDBRANCH  23  24
ENDBRANCH   7  22
TORSDOF 4
ENDMDL
MODEL 6
REMARK VINA RESULT:      -8.3      1.534      1.884
REMARK  4 active torsions:
REMARK  status: ('A' for Active; 'I' for Inactive)
REMARK    1  A    between atoms: C7_9  and  O1_11 
REMARK    2  A    between atoms: O1_11  and  C9_12 
REMARK    3  A    between atoms: C14_18  and  C15_19 
REMARK    4  A    between atoms: C16_20  and  C17_21 
REMARK       I    between atoms: C17_21  and  N2_22 
ROOT
HETATM    1  C9  UNL     1      22.668   2.754  51.435  1.00  0.00     0.071 A 
HETATM    2  C10 UNL     1      21.683   1.966  52.020  1.00  0.00     0.039 A 
HETATM    3  C11 UNL     1      21.989   0.799  52.703  1.00  0.00     0.035 A 
HETATM    4  C12 UNL     1      23.315   0.469  52.766  1.00  0.00     0.067 A 
HETATM    5  N1  UNL     1      23.714  -0.648  53.409  1.00  0.00    -0.260 NA
HETATM    6  C13 UNL     1      25.006  -0.996  53.487  1.00  0.00     0.128 A 
HETATM    7  C14 UNL     1      26.056  -0.289  52.945  1.00  0.00    -0.018 A 
HETATM    8  C18 UNL     1      25.632   0.848  52.293  1.00  0.00     0.026 A 
HETATM    9  C19 UNL     1      24.314   1.225  52.199  1.00  0.00    -0.004 A 
HETATM   10  C20 UNL     1      24.016   2.385  51.520  1.00  0.00     0.050 A 
ENDROOT
BRANCH   1  11
HETATM   11  O1  UNL     1      22.404   3.910  50.754  1.00  0.00    -0.334 OA
BRANCH  11  12
HETATM   12  C7  UNL     1      22.782   4.093  49.398  1.00  0.00     0.108 A 
HETATM   13  C2  UNL     1      21.984   5.228  48.815  1.00  0.00     0.086 A 
HETATM   14  C1  UNL     1      21.028   4.803  47.719  1.00  0.00     0.041 C 
HETATM   15 CL1  UNL     1      21.065   6.022  50.145  1.00  0.00    -0.112 Cl
HETATM   16  C3  UNL     1      22.935   6.257  48.330  1.00  0.00     0.003 A 
HETATM   17  C4  UNL     1      24.234   6.476  48.255  1.00  0.00     0.021 A 
HETATM   18  C5  UNL     1      24.998   5.375  48.821  1.00  0.00     0.033 A 
HETATM   19 CL2  UNL     1      26.728   5.375  48.869  1.00  0.00    -0.085 Cl
HETATM   20  C6  UNL     1      24.221   4.414  49.277  1.00  0.00     0.037 A 
HETATM   21  C8  UNL     1      22.474   2.842  48.590  1.00  0.00     0.053 C 
ENDBRANCH  11  12
ENDBRANCH   1  11
BRANCH   7  22
HETATM   22  C15 UNL     1      27.441  -0.656  53.025  1.00  0.00     0.018 C 
HETATM   23  C16 UNL     1      28.520  -0.056  53.448  1.00  0.00     0.075 C 
BRANCH  23  24
HETATM   24  C17 UNL     1      28.963   1.196  54.033  1.00  0.00     0.238 C 
HETATM   25  N2  UNL     1      29.459   2.528  53.806  1.00  0.00    -0.367 N 
HETATM   26  H15 UNL     1      28.858   3.397  53.684  1.00  0.00     0.159 HD
HETATM   27  H16 UNL     1      30.483   2.801  53.727  1.00  0.00     0.159 HD
HETATM   28  O2  UNL     1      29.014   1.422  55.255  1.00  0.00    -0.269 OA
ENDBRANCH  23  24
ENDBRANCH   7  22
TORSDOF 4
ENDMDL
MODEL 7
REMARK VINA RESULT:      -8.2      4.752      7.237
REMARK  4 active torsions:
REMARK  status: ('A' for Active; 'I' for Inactive)
REMARK    1  A    between atoms: C7_9  and  O1_11 
REMARK    2  A    between atoms: O1_11  and  C9_12 
REMARK    3  A    between atoms: C14_18  and  C15_19 
REMARK    4  A    between atoms: C16_20  and  C17_21 
REMARK       I    between atoms: C17_21  and  N2_22 
ROOT
HETATM    1  C9  UNL     1      29.406   6.968  47.472  1.00  0.00     0.071 A 
HETATM    2  C10 UNL     1      28.425   7.951  47.431  1.00  0.00     0.039 A 
HETATM    3  C11 UNL     1      27.146   7.731  47.920  1.00  0.00     0.035 A 
HETATM    4  C12 UNL     1      26.909   6.490  48.444  1.00  0.00     0.067 A 
HETATM    5  N1  UNL     1      25.696   6.178  48.947  1.00  0.00    -0.260 NA
HETATM    6  C13 UNL     1      25.435   4.971  49.467  1.00  0.00     0.128 A 
HETATM    7  C14 UNL     1      26.332   3.931  49.555  1.00  0.00    -0.018 A 
HETATM    8  C18 UNL     1      27.565   4.265  49.039  1.00  0.00     0.026 A 
HETATM    9  C19 UNL     1      27.856   5.495  48.501  1.00  0.00    -0.004 A 
HETATM   10  C20 UNL     1      29.127   5.709  48.017  1.00  0.00     0.050 A 
ENDROOT
BRANCH   1  11
HETATM   11  O1  UNL     1      30.676   7.150  46.999  1.00  0.00    -0.334 OA
BRANCH  11  12
HETATM   12  C7  UNL     1      31.714   7.684  47.807  1.00  0.00     0.108 A 
HETATM   13  C2  UNL     1      32.952   6.844  47.634  1.00  0.00     0.086 A 
HETATM   14  C1  UNL     1      33.367   6.102  48.888  1.00  0.00     0.041 C 
HETATM   15 CL1  UNL     1      32.661   5.666  46.302  1.00  0.00    -0.112 Cl
HETATM   16  C3  UNL     1      34.040   7.724  47.145  1.00  0.00     0.003 A 
HETATM   17  C4  UNL     1      34.250   8.986  46.823  1.00  0.00     0.021 A 
HETATM   18  C5  UNL     1      33.050   9.791  46.992  1.00  0.00     0.033 A 
HETATM   19 CL2  UNL     1      33.014  11.486  46.646  1.00  0.00    -0.085 Cl
HETATM   20  C6  UNL     1      32.032   9.078  47.426  1.00  0.00     0.037 A 
HETATM   21  C8  UNL     1      31.321   7.638  49.275  1.00  0.00     0.053 C 
ENDBRANCH  11  12
ENDBRANCH   1  11
BRANCH   7  22
HETATM   22  C15 UNL     1      26.059   2.636  50.111  1.00  0.00     0.018 C 
HETATM   23  C16 UNL     1      26.394   2.030  51.217  1.00  0.00     0.075 C 
BRANCH  23  24
HETATM   24  C17 UNL     1      27.152   2.237  52.437  1.00  0.00     0.238 C 
HETATM   25  N2  UNL     1      27.162   2.749  53.782  1.00  0.00    -0.367 N 
HETATM   26  H15 UNL     1      26.901   2.197  54.653  1.00  0.00     0.159 HD
HETATM   27  H16 UNL     1      27.424   3.740  54.065  1.00  0.00     0.159 HD
HETATM   28  O2  UNL     1      28.338   1.896  52.595  1.00  0.00    -0.269 OA
ENDBRANCH  23  24
ENDBRANCH   7  22
TORSDOF 4
ENDMDL
MODEL 8
REMARK VINA RESULT:      -7.8      3.837      6.956
REMARK  4 active torsions:
REMARK  status: ('A' for Active; 'I' for Inactive)
REMARK    1  A    between atoms: C7_9  and  O1_11 
REMARK    2  A    between atoms: O1_11  and  C9_12 
REMARK    3  A    between atoms: C14_18  and  C15_19 
REMARK    4  A    between atoms: C16_20  and  C17_21 
REMARK       I    between atoms: C17_21  and  N2_22 
ROOT
HETATM    1  C9  UNL     1      25.082   5.714  49.762  1.00  0.00     0.071 A 
HETATM    2  C10 UNL     1      24.237   6.531  49.020  1.00  0.00     0.039 A 
HETATM    3  C11 UNL     1      24.712   7.344  48.004  1.00  0.00     0.035 A 
HETATM    4  C12 UNL     1      26.060   7.296  47.776  1.00  0.00     0.067 A 
HETATM    5  N1  UNL     1      26.620   8.051  46.807  1.00  0.00    -0.260 NA
HETATM    6  C13 UNL     1      27.937   8.023  46.561  1.00  0.00     0.128 A 
HETATM    7  C14 UNL     1      28.857   7.253  47.235  1.00  0.00    -0.018 A 
HETATM    8  C18 UNL     1      28.270   6.488  48.220  1.00  0.00     0.026 A 
HETATM    9  C19 UNL     1      26.924   6.500  48.490  1.00  0.00    -0.004 A 
HETATM   10  C20 UNL     1      26.457   5.689  49.501  1.00  0.00     0.050 A 
ENDROOT
BRANCH   1  11
HETATM   11  O1  UNL     1      24.648   4.899  50.771  1.00  0.00    -0.334 OA
BRANCH  11  12
HETATM   12  C7  UNL     1      24.528   3.493  50.610  1.00  0.00     0.108 A 
HETATM   13  C2  UNL     1      23.679   2.942  51.723  1.00  0.00     0.086 A 
HETATM   14  C1  UNL     1      24.430   2.024  52.667  1.00  0.00     0.041 C 
HETATM   15 CL1  UNL     1      22.983   4.323  52.648  1.00  0.00    -0.112 Cl
HETATM   16  C3  UNL     1      22.515   2.253  51.116  1.00  0.00     0.003 A 
HETATM   17  C4  UNL     1      22.008   1.983  49.929  1.00  0.00     0.021 A 
HETATM   18  C5  UNL     1      22.834   2.520  48.858  1.00  0.00     0.033 A 
HETATM   19 CL2  UNL     1      22.425   2.327  47.187  1.00  0.00    -0.085 Cl
HETATM   20  C6  UNL     1      23.895   3.150  49.317  1.00  0.00     0.037 A 
HETATM   21  C8  UNL     1      25.895   2.832  50.693  1.00  0.00     0.053 C 
ENDBRANCH  11  12
ENDBRANCH   1  11
BRANCH   7  22
HETATM   22  C15 UNL     1      30.269   7.219  46.977  1.00  0.00     0.018 C 
HETATM   23  C16 UNL     1      31.293   6.676  47.577  1.00  0.00     0.075 C 
BRANCH  23  24
HETATM   24  C17 UNL     1      31.627   5.864  48.732  1.00  0.00     0.238 C 
HETATM   25  N2  UNL     1      31.769   5.798  50.163  1.00  0.00    -0.367 N 
HETATM   26  H15 UNL     1      31.000   5.530  50.847  1.00  0.00     0.159 HD
HETATM   27  H16 UNL     1      32.657   6.015  50.707  1.00  0.00     0.159 HD
HETATM   28  O2  UNL     1      31.973   4.670  48.678  1.00  0.00    -0.269 OA
ENDBRANCH  23  24
ENDBRANCH   7  22
TORSDOF 4
ENDMDL
MODEL 9
REMARK VINA RESULT:      -7.8      4.992      8.258
REMARK  4 active torsions:
REMARK  status: ('A' for Active; 'I' for Inactive)
REMARK    1  A    between atoms: C7_9  and  O1_11 
REMARK    2  A    between atoms: O1_11  and  C9_12 
REMARK    3  A    between atoms: C14_18  and  C15_19 
REMARK    4  A    between atoms: C16_20  and  C17_21 
REMARK       I    between atoms: C17_21  and  N2_22 
ROOT
HETATM    1  C9  UNL     1      30.306   6.417  47.984  1.00  0.00     0.071 A 
HETATM    2  C10 UNL     1      29.847   7.641  47.512  1.00  0.00     0.039 A 
HETATM    3  C11 UNL     1      28.499   7.963  47.500  1.00  0.00     0.035 A 
HETATM    4  C12 UNL     1      27.648   7.004  47.978  1.00  0.00     0.067 A 
HETATM    5  N1  UNL     1      26.317   7.222  48.008  1.00  0.00    -0.260 NA
HETATM    6  C13 UNL     1      25.460   6.301  48.472  1.00  0.00     0.128 A 
HETATM    7  C14 UNL     1      25.809   5.062  48.959  1.00  0.00    -0.018 A 
HETATM    8  C18 UNL     1      27.170   4.856  48.922  1.00  0.00     0.026 A 
HETATM    9  C19 UNL     1      28.068   5.783  48.452  1.00  0.00    -0.004 A 
HETATM   10  C20 UNL     1      29.406   5.459  48.467  1.00  0.00     0.050 A 
ENDROOT
BRANCH   1  11
HETATM   11  O1  UNL     1      31.627   6.066  48.012  1.00  0.00    -0.334 OA
BRANCH  11  12
HETATM   12  C7  UNL     1      32.288   5.517  46.881  1.00  0.00     0.108 A 
HETATM   13  C2  UNL     1      33.745   5.886  46.937  1.00  0.00     0.086 A 
HETATM   14  C1  UNL     1      34.186   6.809  45.819  1.00  0.00     0.041 C 
HETATM   15 CL1  UNL     1      34.077   6.662  48.529  1.00  0.00    -0.112 Cl
HETATM   16  C3  UNL     1      34.538   4.632  46.942  1.00  0.00     0.003 A 
HETATM   17  C4  UNL     1      34.359   3.326  46.914  1.00  0.00     0.021 A 
HETATM   18  C5  UNL     1      32.947   2.977  46.861  1.00  0.00     0.033 A 
HETATM   19 CL2  UNL     1      32.399   1.336  46.816  1.00  0.00    -0.085 Cl
HETATM   20  C6  UNL     1      32.173   4.041  46.853  1.00  0.00     0.037 A 
HETATM   21  C8  UNL     1      31.709   6.093  45.598  1.00  0.00     0.053 C 
ENDBRANCH  11  12
ENDBRANCH   1  11
BRANCH   7  22
HETATM   22  C15 UNL     1      24.896   4.072  49.456  1.00  0.00     0.018 C 
HETATM   23  C16 UNL     1      24.060   4.024  50.458  1.00  0.00     0.075 C 
BRANCH  23  24
HETATM   24  C17 UNL     1      23.574   4.826  51.565  1.00  0.00     0.238 C 
HETATM   25  N2  UNL     1      23.884   5.497  52.800  1.00  0.00    -0.367 N 
HETATM   26  H15 UNL     1      24.208   6.506  52.889  1.00  0.00     0.159 HD
HETATM   27  H16 UNL     1      23.833   5.063  53.769  1.00  0.00     0.159 HD
HETATM   28  O2  UNL     1      22.397   5.209  51.693  1.00  0.00    -0.269 OA
ENDBRANCH  23  24
ENDBRANCH   7  22
TORSDOF 4
ENDMDL
