MODEL 1
REMARK VINA RESULT:      -6.3      0.000      0.000
REMARK  6 active torsions:
REMARK  status: ('A' for Active; 'I' for Inactive)
REMARK    1  A    between atoms: N1_2  and  C3_4 
REMARK    2  A    between atoms: N2_8  and  N3_9 
REMARK    3  A    between atoms: C7_11  and  N5_12 
REMARK    4  A    between atoms: C8_13  and  N6_14 
REMARK    5  A    between atoms: C9_15  and  C10_16 
REMARK    6  A    between atoms: C10_16  and  C11_17 
ROOT
HETATM    1  N3  UNL     1      23.561  -0.895  54.599  1.00  0.00     0.026 N 
HETATM    2  N4  UNL     1      23.049  -1.425  55.782  1.00  0.00     0.061 NA
HETATM    3  C7  UNL     1      22.247  -1.457  54.768  1.00  0.00     0.785 A 
ENDROOT
BRANCH   1   4
HETATM    4  N2  UNL     1      24.538  -0.288  53.799  1.00  0.00    -0.260 N 
HETATM    5  C6  UNL     1      24.182   0.537  52.709  1.00  0.00     0.113 A 
HETATM    6  C5  UNL     1      25.127   1.101  51.965  1.00  0.00     0.021 A 
HETATM    7  C4  UNL     1      26.547   0.892  52.241  1.00  0.00     0.028 A 
HETATM    8  C3  UNL     1      26.876   0.119  53.261  1.00  0.00     0.026 A 
HETATM    9  C13 UNL     1      25.910  -0.556  54.154  1.00  0.00     0.207 A 
BRANCH   8  10
HETATM   10  N1  UNL     1      28.255  -0.099  53.552  1.00  0.00    -0.391 N 
HETATM   11  C1  UNL     1      29.045   0.983  54.125  1.00  0.00     0.148 C 
HETATM   12  C2  UNL     1      28.969  -1.343  53.322  1.00  0.00     0.148 C 
ENDBRANCH   8  10
ENDBRANCH   1   4
BRANCH   3  13
HETATM   13  N5  UNL     1      21.028  -1.741  54.072  1.00  0.00    -0.051 NA
HETATM   14  C8  UNL     1      20.345  -0.726  53.663  1.00  0.00     0.252 C 
BRANCH  14  15
HETATM   15  N6  UNL     1      20.712   0.640  53.851  1.00  0.00    -0.257 NA
HETATM   16  C9  UNL     1      20.658   1.362  52.759  1.00  0.00     0.094 C 
BRANCH  16  17
HETATM   17  C10 UNL     1      20.238   0.723  51.475  1.00  0.00     0.074 C 
BRANCH  17  18
HETATM   18  C11 UNL     1      21.308   1.056  50.494  1.00  0.00    -0.010 C 
HETATM   19  C12 UNL     1      21.910   2.209  50.224  1.00  0.00     0.214 C 
HETATM   20 CL1  UNL     1      23.164   2.693  49.103  1.00  0.00    -0.230 Cl
ENDBRANCH  17  18
ENDBRANCH  16  17
ENDBRANCH  14  15
ENDBRANCH   3  13
TORSDOF 6
ENDMDL
MODEL 2
REMARK VINA RESULT:      -6.3      1.386      2.539
REMARK  6 active torsions:
REMARK  status: ('A' for Active; 'I' for Inactive)
REMARK    1  A    between atoms: N1_2  and  C3_4 
REMARK    2  A    between atoms: N2_8  and  N3_9 
REMARK    3  A    between atoms: C7_11  and  N5_12 
REMARK    4  A    between atoms: C8_13  and  N6_14 
REMARK    5  A    between atoms: C9_15  and  C10_16 
REMARK    6  A    between atoms: C10_16  and  C11_17 
ROOT
HETATM    1  N3  UNL     1      23.595  -0.916  54.468  1.00  0.00     0.026 N 
HETATM    2  N4  UNL     1      23.107  -1.346  55.701  1.00  0.00     0.061 NA
HETATM    3  C7  UNL     1      22.276  -1.437  54.713  1.00  0.00     0.785 A 
ENDROOT
BRANCH   1   4
HETATM    4  N2  UNL     1      24.560  -0.390  53.598  1.00  0.00    -0.260 N 
HETATM    5  C6  UNL     1      25.771  -1.073  53.351  1.00  0.00     0.113 A 
HETATM    6  C5  UNL     1      26.671  -0.553  52.522  1.00  0.00     0.021 A 
HETATM    7  C4  UNL     1      26.446   0.723  51.849  1.00  0.00     0.028 A 
HETATM    8  C3  UNL     1      25.311   1.360  52.084  1.00  0.00     0.026 A 
HETATM    9  C13 UNL     1      24.242   0.875  52.983  1.00  0.00     0.207 A 
BRANCH   8  10
HETATM   10  N1  UNL     1      25.066   2.607  51.437  1.00  0.00    -0.391 N 
HETATM   11  C1  UNL     1      26.035   3.116  50.474  1.00  0.00     0.148 C 
HETATM   12  C2  UNL     1      23.901   3.446  51.657  1.00  0.00     0.148 C 
ENDBRANCH   8  10
ENDBRANCH   1   4
BRANCH   3  13
HETATM   13  N5  UNL     1      21.034  -1.749  54.073  1.00  0.00    -0.051 NA
HETATM   14  C8  UNL     1      20.317  -0.749  53.683  1.00  0.00     0.252 C 
BRANCH  14  15
HETATM   15  N6  UNL     1      20.669   0.624  53.842  1.00  0.00    -0.257 NA
HETATM   16  C9  UNL     1      20.626   1.318  52.731  1.00  0.00     0.094 C 
BRANCH  16  17
HETATM   17  C10 UNL     1      20.230   0.642  51.458  1.00  0.00     0.074 C 
BRANCH  17  18
HETATM   18  C11 UNL     1      21.262   1.038  50.458  1.00  0.00    -0.010 C 
HETATM   19  C12 UNL     1      21.170   1.232  49.147  1.00  0.00     0.214 C 
HETATM   20 CL1  UNL     1      22.313   1.694  47.904  1.00  0.00    -0.230 Cl
ENDBRANCH  17  18
ENDBRANCH  16  17
ENDBRANCH  14  15
ENDBRANCH   3  13
TORSDOF 6
ENDMDL
MODEL 3
REMARK VINA RESULT:      -6.1      2.728      5.661
REMARK  6 active torsions:
REMARK  status: ('A' for Active; 'I' for Inactive)
REMARK    1  A    between atoms: N1_2  and  C3_4 
REMARK    2  A    between atoms: N2_8  and  N3_9 
REMARK    3  A    between atoms: C7_11  and  N5_12 
REMARK    4  A    between atoms: C8_13  and  N6_14 
REMARK    5  A    between atoms: C9_15  and  C10_16 
REMARK    6  A    between atoms: C10_16  and  C11_17 
ROOT
HETATM    1  N3  UNL     1      27.178   2.278  52.328  1.00  0.00     0.026 N 
HETATM    2  N4  UNL     1      28.478   2.093  52.797  1.00  0.00     0.061 NA
HETATM    3  C7  UNL     1      27.537   1.753  53.618  1.00  0.00     0.785 A 
ENDROOT
BRANCH   1   4
HETATM    4  N2  UNL     1      26.210   2.659  51.388  1.00  0.00    -0.260 N 
HETATM    5  C6  UNL     1      26.560   3.392  50.234  1.00  0.00     0.113 A 
HETATM    6  C5  UNL     1      25.624   3.742  49.358  1.00  0.00     0.021 A 
HETATM    7  C4  UNL     1      24.220   3.387  49.554  1.00  0.00     0.028 A 
HETATM    8  C3  UNL     1      23.896   2.701  50.636  1.00  0.00     0.026 A 
HETATM    9  C13 UNL     1      24.853   2.260  51.673  1.00  0.00     0.207 A 
BRANCH   8  10
HETATM   10  N1  UNL     1      22.533   2.341  50.850  1.00  0.00    -0.391 N 
HETATM   11  C1  UNL     1      21.942   1.274  50.051  1.00  0.00     0.148 C 
HETATM   12  C2  UNL     1      21.650   2.960  51.823  1.00  0.00     0.148 C 
ENDBRANCH   8  10
ENDBRANCH   1   4
BRANCH   3  13
HETATM   13  N5  UNL     1      26.987   1.251  54.841  1.00  0.00    -0.051 NA
HETATM   14  C8  UNL     1      26.426   0.090  54.788  1.00  0.00     0.252 C 
BRANCH  14  15
HETATM   15  N6  UNL     1      26.313  -0.715  53.616  1.00  0.00    -0.257 NA
HETATM   16  C9  UNL     1      25.083  -1.054  53.318  1.00  0.00     0.094 C 
BRANCH  16  17
HETATM   17  C10 UNL     1      23.961  -0.587  54.188  1.00  0.00     0.074 C 
BRANCH  17  18
HETATM   18  C11 UNL     1      22.763  -0.537  53.302  1.00  0.00    -0.010 C 
HETATM   19  C12 UNL     1      21.485  -0.310  53.584  1.00  0.00     0.214 C 
HETATM   20 CL1  UNL     1      20.024  -0.232  52.623  1.00  0.00    -0.230 Cl
ENDBRANCH  17  18
ENDBRANCH  16  17
ENDBRANCH  14  15
ENDBRANCH   3  13
TORSDOF 6
ENDMDL
MODEL 4
REMARK VINA RESULT:      -6.1      2.447      5.867
REMARK  6 active torsions:
REMARK  status: ('A' for Active; 'I' for Inactive)
REMARK    1  A    between atoms: N1_2  and  C3_4 
REMARK    2  A    between atoms: N2_8  and  N3_9 
REMARK    3  A    between atoms: C7_11  and  N5_12 
REMARK    4  A    between atoms: C8_13  and  N6_14 
REMARK    5  A    between atoms: C9_15  and  C10_16 
REMARK    6  A    between atoms: C10_16  and  C11_17 
ROOT
HETATM    1  N3  UNL     1      24.688  -0.506  54.140  1.00  0.00     0.026 N 
HETATM    2  N4  UNL     1      25.897  -0.586  54.829  1.00  0.00     0.061 NA
HETATM    3  C7  UNL     1      25.997  -0.495  53.542  1.00  0.00     0.785 A 
ENDROOT
BRANCH   1   4
HETATM    4  N2  UNL     1      23.292  -0.464  54.028  1.00  0.00    -0.260 N 
HETATM    5  C6  UNL     1      22.474  -1.383  54.723  1.00  0.00     0.113 A 
HETATM    6  C5  UNL     1      21.153  -1.323  54.600  1.00  0.00     0.021 A 
HETATM    7  C4  UNL     1      20.506  -0.322  53.754  1.00  0.00     0.028 A 
HETATM    8  C3  UNL     1      21.274   0.536  53.106  1.00  0.00     0.026 A 
HETATM    9  C13 UNL     1      22.751   0.562  53.169  1.00  0.00     0.207 A 
BRANCH   8  10
HETATM   10  N1  UNL     1      20.667   1.524  52.275  1.00  0.00    -0.391 N 
HETATM   11  C1  UNL     1      21.190   2.885  52.284  1.00  0.00     0.148 C 
HETATM   12  C2  UNL     1      19.538   1.291  51.392  1.00  0.00     0.148 C 
ENDBRANCH   8  10
ENDBRANCH   1   4
BRANCH   3  13
HETATM   13  N5  UNL     1      26.678  -0.419  52.285  1.00  0.00    -0.051 NA
HETATM   14  C8  UNL     1      26.787   0.753  51.756  1.00  0.00     0.252 C 
BRANCH  14  15
HETATM   15  N6  UNL     1      26.283   1.960  52.324  1.00  0.00    -0.257 NA
HETATM   16  C9  UNL     1      26.093   2.921  51.453  1.00  0.00     0.094 C 
BRANCH  16  17
HETATM   17  C10 UNL     1      26.405   2.679  50.012  1.00  0.00     0.074 C 
BRANCH  17  18
HETATM   18  C11 UNL     1      26.428   4.026  49.376  1.00  0.00    -0.010 C 
HETATM   19  C12 UNL     1      27.445   4.763  48.942  1.00  0.00     0.214 C 
HETATM   20 CL1  UNL     1      27.569   6.338  48.188  1.00  0.00    -0.230 Cl
ENDBRANCH  17  18
ENDBRANCH  16  17
ENDBRANCH  14  15
ENDBRANCH   3  13
TORSDOF 6
ENDMDL
MODEL 5
REMARK VINA RESULT:      -6.0      2.881      6.975
REMARK  6 active torsions:
REMARK  status: ('A' for Active; 'I' for Inactive)
REMARK    1  A    between atoms: N1_2  and  C3_4 
REMARK    2  A    between atoms: N2_8  and  N3_9 
REMARK    3  A    between atoms: C7_11  and  N5_12 
REMARK    4  A    between atoms: C8_13  and  N6_14 
REMARK    5  A    between atoms: C9_15  and  C10_16 
REMARK    6  A    between atoms: C10_16  and  C11_17 
ROOT
HETATM    1  N3  UNL     1      22.203   1.882  52.567  1.00  0.00     0.026 N 
HETATM    2  N4  UNL     1      22.296   3.252  52.325  1.00  0.00     0.061 NA
HETATM    3  C7  UNL     1      23.222   2.528  51.784  1.00  0.00     0.785 A 
ENDROOT
BRANCH   1   4
HETATM    4  N2  UNL     1      21.629   0.727  53.114  1.00  0.00    -0.260 N 
HETATM    5  C6  UNL     1      22.364  -0.120  53.972  1.00  0.00     0.113 A 
HETATM    6  C5  UNL     1      21.797  -1.211  54.477  1.00  0.00     0.021 A 
HETATM    7  C4  UNL     1      20.415  -1.569  54.168  1.00  0.00     0.028 A 
HETATM    8  C3  UNL     1      19.730  -0.774  53.364  1.00  0.00     0.026 A 
HETATM    9  C13 UNL     1      20.258   0.461  52.748  1.00  0.00     0.207 A 
BRANCH   8  10
HETATM   10  N1  UNL     1      18.378  -1.101  53.049  1.00  0.00    -0.391 N 
HETATM   11  C1  UNL     1      17.801  -2.336  53.567  1.00  0.00     0.148 C 
HETATM   12  C2  UNL     1      17.493  -0.290  52.231  1.00  0.00     0.148 C 
ENDBRANCH   8  10
ENDBRANCH   1   4
BRANCH   3  13
HETATM   13  N5  UNL     1      24.399   2.275  51.008  1.00  0.00    -0.051 NA
HETATM   14  C8  UNL     1      25.480   2.021  51.664  1.00  0.00     0.252 C 
BRANCH  14  15
HETATM   15  N6  UNL     1      25.587   1.976  53.086  1.00  0.00    -0.257 NA
HETATM   16  C9  UNL     1      25.871   0.788  53.562  1.00  0.00     0.094 C 
BRANCH  16  17
HETATM   17  C10 UNL     1      26.052  -0.358  52.619  1.00  0.00     0.074 C 
BRANCH  17  18
HETATM   18  C11 UNL     1      27.359  -0.973  52.985  1.00  0.00    -0.010 C 
HETATM   19  C12 UNL     1      28.508  -0.415  53.352  1.00  0.00     0.214 C 
HETATM   20 CL1  UNL     1      30.078  -1.048  53.797  1.00  0.00    -0.230 Cl
ENDBRANCH  17  18
ENDBRANCH  16  17
ENDBRANCH  14  15
ENDBRANCH   3  13
TORSDOF 6
ENDMDL
MODEL 6
REMARK VINA RESULT:      -5.9      5.670      7.372
REMARK  6 active torsions:
REMARK  status: ('A' for Active; 'I' for Inactive)
REMARK    1  A    between atoms: N1_2  and  C3_4 
REMARK    2  A    between atoms: N2_8  and  N3_9 
REMARK    3  A    between atoms: C7_11  and  N5_12 
REMARK    4  A    between atoms: C8_13  and  N6_14 
REMARK    5  A    between atoms: C9_15  and  C10_16 
REMARK    6  A    between atoms: C10_16  and  C11_17 
ROOT
HETATM    1  N3  UNL     1      24.634   4.585  50.756  1.00  0.00     0.026 N 
HETATM    2  N4  UNL     1      23.584   4.656  51.670  1.00  0.00     0.061 NA
HETATM    3  C7  UNL     1      23.827   3.477  51.194  1.00  0.00     0.785 A 
ENDROOT
BRANCH   1   4
HETATM    4  N2  UNL     1      25.678   5.107  49.980  1.00  0.00    -0.260 N 
HETATM    5  C6  UNL     1      26.616   4.259  49.350  1.00  0.00     0.113 A 
HETATM    6  C5  UNL     1      27.598   4.778  48.620  1.00  0.00     0.021 A 
HETATM    7  C4  UNL     1      27.742   6.221  48.446  1.00  0.00     0.028 A 
HETATM    8  C3  UNL     1      26.863   7.012  49.037  1.00  0.00     0.026 A 
HETATM    9  C13 UNL     1      25.734   6.544  49.869  1.00  0.00     0.207 A 
BRANCH   8  10
HETATM   10  N1  UNL     1      26.982   8.424  48.881  1.00  0.00    -0.391 N 
HETATM   11  C1  UNL     1      26.765   9.019  47.567  1.00  0.00     0.148 C 
HETATM   12  C2  UNL     1      27.310   9.356  49.945  1.00  0.00     0.148 C 
ENDBRANCH   8  10
ENDBRANCH   1   4
BRANCH   3  13
HETATM   13  N5  UNL     1      23.640   2.066  51.035  1.00  0.00    -0.051 NA
HETATM   14  C8  UNL     1      24.239   1.305  51.887  1.00  0.00     0.252 C 
BRANCH  14  15
HETATM   15  N6  UNL     1      25.063   1.760  52.959  1.00  0.00    -0.257 NA
HETATM   16  C9  UNL     1      25.908   0.860  53.402  1.00  0.00     0.094 C 
BRANCH  16  17
HETATM   17  C10 UNL     1      25.933  -0.496  52.774  1.00  0.00     0.074 C 
BRANCH  17  18
HETATM   18  C11 UNL     1      27.331  -0.986  52.937  1.00  0.00    -0.010 C 
HETATM   19  C12 UNL     1      28.414  -0.378  53.410  1.00  0.00     0.214 C 
HETATM   20 CL1  UNL     1      30.079  -0.866  53.639  1.00  0.00    -0.230 Cl
ENDBRANCH  17  18
ENDBRANCH  16  17
ENDBRANCH  14  15
ENDBRANCH   3  13
TORSDOF 6
ENDMDL
MODEL 7
REMARK VINA RESULT:      -5.9      4.082      5.503
REMARK  6 active torsions:
REMARK  status: ('A' for Active; 'I' for Inactive)
REMARK    1  A    between atoms: N1_2  and  C3_4 
REMARK    2  A    between atoms: N2_8  and  N3_9 
REMARK    3  A    between atoms: C7_11  and  N5_12 
REMARK    4  A    between atoms: C8_13  and  N6_14 
REMARK    5  A    between atoms: C9_15  and  C10_16 
REMARK    6  A    between atoms: C10_16  and  C11_17 
ROOT
HETATM    1  N3  UNL     1      23.553   2.627  52.197  1.00  0.00     0.026 N 
HETATM    2  N4  UNL     1      22.617   3.661  52.177  1.00  0.00     0.061 NA
HETATM    3  C7  UNL     1      23.109   3.334  51.025  1.00  0.00     0.785 A 
ENDROOT
BRANCH   1   4
HETATM    4  N2  UNL     1      24.344   1.644  52.807  1.00  0.00    -0.260 N 
HETATM    5  C6  UNL     1      23.815   0.375  53.129  1.00  0.00     0.113 A 
HETATM    6  C5  UNL     1      24.586  -0.540  53.707  1.00  0.00     0.021 A 
HETATM    7  C4  UNL     1      25.986  -0.272  54.027  1.00  0.00     0.028 A 
HETATM    8  C3  UNL     1      26.478   0.917  53.723  1.00  0.00     0.026 A 
HETATM    9  C13 UNL     1      25.713   2.007  53.080  1.00  0.00     0.207 A 
BRANCH   8  10
HETATM   10  N1  UNL     1      27.842   1.203  54.024  1.00  0.00    -0.391 N 
HETATM   11  C1  UNL     1      28.610   0.261  54.830  1.00  0.00     0.148 C 
HETATM   12  C2  UNL     1      28.562   2.386  53.586  1.00  0.00     0.148 C 
ENDBRANCH   8  10
ENDBRANCH   1   4
BRANCH   3  13
HETATM   13  N5  UNL     1      23.277   3.411  49.605  1.00  0.00    -0.051 NA
HETATM   14  C8  UNL     1      23.849   4.474  49.148  1.00  0.00     0.252 C 
BRANCH  14  15
HETATM   15  N6  UNL     1      24.316   5.562  49.943  1.00  0.00    -0.257 NA
HETATM   16  C9  UNL     1      25.612   5.749  49.884  1.00  0.00     0.094 C 
BRANCH  16  17
HETATM   17  C10 UNL     1      26.445   4.849  49.028  1.00  0.00     0.074 C 
BRANCH  17  18
HETATM   18  C11 UNL     1      27.561   5.699  48.525  1.00  0.00    -0.010 C 
HETATM   19  C12 UNL     1      28.830   5.400  48.265  1.00  0.00     0.214 C 
HETATM   20 CL1  UNL     1      30.199   6.319  47.678  1.00  0.00    -0.230 Cl
ENDBRANCH  17  18
ENDBRANCH  16  17
ENDBRANCH  14  15
ENDBRANCH   3  13
TORSDOF 6
ENDMDL
MODEL 8
REMARK VINA RESULT:      -5.9      2.990      4.823
REMARK  6 active torsions:
REMARK  status: ('A' for Active; 'I' for Inactive)
REMARK    1  A    between atoms: N1_2  and  C3_4 
REMARK    2  A    between atoms: N2_8  and  N3_9 
REMARK    3  A    between atoms: C7_11  and  N5_12 
REMARK    4  A    between atoms: C8_13  and  N6_14 
REMARK    5  A    between atoms: C9_15  and  C10_16 
REMARK    6  A    between atoms: C10_16  and  C11_17 
ROOT
HETATM    1  N3  UNL     1      21.187   2.289  52.556  1.00  0.00     0.026 N 
HETATM    2  N4  UNL     1      20.257   3.327  52.524  1.00  0.00     0.061 NA
HETATM    3  C7  UNL     1      20.936   3.156  51.436  1.00  0.00     0.785 A 
ENDROOT
BRANCH   1   4
HETATM    4  N2  UNL     1      21.877   1.221  53.145  1.00  0.00    -0.260 N 
HETATM    5  C6  UNL     1      21.193   0.207  53.850  1.00  0.00     0.113 A 
HETATM    6  C5  UNL     1      21.870  -0.795  54.401  1.00  0.00     0.021 A 
HETATM    7  C4  UNL     1      23.325  -0.884  54.299  1.00  0.00     0.028 A 
HETATM    8  C3  UNL     1      23.962   0.067  53.637  1.00  0.00     0.026 A 
HETATM    9  C13 UNL     1      23.312   1.224  52.987  1.00  0.00     0.207 A 
BRANCH   8  10
HETATM   10  N1  UNL     1      25.382   0.002  53.522  1.00  0.00    -0.391 N 
HETATM   11  C1  UNL     1      26.193   1.096  54.043  1.00  0.00     0.148 C 
HETATM   12  C2  UNL     1      26.121  -1.091  52.913  1.00  0.00     0.148 C 
ENDBRANCH   8  10
ENDBRANCH   1   4
BRANCH   3  13
HETATM   13  N5  UNL     1      21.335   3.427  50.087  1.00  0.00    -0.051 NA
HETATM   14  C8  UNL     1      22.420   4.109  49.932  1.00  0.00     0.252 C 
BRANCH  14  15
HETATM   15  N6  UNL     1      23.236   4.605  50.991  1.00  0.00    -0.257 NA
HETATM   16  C9  UNL     1      24.468   4.156  50.971  1.00  0.00     0.094 C 
BRANCH  16  17
HETATM   17  C10 UNL     1      24.887   3.210  49.892  1.00  0.00     0.074 C 
BRANCH  17  18
HETATM   18  C11 UNL     1      26.272   3.616  49.521  1.00  0.00    -0.010 C 
HETATM   19  C12 UNL     1      26.730   4.733  48.967  1.00  0.00     0.214 C 
HETATM   20 CL1  UNL     1      28.321   5.295  48.501  1.00  0.00    -0.230 Cl
ENDBRANCH  17  18
ENDBRANCH  16  17
ENDBRANCH  14  15
ENDBRANCH   3  13
TORSDOF 6
ENDMDL
MODEL 9
REMARK VINA RESULT:      -5.8      2.881      4.108
REMARK  6 active torsions:
REMARK  status: ('A' for Active; 'I' for Inactive)
REMARK    1  A    between atoms: N1_2  and  C3_4 
REMARK    2  A    between atoms: N2_8  and  N3_9 
REMARK    3  A    between atoms: C7_11  and  N5_12 
REMARK    4  A    between atoms: C8_13  and  N6_14 
REMARK    5  A    between atoms: C9_15  and  C10_16 
REMARK    6  A    between atoms: C10_16  and  C11_17 
ROOT
HETATM    1  N3  UNL     1      24.844   2.887  51.780  1.00  0.00     0.026 N 
HETATM    2  N4  UNL     1      24.873   3.896  50.819  1.00  0.00     0.061 NA
HETATM    3  C7  UNL     1      23.967   4.027  51.733  1.00  0.00     0.785 A 
ENDROOT
BRANCH   1   4
HETATM    4  N2  UNL     1      25.271   1.697  52.384  1.00  0.00    -0.260 N 
HETATM    5  C6  UNL     1      24.364   0.649  52.658  1.00  0.00     0.113 A 
HETATM    6  C5  UNL     1      24.794  -0.470  53.232  1.00  0.00     0.021 A 
HETATM    7  C4  UNL     1      26.197  -0.655  53.596  1.00  0.00     0.028 A 
HETATM    8  C3  UNL     1      27.042   0.328  53.338  1.00  0.00     0.026 A 
HETATM    9  C13 UNL     1      26.675   1.612  52.704  1.00  0.00     0.207 A 
BRANCH   8  10
HETATM   10  N1  UNL     1      28.417   0.171  53.682  1.00  0.00    -0.391 N 
HETATM   11  C1  UNL     1      29.074  -1.108  53.441  1.00  0.00     0.148 C 
HETATM   12  C2  UNL     1      29.252   1.204  54.271  1.00  0.00     0.148 C 
ENDBRANCH   8  10
ENDBRANCH   1   4
BRANCH   3  13
HETATM   13  N5  UNL     1      22.872   4.656  52.409  1.00  0.00    -0.051 NA
HETATM   14  C8  UNL     1      21.688   4.350  51.998  1.00  0.00     0.252 C 
BRANCH  14  15
HETATM   15  N6  UNL     1      21.395   3.446  50.935  1.00  0.00    -0.257 NA
HETATM   16  C9  UNL     1      20.712   2.390  51.304  1.00  0.00     0.094 C 
BRANCH  16  17
HETATM   17  C10 UNL     1      20.318   2.235  52.738  1.00  0.00     0.074 C 
BRANCH  17  18
HETATM   18  C11 UNL     1      20.685   0.838  53.104  1.00  0.00    -0.010 C 
HETATM   19  C12 UNL     1      21.065   0.317  54.266  1.00  0.00     0.214 C 
HETATM   20 CL1  UNL     1      21.511  -1.294  54.787  1.00  0.00    -0.230 Cl
ENDBRANCH  17  18
ENDBRANCH  16  17
ENDBRANCH  14  15
ENDBRANCH   3  13
TORSDOF 6
ENDMDL
