MODEL 1
REMARK VINA RESULT:      -7.3      0.000      0.000
REMARK  7 active torsions:
REMARK  status: ('A' for Active; 'I' for Inactive)
REMARK    1  A    between atoms: C2_2  and  C3_3 
REMARK    2  A    between atoms: C5_5  and  C6_6 
REMARK    3  A    between atoms: C10_12  and  O1_13 
REMARK    4  A    between atoms: O1_13  and  C11_14 
REMARK    5  A    between atoms: C11_14  and  C12_15 
REMARK    6  A    between atoms: C13_16  and  C14_17 
REMARK    7  A    between atoms: C15_18  and  C16_19 
ROOT
HETATM    1  C3  UNL     1      23.366   0.307  53.167  1.00  0.00    -0.024 A 
HETATM    2  C4  UNL     1      24.629  -0.122  53.571  1.00  0.00     0.025 A 
HETATM    3  C5  UNL     1      25.634   0.796  53.697  1.00  0.00     0.012 A 
HETATM    4  C8  UNL     1      25.424   2.121  53.434  1.00  0.00     0.018 A 
HETATM    5  C9  UNL     1      24.190   2.594  53.030  1.00  0.00     0.038 A 
HETATM    6  C10 UNL     1      23.174   1.638  52.907  1.00  0.00     0.075 A 
ENDROOT
BRANCH   6   7
HETATM    7  O1  UNL     1      21.868   1.968  52.509  1.00  0.00    -0.347 OA
BRANCH   7   8
HETATM    8  C11 UNL     1      21.691   2.781  51.348  1.00  0.00     0.203 C 
BRANCH   8   9
HETATM    9  C12 UNL     1      22.088   2.080  50.127  1.00  0.00    -0.000 C 
HETATM   10  C13 UNL     1      23.060   2.403  49.307  1.00  0.00    -0.002 C 
BRANCH  10  11
HETATM   11  C14 UNL     1      24.005   3.502  49.349  1.00  0.00    -0.003 C 
HETATM   12  C15 UNL     1      25.306   3.569  49.558  1.00  0.00    -0.007 C 
BRANCH  12  13
HETATM   13  C16 UNL     1      26.051   4.845  49.547  1.00  0.00     0.101 C 
HETATM   14  C17 UNL     1      25.256   5.899  48.797  1.00  0.00     0.031 C 
HETATM   15 CL1  UNL     1      27.609   4.662  48.672  1.00  0.00    -0.121 Cl
ENDBRANCH  12  13
ENDBRANCH  10  11
ENDBRANCH   8   9
ENDBRANCH   7   8
ENDBRANCH   6   7
BRANCH   1  16
HETATM   16  C2  UNL     1      22.281  -0.706  53.035  1.00  0.00     0.037 C 
HETATM   17  C1  UNL     1      21.735  -1.107  54.390  1.00  0.00     0.010 C 
ENDBRANCH   1  16
BRANCH   3  18
HETATM   18  C6  UNL     1      26.988   0.456  54.116  1.00  0.00     0.162 A 
HETATM   19  N1  UNL     1      27.768  -0.563  54.295  1.00  0.00    -0.222 NA
HETATM   20  C7  UNL     1      28.849   0.256  54.714  1.00  0.00     0.237 A 
HETATM   21  N2  UNL     1      28.076   1.284  54.539  1.00  0.00    -0.222 NA
ENDBRANCH   3  18
TORSDOF 7
ENDMDL
MODEL 2
REMARK VINA RESULT:      -7.1      2.704      4.819
REMARK  7 active torsions:
REMARK  status: ('A' for Active; 'I' for Inactive)
REMARK    1  A    between atoms: C2_2  and  C3_3 
REMARK    2  A    between atoms: C5_5  and  C6_6 
REMARK    3  A    between atoms: C10_12  and  O1_13 
REMARK    4  A    between atoms: O1_13  and  C11_14 
REMARK    5  A    between atoms: C11_14  and  C12_15 
REMARK    6  A    between atoms: C13_16  and  C14_17 
REMARK    7  A    between atoms: C15_18  and  C16_19 
ROOT
HETATM    1  C3  UNL     1      25.769   2.835  50.979  1.00  0.00    -0.024 A 
HETATM    2  C4  UNL     1      26.770   2.090  51.597  1.00  0.00     0.025 A 
HETATM    3  C5  UNL     1      26.666   1.812  52.932  1.00  0.00     0.012 A 
HETATM    4  C8  UNL     1      25.602   2.252  53.668  1.00  0.00     0.018 A 
HETATM    5  C9  UNL     1      24.584   2.994  53.100  1.00  0.00     0.038 A 
HETATM    6  C10 UNL     1      24.709   3.267  51.733  1.00  0.00     0.075 A 
ENDROOT
BRANCH   6   7
HETATM    7  O1  UNL     1      23.755   4.008  51.017  1.00  0.00    -0.347 OA
BRANCH   7   8
HETATM    8  C11 UNL     1      22.386   3.602  51.080  1.00  0.00     0.203 C 
BRANCH   8   9
HETATM    9  C12 UNL     1      22.112   2.474  50.191  1.00  0.00    -0.000 C 
HETATM   10  C13 UNL     1      22.051   1.205  50.517  1.00  0.00    -0.002 C 
BRANCH  10  11
HETATM   11  C14 UNL     1      22.227   0.549  51.799  1.00  0.00    -0.003 C 
HETATM   12  C15 UNL     1      21.595   0.636  52.953  1.00  0.00    -0.007 C 
BRANCH  12  13
HETATM   13  C16 UNL     1      21.981  -0.162  54.136  1.00  0.00     0.101 C 
HETATM   14  C17 UNL     1      23.405  -0.665  53.976  1.00  0.00     0.031 C 
HETATM   15 CL1  UNL     1      20.939  -1.618  54.285  1.00  0.00    -0.121 Cl
ENDBRANCH  12  13
ENDBRANCH  10  11
ENDBRANCH   8   9
ENDBRANCH   7   8
ENDBRANCH   6   7
BRANCH   1  16
HETATM   16  C2  UNL     1      25.898   3.127  49.524  1.00  0.00     0.037 C 
HETATM   17  C1  UNL     1      26.815   4.307  49.277  1.00  0.00     0.010 C 
ENDBRANCH   1  16
BRANCH   3  18
HETATM   18  C6  UNL     1      27.653   1.039  53.675  1.00  0.00     0.162 A 
HETATM   19  N1  UNL     1      28.345   1.064  54.770  1.00  0.00    -0.222 NA
HETATM   20  C7  UNL     1      28.971  -0.177  54.480  1.00  0.00     0.237 A 
HETATM   21  N2  UNL     1      28.284  -0.212  53.378  1.00  0.00    -0.222 NA
ENDBRANCH   3  18
TORSDOF 7
ENDMDL
MODEL 3
REMARK VINA RESULT:      -6.7      3.487      4.936
REMARK  7 active torsions:
REMARK  status: ('A' for Active; 'I' for Inactive)
REMARK    1  A    between atoms: C2_2  and  C3_3 
REMARK    2  A    between atoms: C5_5  and  C6_6 
REMARK    3  A    between atoms: C10_12  and  O1_13 
REMARK    4  A    between atoms: O1_13  and  C11_14 
REMARK    5  A    between atoms: C11_14  and  C12_15 
REMARK    6  A    between atoms: C13_16  and  C14_17 
REMARK    7  A    between atoms: C15_18  and  C16_19 
ROOT
HETATM    1  C3  UNL     1      23.454   0.354  53.322  1.00  0.00    -0.024 A 
HETATM    2  C4  UNL     1      24.712  -0.083  53.730  1.00  0.00     0.025 A 
HETATM    3  C5  UNL     1      25.743   0.813  53.783  1.00  0.00     0.012 A 
HETATM    4  C8  UNL     1      25.563   2.124  53.443  1.00  0.00     0.018 A 
HETATM    5  C9  UNL     1      24.334   2.605  53.032  1.00  0.00     0.038 A 
HETATM    6  C10 UNL     1      23.292   1.672  52.985  1.00  0.00     0.075 A 
ENDROOT
BRANCH   6   7
HETATM    7  O1  UNL     1      21.987   2.011  52.589  1.00  0.00    -0.347 OA
BRANCH   7   8
HETATM    8  C11 UNL     1      21.796   2.612  51.308  1.00  0.00     0.203 C 
BRANCH   8   9
HETATM    9  C12 UNL     1      21.594   1.609  50.262  1.00  0.00    -0.000 C 
HETATM   10  C13 UNL     1      20.658   0.691  50.214  1.00  0.00    -0.002 C 
BRANCH  10  11
HETATM   11  C14 UNL     1      19.579   0.394  51.135  1.00  0.00    -0.003 C 
HETATM   12  C15 UNL     1      18.340  -0.029  50.970  1.00  0.00    -0.007 C 
BRANCH  12  13
HETATM   13  C16 UNL     1      17.419  -0.260  52.102  1.00  0.00     0.101 C 
HETATM   14  C17 UNL     1      18.081  -1.162  53.130  1.00  0.00     0.031 C 
HETATM   15 CL1  UNL     1      15.939  -1.117  51.551  1.00  0.00    -0.121 Cl
ENDBRANCH  12  13
ENDBRANCH  10  11
ENDBRANCH   8   9
ENDBRANCH   7   8
ENDBRANCH   6   7
BRANCH   1  16
HETATM   16  C2  UNL     1      22.341  -0.636  53.272  1.00  0.00     0.037 C 
HETATM   17  C1  UNL     1      22.097  -1.260  54.630  1.00  0.00     0.010 C 
ENDBRANCH   1  16
BRANCH   3  18
HETATM   18  C6  UNL     1      27.095   0.463  54.199  1.00  0.00     0.162 A 
HETATM   19  N1  UNL     1      27.819  -0.558  54.537  1.00  0.00    -0.222 NA
HETATM   20  C7  UNL     1      28.972   0.246  54.740  1.00  0.00     0.237 A 
HETATM   21  N2  UNL     1      28.255   1.276  54.404  1.00  0.00    -0.222 NA
ENDBRANCH   3  18
TORSDOF 7
ENDMDL
MODEL 4
REMARK VINA RESULT:      -6.5      3.039      6.070
REMARK  7 active torsions:
REMARK  status: ('A' for Active; 'I' for Inactive)
REMARK    1  A    between atoms: C2_2  and  C3_3 
REMARK    2  A    between atoms: C5_5  and  C6_6 
REMARK    3  A    between atoms: C10_12  and  O1_13 
REMARK    4  A    between atoms: O1_13  and  C11_14 
REMARK    5  A    between atoms: C11_14  and  C12_15 
REMARK    6  A    between atoms: C13_16  and  C14_17 
REMARK    7  A    between atoms: C15_18  and  C16_19 
ROOT
HETATM    1  C3  UNL     1      24.023   4.382  49.927  1.00  0.00    -0.024 A 
HETATM    2  C4  UNL     1      24.991   5.155  49.290  1.00  0.00     0.025 A 
HETATM    3  C5  UNL     1      26.295   4.745  49.320  1.00  0.00     0.012 A 
HETATM    4  C8  UNL     1      26.665   3.597  49.962  1.00  0.00     0.018 A 
HETATM    5  C9  UNL     1      25.741   2.797  50.608  1.00  0.00     0.038 A 
HETATM    6  C10 UNL     1      24.412   3.234  50.566  1.00  0.00     0.075 A 
ENDROOT
BRANCH   6   7
HETATM    7  O1  UNL     1      23.362   2.526  51.174  1.00  0.00    -0.347 OA
BRANCH   7   8
HETATM    8  C11 UNL     1      23.483   2.172  52.552  1.00  0.00     0.203 C 
BRANCH   8   9
HETATM    9  C12 UNL     1      23.543   0.723  52.738  1.00  0.00    -0.000 C 
HETATM   10  C13 UNL     1      24.587   0.012  53.095  1.00  0.00    -0.002 C 
BRANCH  10  11
HETATM   11  C14 UNL     1      25.944   0.416  53.404  1.00  0.00    -0.003 C 
HETATM   12  C15 UNL     1      27.117   0.129  52.871  1.00  0.00    -0.007 C 
BRANCH  12  13
HETATM   13  C16 UNL     1      28.385   0.688  53.386  1.00  0.00     0.101 C 
HETATM   14  C17 UNL     1      28.617   0.213  54.809  1.00  0.00     0.031 C 
HETATM   15 CL1  UNL     1      28.307   2.481  53.453  1.00  0.00    -0.121 Cl
ENDBRANCH  12  13
ENDBRANCH  10  11
ENDBRANCH   8   9
ENDBRANCH   7   8
ENDBRANCH   6   7
BRANCH   1  16
HETATM   16  C2  UNL     1      22.606   4.842  49.884  1.00  0.00     0.037 C 
HETATM   17  C1  UNL     1      21.988   4.595  48.523  1.00  0.00     0.010 C 
ENDBRANCH   1  16
BRANCH   3  18
HETATM   18  C6  UNL     1      27.385   5.476  48.684  1.00  0.00     0.162 A 
HETATM   19  N1  UNL     1      27.648   6.610  48.115  1.00  0.00    -0.222 NA
HETATM   20  C7  UNL     1      29.000   6.248  47.874  1.00  0.00     0.237 A 
HETATM   21  N2  UNL     1      28.747   5.108  48.442  1.00  0.00    -0.222 NA
ENDBRANCH   3  18
TORSDOF 7
ENDMDL
MODEL 5
REMARK VINA RESULT:      -6.3      2.799      4.572
REMARK  7 active torsions:
REMARK  status: ('A' for Active; 'I' for Inactive)
REMARK    1  A    between atoms: C2_2  and  C3_3 
REMARK    2  A    between atoms: C5_5  and  C6_6 
REMARK    3  A    between atoms: C10_12  and  O1_13 
REMARK    4  A    between atoms: O1_13  and  C11_14 
REMARK    5  A    between atoms: C11_14  and  C12_15 
REMARK    6  A    between atoms: C13_16  and  C14_17 
REMARK    7  A    between atoms: C15_18  and  C16_19 
ROOT
HETATM    1  C3  UNL     1      25.922   0.607  52.784  1.00  0.00    -0.024 A 
HETATM    2  C4  UNL     1      24.994  -0.221  53.411  1.00  0.00     0.025 A 
HETATM    3  C5  UNL     1      23.667   0.099  53.347  1.00  0.00     0.012 A 
HETATM    4  C8  UNL     1      23.235   1.212  52.682  1.00  0.00     0.018 A 
HETATM    5  C9  UNL     1      24.117   2.064  52.045  1.00  0.00     0.038 A 
HETATM    6  C10 UNL     1      25.471   1.719  52.122  1.00  0.00     0.075 A 
ENDROOT
BRANCH   6   7
HETATM    7  O1  UNL     1      26.484   2.486  51.523  1.00  0.00    -0.347 OA
BRANCH   7   8
HETATM    8  C11 UNL     1      26.478   2.636  50.102  1.00  0.00     0.203 C 
BRANCH   8   9
HETATM    9  C12 UNL     1      26.293   4.031  49.704  1.00  0.00    -0.000 C 
HETATM   10  C13 UNL     1      25.166   4.619  49.378  1.00  0.00    -0.002 C 
BRANCH  10  11
HETATM   11  C14 UNL     1      23.814   4.100  49.313  1.00  0.00    -0.003 C 
HETATM   12  C15 UNL     1      23.230   3.189  48.558  1.00  0.00    -0.007 C 
BRANCH  12  13
HETATM   13  C16 UNL     1      21.802   2.835  48.696  1.00  0.00     0.101 C 
HETATM   14  C17 UNL     1      21.226   3.491  49.939  1.00  0.00     0.031 C 
HETATM   15 CL1  UNL     1      21.607   1.062  48.918  1.00  0.00    -0.121 Cl
ENDBRANCH  12  13
ENDBRANCH  10  11
ENDBRANCH   8   9
ENDBRANCH   7   8
ENDBRANCH   6   7
BRANCH   1  16
HETATM   16  C2  UNL     1      27.365   0.244  52.862  1.00  0.00     0.037 C 
HETATM   17  C1  UNL     1      27.903   0.420  54.267  1.00  0.00     0.010 C 
ENDBRANCH   1  16
BRANCH   3  18
HETATM   18  C6  UNL     1      22.614  -0.699  53.964  1.00  0.00     0.162 A 
HETATM   19  N1  UNL     1      22.373  -1.421  55.013  1.00  0.00    -0.222 NA
HETATM   20  C7  UNL     1      21.050  -1.712  54.587  1.00  0.00     0.237 A 
HETATM   21  N2  UNL     1      21.281  -0.992  53.532  1.00  0.00    -0.222 NA
ENDBRANCH   3  18
TORSDOF 7
ENDMDL
MODEL 6
REMARK VINA RESULT:      -6.3      2.784      4.348
REMARK  7 active torsions:
REMARK  status: ('A' for Active; 'I' for Inactive)
REMARK    1  A    between atoms: C2_2  and  C3_3 
REMARK    2  A    between atoms: C5_5  and  C6_6 
REMARK    3  A    between atoms: C10_12  and  O1_13 
REMARK    4  A    between atoms: O1_13  and  C11_14 
REMARK    5  A    between atoms: C11_14  and  C12_15 
REMARK    6  A    between atoms: C13_16  and  C14_17 
REMARK    7  A    between atoms: C15_18  and  C16_19 
ROOT
HETATM    1  C3  UNL     1      23.576   0.742  52.486  1.00  0.00    -0.024 A 
HETATM    2  C4  UNL     1      24.930   0.833  52.801  1.00  0.00     0.025 A 
HETATM    3  C5  UNL     1      25.427   0.073  53.822  1.00  0.00     0.012 A 
HETATM    4  C8  UNL     1      24.624  -0.771  54.537  1.00  0.00     0.018 A 
HETATM    5  C9  UNL     1      23.276  -0.896  54.262  1.00  0.00     0.038 A 
HETATM    6  C10 UNL     1      22.786  -0.109  53.213  1.00  0.00     0.075 A 
ENDROOT
BRANCH   6   7
HETATM    7  O1  UNL     1      21.439  -0.129  52.816  1.00  0.00    -0.347 OA
BRANCH   7   8
HETATM    8  C11 UNL     1      20.429  -0.220  53.823  1.00  0.00     0.203 C 
BRANCH   8   9
HETATM    9  C12 UNL     1      19.177  -0.755  53.290  1.00  0.00    -0.000 C 
HETATM   10  C13 UNL     1      18.502  -0.312  52.255  1.00  0.00    -0.002 C 
BRANCH  10  11
HETATM   11  C14 UNL     1      18.771   0.792  51.355  1.00  0.00    -0.003 C 
HETATM   12  C15 UNL     1      19.011   0.864  50.059  1.00  0.00    -0.007 C 
BRANCH  12  13
HETATM   13  C16 UNL     1      19.258   2.145  49.364  1.00  0.00     0.101 C 
HETATM   14  C17 UNL     1      20.582   2.081  48.623  1.00  0.00     0.031 C 
HETATM   15 CL1  UNL     1      19.400   3.490  50.546  1.00  0.00    -0.121 Cl
ENDBRANCH  12  13
ENDBRANCH  10  11
ENDBRANCH   8   9
ENDBRANCH   7   8
ENDBRANCH   6   7
BRANCH   1  16
HETATM   16  C2  UNL     1      23.050   1.576  51.369  1.00  0.00     0.037 C 
HETATM   17  C1  UNL     1      22.725   2.980  51.836  1.00  0.00     0.010 C 
ENDBRANCH   1  16
BRANCH   3  18
HETATM   18  C6  UNL     1      26.826   0.088  54.232  1.00  0.00     0.162 A 
HETATM   19  N1  UNL     1      27.858  -0.689  54.345  1.00  0.00    -0.222 NA
HETATM   20  C7  UNL     1      28.677   0.363  54.835  1.00  0.00     0.237 A 
HETATM   21  N2  UNL     1      27.649   1.150  54.726  1.00  0.00    -0.222 NA
ENDBRANCH   3  18
TORSDOF 7
ENDMDL
MODEL 7
REMARK VINA RESULT:      -6.2      3.069      5.161
REMARK  7 active torsions:
REMARK  status: ('A' for Active; 'I' for Inactive)
REMARK    1  A    between atoms: C2_2  and  C3_3 
REMARK    2  A    between atoms: C5_5  and  C6_6 
REMARK    3  A    between atoms: C10_12  and  O1_13 
REMARK    4  A    between atoms: O1_13  and  C11_14 
REMARK    5  A    between atoms: C11_14  and  C12_15 
REMARK    6  A    between atoms: C13_16  and  C14_17 
REMARK    7  A    between atoms: C15_18  and  C16_19 
ROOT
HETATM    1  C3  UNL     1      26.034   1.938  51.605  1.00  0.00    -0.024 A 
HETATM    2  C4  UNL     1      27.020   1.003  51.911  1.00  0.00     0.025 A 
HETATM    3  C5  UNL     1      26.665  -0.153  52.549  1.00  0.00     0.012 A 
HETATM    4  C8  UNL     1      25.367  -0.406  52.892  1.00  0.00     0.018 A 
HETATM    5  C9  UNL     1      24.354   0.491  52.610  1.00  0.00     0.038 A 
HETATM    6  C10 UNL     1      24.738   1.668  51.957  1.00  0.00     0.075 A 
ENDROOT
BRANCH   6   7
HETATM    7  O1  UNL     1      23.821   2.672  51.602  1.00  0.00    -0.347 OA
BRANCH   7   8
HETATM    8  C11 UNL     1      23.223   3.450  52.641  1.00  0.00     0.203 C 
BRANCH   8   9
HETATM    9  C12 UNL     1      21.927   3.993  52.235  1.00  0.00    -0.000 C 
HETATM   10  C13 UNL     1      20.774   3.368  52.227  1.00  0.00    -0.002 C 
BRANCH  10  11
HETATM   11  C14 UNL     1      20.432   2.009  52.600  1.00  0.00    -0.003 C 
HETATM   12  C15 UNL     1      20.672   1.278  53.672  1.00  0.00    -0.007 C 
BRANCH  12  13
HETATM   13  C16 UNL     1      20.201  -0.116  53.807  1.00  0.00     0.101 C 
HETATM   14  C17 UNL     1      21.368  -1.073  53.635  1.00  0.00     0.031 C 
HETATM   15 CL1  UNL     1      19.019  -0.515  52.515  1.00  0.00    -0.121 Cl
ENDBRANCH  12  13
ENDBRANCH  10  11
ENDBRANCH   8   9
ENDBRANCH   7   8
ENDBRANCH   6   7
BRANCH   1  16
HETATM   16  C2  UNL     1      26.438   3.192  50.908  1.00  0.00     0.037 C 
HETATM   17  C1  UNL     1      26.523   2.986  49.410  1.00  0.00     0.010 C 
ENDBRANCH   1  16
BRANCH   3  18
HETATM   18  C6  UNL     1      27.615  -1.198  52.912  1.00  0.00     0.162 A 
HETATM   19  N1  UNL     1      28.730  -1.378  53.547  1.00  0.00    -0.222 NA
HETATM   20  C7  UNL     1      28.736  -2.771  53.272  1.00  0.00     0.237 A 
HETATM   21  N2  UNL     1      27.619  -2.602  52.632  1.00  0.00    -0.222 NA
ENDBRANCH   3  18
TORSDOF 7
ENDMDL
MODEL 8
REMARK VINA RESULT:      -6.0      5.670      8.145
REMARK  7 active torsions:
REMARK  status: ('A' for Active; 'I' for Inactive)
REMARK    1  A    between atoms: C2_2  and  C3_3 
REMARK    2  A    between atoms: C5_5  and  C6_6 
REMARK    3  A    between atoms: C10_12  and  O1_13 
REMARK    4  A    between atoms: O1_13  and  C11_14 
REMARK    5  A    between atoms: C11_14  and  C12_15 
REMARK    6  A    between atoms: C13_16  and  C14_17 
REMARK    7  A    between atoms: C15_18  and  C16_19 
ROOT
HETATM    1  C3  UNL     1      27.314   5.812  48.466  1.00  0.00    -0.024 A 
HETATM    2  C4  UNL     1      28.615   5.318  48.490  1.00  0.00     0.025 A 
HETATM    3  C5  UNL     1      29.591   5.979  47.798  1.00  0.00     0.012 A 
HETATM    4  C8  UNL     1      29.314   7.112  47.085  1.00  0.00     0.018 A 
HETATM    5  C9  UNL     1      28.038   7.640  47.030  1.00  0.00     0.038 A 
HETATM    6  C10 UNL     1      27.053   6.949  47.745  1.00  0.00     0.075 A 
ENDROOT
BRANCH   6   7
HETATM    7  O1  UNL     1      25.713   7.366  47.786  1.00  0.00    -0.347 OA
BRANCH   7   8
HETATM    8  C11 UNL     1      25.423   8.696  48.220  1.00  0.00     0.203 C 
BRANCH   8   9
HETATM    9  C12 UNL     1      25.496   8.821  49.675  1.00  0.00    -0.000 C 
HETATM   10  C13 UNL     1      26.535   9.192  50.387  1.00  0.00    -0.002 C 
BRANCH  10  11
HETATM   11  C14 UNL     1      27.872   9.576  49.979  1.00  0.00    -0.003 C 
HETATM   12  C15 UNL     1      28.338  10.514  49.177  1.00  0.00    -0.007 C 
BRANCH  12  13
HETATM   13  C16 UNL     1      29.781  10.702  48.924  1.00  0.00     0.101 C 
HETATM   14  C17 UNL     1      30.032  10.814  47.430  1.00  0.00     0.031 C 
HETATM   15 CL1  UNL     1      30.716   9.277  49.493  1.00  0.00    -0.121 Cl
ENDBRANCH  12  13
ENDBRANCH  10  11
ENDBRANCH   8   9
ENDBRANCH   7   8
ENDBRANCH   6   7
BRANCH   1  16
HETATM   16  C2  UNL     1      26.262   5.081  49.226  1.00  0.00     0.037 C 
HETATM   17  C1  UNL     1      26.653   3.635  49.456  1.00  0.00     0.010 C 
ENDBRANCH   1  16
BRANCH   3  18
HETATM   18  C6  UNL     1      30.984   5.551  47.760  1.00  0.00     0.162 A 
HETATM   19  N1  UNL     1      32.041   5.605  47.011  1.00  0.00    -0.222 NA
HETATM   20  C7  UNL     1      32.817   4.864  47.941  1.00  0.00     0.237 A 
HETATM   21  N2  UNL     1      31.763   4.802  48.699  1.00  0.00    -0.222 NA
ENDBRANCH   3  18
TORSDOF 7
ENDMDL
MODEL 9
REMARK VINA RESULT:      -6.0      2.204      3.565
REMARK  7 active torsions:
REMARK  status: ('A' for Active; 'I' for Inactive)
REMARK    1  A    between atoms: C2_2  and  C3_3 
REMARK    2  A    between atoms: C5_5  and  C6_6 
REMARK    3  A    between atoms: C10_12  and  O1_13 
REMARK    4  A    between atoms: O1_13  and  C11_14 
REMARK    5  A    between atoms: C11_14  and  C12_15 
REMARK    6  A    between atoms: C13_16  and  C14_17 
REMARK    7  A    between atoms: C15_18  and  C16_19 
ROOT
HETATM    1  C3  UNL     1      25.397   1.841  51.585  1.00  0.00    -0.024 A 
HETATM    2  C4  UNL     1      26.680   1.435  51.942  1.00  0.00     0.025 A 
HETATM    3  C5  UNL     1      26.831   0.355  52.766  1.00  0.00     0.012 A 
HETATM    4  C8  UNL     1      25.750  -0.331  53.244  1.00  0.00     0.018 A 
HETATM    5  C9  UNL     1      24.458   0.034  52.919  1.00  0.00     0.038 A 
HETATM    6  C10 UNL     1      24.324   1.142  52.074  1.00  0.00     0.075 A 
ENDROOT
BRANCH   6   7
HETATM    7  O1  UNL     1      23.076   1.630  51.655  1.00  0.00    -0.347 OA
BRANCH   7   8
HETATM    8  C11 UNL     1      21.908   0.857  51.940  1.00  0.00     0.203 C 
BRANCH   8   9
HETATM    9  C12 UNL     1      20.905   1.636  52.664  1.00  0.00    -0.000 C 
HETATM   10  C13 UNL     1      20.659   2.920  52.544  1.00  0.00    -0.002 C 
BRANCH  10  11
HETATM   11  C14 UNL     1      21.273   3.924  51.696  1.00  0.00    -0.003 C 
HETATM   12  C15 UNL     1      22.049   4.962  51.941  1.00  0.00    -0.007 C 
BRANCH  12  13
HETATM   13  C16 UNL     1      22.553   5.850  50.873  1.00  0.00     0.101 C 
HETATM   14  C17 UNL     1      21.661   7.074  50.757  1.00  0.00     0.031 C 
HETATM   15 CL1  UNL     1      22.495   5.022  49.280  1.00  0.00    -0.121 Cl
ENDBRANCH  12  13
ENDBRANCH  10  11
ENDBRANCH   8   9
ENDBRANCH   7   8
ENDBRANCH   6   7
BRANCH   1  16
HETATM   16  C2  UNL     1      25.249   3.020  50.685  1.00  0.00     0.037 C 
HETATM   17  C1  UNL     1      26.448   3.168  49.771  1.00  0.00     0.010 C 
ENDBRANCH   1  16
BRANCH   3  18
HETATM   18  C6  UNL     1      28.127  -0.156  53.197  1.00  0.00     0.162 A 
HETATM   19  N1  UNL     1      29.313   0.244  53.533  1.00  0.00    -0.222 NA
HETATM   20  C7  UNL     1      29.766  -1.082  53.761  1.00  0.00     0.237 A 
HETATM   21  N2  UNL     1      28.581  -1.494  53.425  1.00  0.00    -0.222 NA
ENDBRANCH   3  18
TORSDOF 7
ENDMDL
