MODEL 1
REMARK VINA RESULT:      -9.0      0.000      0.000
REMARK  3 active torsions:
REMARK  status: ('A' for Active; 'I' for Inactive)
REMARK    1  A    between atoms: C2_2  and  C3_3 
REMARK    2  A    between atoms: C3_3  and  C4_4 
REMARK    3  A    between atoms: C5_5  and  C6_6 
ROOT
HETATM    1  C6  UNL     1      24.696   1.058  51.976  1.00  0.00     0.145 C 
HETATM    2  C7  UNL     1      24.726   2.544  51.903  1.00  0.00     0.025 C 
HETATM    3  C8  UNL     1      24.829   3.033  53.332  1.00  0.00     0.067 C 
HETATM    4  N1  UNL     1      24.698   3.333  50.858  1.00  0.00    -0.278 NA
HETATM    5  C9  UNL     1      24.721   4.724  50.804  1.00  0.00     0.266 C 
HETATM    6  N2  UNL     1      23.706   5.199  49.801  1.00  0.00    -0.391 N 
HETATM    7  C10 UNL     1      22.371   4.629  50.074  1.00  0.00     0.070 A 
HETATM    8  C11 UNL     1      22.140   5.374  51.176  1.00  0.00    -0.010 A 
HETATM    9  C12 UNL     1      21.498   4.169  51.286  1.00  0.00     0.080 A 
HETATM   10  C13 UNL     1      21.644   3.315  50.241  1.00  0.00     0.109 A 
HETATM   11  C14 UNL     1      21.894   2.608  49.123  1.00  0.00     0.035 A 
HETATM   12 CL1  UNL     1      21.482   1.063  48.472  1.00  0.00    -0.090 Cl
HETATM   13  C15 UNL     1      22.545   3.814  49.012  1.00  0.00     0.102 A 
HETATM   14  O1  UNL     1      20.919   2.204  50.989  1.00  0.00    -0.369 OA
HETATM   15  C16 UNL     1      22.075   1.635  51.700  1.00  0.00     0.208 C 
HETATM   16  C17 UNL     1      22.089   0.583  52.592  1.00  0.00    -0.024 A 
HETATM   17  C18 UNL     1      21.178  -0.145  53.289  1.00  0.00     0.052 A 
HETATM   18  C19 UNL     1      21.622  -1.110  54.158  1.00  0.00     0.117 A 
HETATM   19  F1  UNL     1      20.629  -1.766  54.792  1.00  0.00    -0.206 F 
HETATM   20  C20 UNL     1      22.974  -1.317  54.300  1.00  0.00     0.043 A 
HETATM   21  C21 UNL     1      23.831  -0.537  53.555  1.00  0.00     0.012 A 
HETATM   22  C22 UNL     1      23.523   0.477  52.637  1.00  0.00    -0.028 A 
HETATM   23  H12 UNL     1      24.085   5.868  49.055  1.00  0.00     0.156 HD
ENDROOT
BRANCH   1  24
HETATM   24  C5  UNL     1      25.955   0.653  52.655  1.00  0.00    -0.091 C 
HETATM   25  C4  UNL     1      26.985   0.321  53.186  1.00  0.00    -0.102 C 
BRANCH  25  26
HETATM   26  C3  UNL     1      28.227  -0.076  53.853  1.00  0.00     0.120 C 
BRANCH  26  27
HETATM   27  C2  UNL     1      28.971   1.160  54.213  1.00  0.00    -0.025 C 
HETATM   28  C1  UNL     1      28.886   2.401  53.776  1.00  0.00     0.008 C 
ENDBRANCH  26  27
ENDBRANCH  25  26
ENDBRANCH   1  24
TORSDOF 3
ENDMDL
MODEL 2
REMARK VINA RESULT:      -8.5      0.834      1.056
REMARK  3 active torsions:
REMARK  status: ('A' for Active; 'I' for Inactive)
REMARK    1  A    between atoms: C2_2  and  C3_3 
REMARK    2  A    between atoms: C3_3  and  C4_4 
REMARK    3  A    between atoms: C5_5  and  C6_6 
ROOT
HETATM    1  C6  UNL     1      24.440   1.493  51.980  1.00  0.00     0.145 C 
HETATM    2  C7  UNL     1      24.399   2.978  51.893  1.00  0.00     0.025 C 
HETATM    3  C8  UNL     1      24.203   3.476  53.309  1.00  0.00     0.067 C 
HETATM    4  N1  UNL     1      24.526   3.761  50.852  1.00  0.00    -0.278 NA
HETATM    5  C9  UNL     1      24.481   5.151  50.784  1.00  0.00     0.266 C 
HETATM    6  N2  UNL     1      23.649   5.563  49.600  1.00  0.00    -0.391 N 
HETATM    7  C10 UNL     1      22.321   4.918  49.624  1.00  0.00     0.070 A 
HETATM    8  C11 UNL     1      21.844   5.652  50.652  1.00  0.00    -0.010 A 
HETATM    9  C12 UNL     1      21.261   4.412  50.656  1.00  0.00     0.080 A 
HETATM   10  C13 UNL     1      21.650   3.566  49.669  1.00  0.00     0.109 A 
HETATM   11  C14 UNL     1      22.146   2.870  48.628  1.00  0.00     0.035 A 
HETATM   12 CL1  UNL     1      21.951   1.302  47.932  1.00  0.00    -0.090 Cl
HETATM   13  C15 UNL     1      22.737   4.112  48.626  1.00  0.00     0.102 A 
HETATM   14  O1  UNL     1      20.859   2.417  50.282  1.00  0.00    -0.369 OA
HETATM   15  C16 UNL     1      21.890   1.917  51.207  1.00  0.00     0.208 C 
HETATM   16  C17 UNL     1      21.794   0.870  52.100  1.00  0.00    -0.024 A 
HETATM   17  C18 UNL     1      20.810   0.093  52.622  1.00  0.00     0.052 A 
HETATM   18  C19 UNL     1      21.135  -0.843  53.572  1.00  0.00     0.117 A 
HETATM   19  F1  UNL     1      20.078  -1.552  54.016  1.00  0.00    -0.206 F 
HETATM   20  C20 UNL     1      22.444  -0.970  53.969  1.00  0.00     0.043 A 
HETATM   21  C21 UNL     1      23.382  -0.144  53.389  1.00  0.00     0.012 A 
HETATM   22  C22 UNL     1      23.197   0.847  52.416  1.00  0.00    -0.028 A 
HETATM   23  H12 UNL     1      24.124   6.251  48.930  1.00  0.00     0.156 HD
ENDROOT
BRANCH   1  24
HETATM   24  C5  UNL     1      25.569   1.163  52.889  1.00  0.00    -0.091 C 
HETATM   25  C4  UNL     1      26.473   0.878  53.635  1.00  0.00    -0.102 C 
BRANCH  25  26
HETATM   26  C3  UNL     1      27.584   0.551  54.530  1.00  0.00     0.120 C 
BRANCH  26  27
HETATM   27  C2  UNL     1      28.503  -0.366  53.804  1.00  0.00    -0.025 C 
HETATM   28  C1  UNL     1      28.282  -1.430  53.058  1.00  0.00     0.008 C 
ENDBRANCH  26  27
ENDBRANCH  25  26
ENDBRANCH   1  24
TORSDOF 3
ENDMDL
MODEL 3
REMARK VINA RESULT:      -8.2      2.653      4.408
REMARK  3 active torsions:
REMARK  status: ('A' for Active; 'I' for Inactive)
REMARK    1  A    between atoms: C2_2  and  C3_3 
REMARK    2  A    between atoms: C3_3  and  C4_4 
REMARK    3  A    between atoms: C5_5  and  C6_6 
ROOT
HETATM    1  C6  UNL     1      25.266   3.820  49.356  1.00  0.00     0.145 C 
HETATM    2  C7  UNL     1      24.319   4.966  49.314  1.00  0.00     0.025 C 
HETATM    3  C8  UNL     1      24.844   5.980  50.309  1.00  0.00     0.067 C 
HETATM    4  N1  UNL     1      23.250   5.145  48.580  1.00  0.00    -0.278 NA
HETATM    5  C9  UNL     1      22.368   6.222  48.556  1.00  0.00     0.266 C 
HETATM    6  N2  UNL     1      20.955   5.707  48.512  1.00  0.00    -0.391 N 
HETATM    7  C10 UNL     1      20.699   4.744  49.603  1.00  0.00     0.070 A 
HETATM    8  C11 UNL     1      20.699   5.668  50.588  1.00  0.00    -0.010 A 
HETATM    9  C12 UNL     1      21.143   4.468  51.076  1.00  0.00     0.080 A 
HETATM   10  C13 UNL     1      21.194   3.443  50.188  1.00  0.00     0.109 A 
HETATM   11  C14 UNL     1      21.174   2.550  49.180  1.00  0.00     0.035 A 
HETATM   12 CL1  UNL     1      21.550   0.882  48.945  1.00  0.00    -0.090 Cl
HETATM   13  C15 UNL     1      20.733   3.755  48.685  1.00  0.00     0.102 A 
HETATM   14  O1  UNL     1      21.876   2.537  51.205  1.00  0.00    -0.369 OA
HETATM   15  C16 UNL     1      23.271   2.926  50.936  1.00  0.00     0.208 C 
HETATM   16  C17 UNL     1      24.414   2.473  51.561  1.00  0.00    -0.024 A 
HETATM   17  C18 UNL     1      24.725   1.759  52.674  1.00  0.00     0.052 A 
HETATM   18  C19 UNL     1      26.046   1.567  52.992  1.00  0.00     0.117 A 
HETATM   19  F1  UNL     1      26.232   0.845  54.116  1.00  0.00    -0.206 F 
HETATM   20  C20 UNL     1      27.018   2.099  52.180  1.00  0.00     0.043 A 
HETATM   21  C21 UNL     1      26.618   2.809  51.069  1.00  0.00     0.012 A 
HETATM   22  C22 UNL     1      25.319   3.083  50.623  1.00  0.00    -0.028 A 
HETATM   23  H12 UNL     1      20.352   6.105  47.722  1.00  0.00     0.156 HD
ENDROOT
BRANCH   1  24
HETATM   24  C5  UNL     1      26.599   4.372  48.996  1.00  0.00    -0.091 C 
HETATM   25  C4  UNL     1      27.673   4.822  48.685  1.00  0.00    -0.102 C 
BRANCH  25  26
HETATM   26  C3  UNL     1      28.984   5.368  48.330  1.00  0.00     0.120 C 
BRANCH  26  27
HETATM   27  C2  UNL     1      28.808   6.806  47.995  1.00  0.00    -0.025 C 
HETATM   28  C1  UNL     1      27.789   7.480  47.499  1.00  0.00     0.008 C 
ENDBRANCH  26  27
ENDBRANCH  25  26
ENDBRANCH   1  24
TORSDOF 3
ENDMDL
MODEL 4
REMARK VINA RESULT:      -8.0      3.372      5.085
REMARK  3 active torsions:
REMARK  status: ('A' for Active; 'I' for Inactive)
REMARK    1  A    between atoms: C2_2  and  C3_3 
REMARK    2  A    between atoms: C3_3  and  C4_4 
REMARK    3  A    between atoms: C5_5  and  C6_6 
ROOT
HETATM    1  C6  UNL     1      22.904   2.805  51.552  1.00  0.00     0.145 C 
HETATM    2  C7  UNL     1      21.664   2.408  50.832  1.00  0.00     0.025 C 
HETATM    3  C8  UNL     1      22.034   1.205  49.990  1.00  0.00     0.067 C 
HETATM    4  N1  UNL     1      20.462   2.925  50.883  1.00  0.00    -0.278 NA
HETATM    5  C9  UNL     1      19.311   2.546  50.198  1.00  0.00     0.266 C 
HETATM    6  N2  UNL     1      18.610   3.776  49.687  1.00  0.00    -0.391 N 
HETATM    7  C10 UNL     1      19.525   4.629  48.901  1.00  0.00     0.070 A 
HETATM    8  C11 UNL     1      19.586   3.799  47.837  1.00  0.00    -0.010 A 
HETATM    9  C12 UNL     1      20.762   4.492  47.955  1.00  0.00     0.080 A 
HETATM   10  C13 UNL     1      20.838   5.369  48.988  1.00  0.00     0.109 A 
HETATM   11  C14 UNL     1      20.734   6.187  50.053  1.00  0.00     0.035 A 
HETATM   12 CL1  UNL     1      21.711   7.356  50.865  1.00  0.00    -0.090 Cl
HETATM   13  C15 UNL     1      19.555   5.487  49.941  1.00  0.00     0.102 A 
HETATM   14  O1  UNL     1      22.308   5.647  48.702  1.00  0.00    -0.369 OA
HETATM   15  C16 UNL     1      22.891   4.555  49.499  1.00  0.00     0.208 C 
HETATM   16  C17 UNL     1      24.224   4.229  49.646  1.00  0.00    -0.024 A 
HETATM   17  C18 UNL     1      25.400   4.554  49.050  1.00  0.00     0.052 A 
HETATM   18  C19 UNL     1      26.551   3.936  49.471  1.00  0.00     0.117 A 
HETATM   19  F1  UNL     1      27.655   4.337  48.808  1.00  0.00    -0.206 F 
HETATM   20  C20 UNL     1      26.485   3.007  50.482  1.00  0.00     0.043 A 
HETATM   21  C21 UNL     1      25.252   2.736  51.033  1.00  0.00     0.012 A 
HETATM   22  C22 UNL     1      24.004   3.285  50.709  1.00  0.00    -0.028 A 
HETATM   23  H12 UNL     1      17.576   3.852  49.954  1.00  0.00     0.156 HD
ENDROOT
BRANCH   1  24
HETATM   24  C5  UNL     1      23.314   1.621  52.352  1.00  0.00    -0.091 C 
HETATM   25  C4  UNL     1      23.638   0.670  53.019  1.00  0.00    -0.102 C 
BRANCH  25  26
HETATM   26  C3  UNL     1      24.039  -0.496  53.809  1.00  0.00     0.120 C 
BRANCH  26  27
HETATM   27  C2  UNL     1      25.510  -0.660  53.672  1.00  0.00    -0.025 C 
HETATM   28  C1  UNL     1      26.318  -0.564  52.634  1.00  0.00     0.008 C 
ENDBRANCH  26  27
ENDBRANCH  25  26
ENDBRANCH   1  24
TORSDOF 3
ENDMDL
MODEL 5
REMARK VINA RESULT:      -8.0      7.843      9.763
REMARK  3 active torsions:
REMARK  status: ('A' for Active; 'I' for Inactive)
REMARK    1  A    between atoms: C2_2  and  C3_3 
REMARK    2  A    between atoms: C3_3  and  C4_4 
REMARK    3  A    between atoms: C5_5  and  C6_6 
ROOT
HETATM    1  C6  UNL     1      30.223   6.859  47.245  1.00  0.00     0.145 C 
HETATM    2  C7  UNL     1      30.979   8.028  47.768  1.00  0.00     0.025 C 
HETATM    3  C8  UNL     1      31.297   7.711  49.214  1.00  0.00     0.067 C 
HETATM    4  N1  UNL     1      31.353   9.126  47.160  1.00  0.00    -0.278 NA
HETATM    5  C9  UNL     1      32.057  10.217  47.663  1.00  0.00     0.266 C 
HETATM    6  N2  UNL     1      31.415  11.488  47.179  1.00  0.00    -0.391 N 
HETATM    7  C10 UNL     1      29.970  11.512  47.483  1.00  0.00     0.070 A 
HETATM    8  C11 UNL     1      30.125  11.689  48.813  1.00  0.00    -0.010 A 
HETATM    9  C12 UNL     1      28.973  10.990  48.568  1.00  0.00     0.080 A 
HETATM   10  C13 UNL     1      28.690  10.741  47.264  1.00  0.00     0.109 A 
HETATM   11  C14 UNL     1      28.570  10.592  45.931  1.00  0.00     0.035 A 
HETATM   12 CL1  UNL     1      27.458   9.875  44.822  1.00  0.00    -0.090 Cl
HETATM   13  C15 UNL     1      29.731  11.288  46.174  1.00  0.00     0.102 A 
HETATM   14  O1  UNL     1      27.506   9.861  47.642  1.00  0.00    -0.369 OA
HETATM   15  C16 UNL     1      28.227   8.587  47.798  1.00  0.00     0.208 C 
HETATM   16  C17 UNL     1      27.713   7.361  48.168  1.00  0.00    -0.024 A 
HETATM   17  C18 UNL     1      26.556   6.883  48.695  1.00  0.00     0.052 A 
HETATM   18  C19 UNL     1      26.460   5.546  48.986  1.00  0.00     0.117 A 
HETATM   19  F1  UNL     1      25.268   5.188  49.503  1.00  0.00    -0.206 F 
HETATM   20  C20 UNL     1      27.534   4.725  48.737  1.00  0.00     0.043 A 
HETATM   21  C21 UNL     1      28.671   5.289  48.201  1.00  0.00     0.012 A 
HETATM   22  C22 UNL     1      28.910   6.626  47.855  1.00  0.00    -0.028 A 
HETATM   23  H12 UNL     1      32.081  12.178  46.701  1.00  0.00     0.156 HD
ENDROOT
BRANCH   1  24
HETATM   24  C5  UNL     1      31.114   5.681  47.415  1.00  0.00    -0.091 C 
HETATM   25  C4  UNL     1      31.851   4.735  47.539  1.00  0.00    -0.102 C 
BRANCH  25  26
HETATM   26  C3  UNL     1      32.731   3.577  47.706  1.00  0.00     0.120 C 
BRANCH  26  27
HETATM   27  C2  UNL     1      32.280   2.517  46.766  1.00  0.00    -0.025 C 
HETATM   28  C1  UNL     1      32.357   1.202  46.814  1.00  0.00     0.008 C 
ENDBRANCH  26  27
ENDBRANCH  25  26
ENDBRANCH   1  24
TORSDOF 3
ENDMDL
MODEL 6
REMARK VINA RESULT:      -7.7      8.874     11.615
REMARK  3 active torsions:
REMARK  status: ('A' for Active; 'I' for Inactive)
REMARK    1  A    between atoms: C2_2  and  C3_3 
REMARK    2  A    between atoms: C3_3  and  C4_4 
REMARK    3  A    between atoms: C5_5  and  C6_6 
ROOT
HETATM    1  C6  UNL     1      29.947   6.486  47.533  1.00  0.00     0.145 C 
HETATM    2  C7  UNL     1      30.990   5.482  47.875  1.00  0.00     0.025 C 
HETATM    3  C8  UNL     1      31.005   5.390  49.386  1.00  0.00     0.067 C 
HETATM    4  N1  UNL     1      31.757   4.768  47.089  1.00  0.00    -0.278 NA
HETATM    5  C9  UNL     1      32.734   3.835  47.423  1.00  0.00     0.266 C 
HETATM    6  N2  UNL     1      33.946   4.054  46.560  1.00  0.00    -0.391 N 
HETATM    7  C10 UNL     1      34.406   5.456  46.623  1.00  0.00     0.070 A 
HETATM    8  C11 UNL     1      34.890   5.372  47.881  1.00  0.00    -0.010 A 
HETATM    9  C12 UNL     1      34.457   6.648  47.634  1.00  0.00     0.080 A 
HETATM   10  C13 UNL     1      33.944   6.876  46.398  1.00  0.00     0.109 A 
HETATM   11  C14 UNL     1      33.476   6.919  45.136  1.00  0.00     0.035 A 
HETATM   12 CL1  UNL     1      32.784   8.088  44.070  1.00  0.00    -0.090 Cl
HETATM   13  C15 UNL     1      33.904   5.636  45.384  1.00  0.00     0.102 A 
HETATM   14  O1  UNL     1      33.518   8.286  46.786  1.00  0.00    -0.369 OA
HETATM   15  C16 UNL     1      32.196   7.963  47.347  1.00  0.00     0.208 C 
HETATM   16  C17 UNL     1      31.281   8.827  47.913  1.00  0.00    -0.024 A 
HETATM   17  C18 UNL     1      31.262  10.111  48.353  1.00  0.00     0.052 A 
HETATM   18  C19 UNL     1      30.118  10.599  48.933  1.00  0.00     0.117 A 
HETATM   19  F1  UNL     1      30.218  11.884  49.330  1.00  0.00    -0.206 F 
HETATM   20  C20 UNL     1      29.022   9.778  49.054  1.00  0.00     0.043 A 
HETATM   21  C21 UNL     1      29.123   8.488  48.582  1.00  0.00     0.012 A 
HETATM   22  C22 UNL     1      30.217   7.859  47.971  1.00  0.00    -0.028 A 
HETATM   23  H12 UNL     1      34.296   3.185  46.041  1.00  0.00     0.156 HD
ENDROOT
BRANCH   1  24
HETATM   24  C5  UNL     1      28.676   5.974  48.111  1.00  0.00    -0.091 C 
HETATM   25  C4  UNL     1      27.635   5.569  48.564  1.00  0.00    -0.102 C 
BRANCH  25  26
HETATM   26  C3  UNL     1      26.383   5.064  49.131  1.00  0.00     0.120 C 
BRANCH  26  27
HETATM   27  C2  UNL     1      26.585   3.636  49.492  1.00  0.00    -0.025 C 
HETATM   28  C1  UNL     1      26.492   2.993  50.639  1.00  0.00     0.008 C 
ENDBRANCH  26  27
ENDBRANCH  25  26
ENDBRANCH   1  24
TORSDOF 3
ENDMDL
MODEL 7
REMARK VINA RESULT:      -7.1      9.844     12.087
REMARK  3 active torsions:
REMARK  status: ('A' for Active; 'I' for Inactive)
REMARK    1  A    between atoms: C2_2  and  C3_3 
REMARK    2  A    between atoms: C3_3  and  C4_4 
REMARK    3  A    between atoms: C5_5  and  C6_6 
ROOT
HETATM    1  C6  UNL     1      32.042   6.607  45.150  1.00  0.00     0.145 C 
HETATM    2  C7  UNL     1      31.894   8.030  45.560  1.00  0.00     0.025 C 
HETATM    3  C8  UNL     1      33.296   8.600  45.612  1.00  0.00     0.067 C 
HETATM    4  N1  UNL     1      30.812   8.721  45.815  1.00  0.00    -0.278 NA
HETATM    5  C9  UNL     1      30.688  10.052  46.204  1.00  0.00     0.266 C 
HETATM    6  N2  UNL     1      29.673  10.154  47.309  1.00  0.00    -0.391 N 
HETATM    7  C10 UNL     1      29.989   9.230  48.418  1.00  0.00     0.070 A 
HETATM    8  C11 UNL     1      31.055   9.929  48.863  1.00  0.00    -0.010 A 
HETATM    9  C12 UNL     1      31.233   8.596  49.121  1.00  0.00     0.080 A 
HETATM   10  C13 UNL     1      30.231   7.771  48.725  1.00  0.00     0.109 A 
HETATM   11  C14 UNL     1      29.147   7.112  48.273  1.00  0.00     0.035 A 
HETATM   12 CL1  UNL     1      28.579   5.483  48.208  1.00  0.00    -0.090 Cl
HETATM   13  C15 UNL     1      28.968   8.449  48.007  1.00  0.00     0.102 A 
HETATM   14  O1  UNL     1      31.041   6.535  49.093  1.00  0.00    -0.369 OA
HETATM   15  C16 UNL     1      31.768   6.370  47.823  1.00  0.00     0.208 C 
HETATM   16  C17 UNL     1      32.711   5.416  47.503  1.00  0.00    -0.024 A 
HETATM   17  C18 UNL     1      33.454   4.489  48.161  1.00  0.00     0.052 A 
HETATM   18  C19 UNL     1      34.365   3.743  47.455  1.00  0.00     0.117 A 
HETATM   19  F1  UNL     1      35.042   2.857  48.213  1.00  0.00    -0.206 F 
HETATM   20  C20 UNL     1      34.502   3.953  46.104  1.00  0.00     0.043 A 
HETATM   21  C21 UNL     1      33.710   4.912  45.512  1.00  0.00     0.012 A 
HETATM   22  C22 UNL     1      32.745   5.740  46.102  1.00  0.00    -0.028 A 
HETATM   23  H12 UNL     1      28.890  10.866  47.142  1.00  0.00     0.156 HD
ENDROOT
BRANCH   1  24
HETATM   24  C5  UNL     1      32.727   6.627  43.830  1.00  0.00    -0.091 C 
HETATM   25  C4  UNL     1      33.263   6.639  42.750  1.00  0.00    -0.102 C 
BRANCH  25  26
HETATM   26  C3  UNL     1      33.934   6.661  41.449  1.00  0.00     0.120 C 
BRANCH  26  27
HETATM   27  C2  UNL     1      34.455   5.295  41.178  1.00  0.00    -0.025 C 
HETATM   28  C1  UNL     1      33.904   4.102  41.282  1.00  0.00     0.008 C 
ENDBRANCH  26  27
ENDBRANCH  25  26
ENDBRANCH   1  24
TORSDOF 3
ENDMDL
MODEL 8
REMARK VINA RESULT:      -7.0      3.752      6.214
REMARK  3 active torsions:
REMARK  status: ('A' for Active; 'I' for Inactive)
REMARK    1  A    between atoms: C2_2  and  C3_3 
REMARK    2  A    between atoms: C3_3  and  C4_4 
REMARK    3  A    between atoms: C5_5  and  C6_6 
ROOT
HETATM    1  C6  UNL     1      22.681   4.702  49.461  1.00  0.00     0.145 C 
HETATM    2  C7  UNL     1      23.125   3.573  50.324  1.00  0.00     0.025 C 
HETATM    3  C8  UNL     1      24.140   2.798  49.511  1.00  0.00     0.067 C 
HETATM    4  N1  UNL     1      22.776   3.266  51.547  1.00  0.00    -0.278 NA
HETATM    5  C9  UNL     1      23.195   2.202  52.342  1.00  0.00     0.266 C 
HETATM    6  N2  UNL     1      22.004   1.602  53.037  1.00  0.00    -0.391 N 
HETATM    7  C10 UNL     1      20.940   1.250  52.074  1.00  0.00     0.070 A 
HETATM    8  C11 UNL     1      21.596   0.197  51.542  1.00  0.00    -0.010 A 
HETATM    9  C12 UNL     1      20.784   0.766  50.596  1.00  0.00     0.080 A 
HETATM   10  C13 UNL     1      20.060   1.841  50.998  1.00  0.00     0.109 A 
HETATM   11  C14 UNL     1      19.421   2.880  51.570  1.00  0.00     0.035 A 
HETATM   12 CL1  UNL     1      18.265   4.077  51.110  1.00  0.00    -0.090 Cl
HETATM   13  C15 UNL     1      20.241   2.315  52.519  1.00  0.00     0.102 A 
HETATM   14  O1  UNL     1      19.561   2.092  49.581  1.00  0.00    -0.369 OA
HETATM   15  C16 UNL     1      20.673   2.934  49.110  1.00  0.00     0.208 C 
HETATM   16  C17 UNL     1      20.847   3.489  47.859  1.00  0.00    -0.024 A 
HETATM   17  C18 UNL     1      20.295   3.356  46.625  1.00  0.00     0.052 A 
HETATM   18  C19 UNL     1      20.817   4.080  45.582  1.00  0.00     0.117 A 
HETATM   19  F1  UNL     1      20.190   3.866  44.407  1.00  0.00    -0.206 F 
HETATM   20  C20 UNL     1      21.880   4.919  45.811  1.00  0.00     0.043 A 
HETATM   21  C21 UNL     1      22.380   4.997  47.093  1.00  0.00     0.012 A 
HETATM   22  C22 UNL     1      21.952   4.325  48.245  1.00  0.00    -0.028 A 
HETATM   23  H12 UNL     1      22.097   1.511  54.100  1.00  0.00     0.156 HD
ENDROOT
BRANCH   1  24
HETATM   24  C5  UNL     1      23.906   5.480  49.137  1.00  0.00    -0.091 C 
HETATM   25  C4  UNL     1      24.905   6.109  48.895  1.00  0.00    -0.102 C 
BRANCH  25  26
HETATM   26  C3  UNL     1      26.113   6.874  48.577  1.00  0.00     0.120 C 
BRANCH  26  27
HETATM   27  C2  UNL     1      27.245   5.917  48.462  1.00  0.00    -0.025 C 
HETATM   28  C1  UNL     1      27.382   4.660  48.835  1.00  0.00     0.008 C 
ENDBRANCH  26  27
ENDBRANCH  25  26
ENDBRANCH   1  24
TORSDOF 3
ENDMDL
MODEL 9
REMARK VINA RESULT:      -6.9      8.349     11.277
REMARK  3 active torsions:
REMARK  status: ('A' for Active; 'I' for Inactive)
REMARK    1  A    between atoms: C2_2  and  C3_3 
REMARK    2  A    between atoms: C3_3  and  C4_4 
REMARK    3  A    between atoms: C5_5  and  C6_6 
ROOT
HETATM    1  C6  UNL     1      29.955   8.790  47.495  1.00  0.00     0.145 C 
HETATM    2  C7  UNL     1      30.983   8.380  46.502  1.00  0.00     0.025 C 
HETATM    3  C8  UNL     1      30.263   8.263  45.175  1.00  0.00     0.067 C 
HETATM    4  N1  UNL     1      32.266   8.169  46.660  1.00  0.00    -0.278 NA
HETATM    5  C9  UNL     1      33.217   7.779  45.721  1.00  0.00     0.266 C 
HETATM    6  N2  UNL     1      34.100   6.719  46.320  1.00  0.00    -0.391 N 
HETATM    7  C10 UNL     1      33.304   5.603  46.870  1.00  0.00     0.070 A 
HETATM    8  C11 UNL     1      32.937   5.107  45.669  1.00  0.00    -0.010 A 
HETATM    9  C12 UNL     1      31.963   4.849  46.596  1.00  0.00     0.080 A 
HETATM   10  C13 UNL     1      32.203   5.293  47.856  1.00  0.00     0.109 A 
HETATM   11  C14 UNL     1      32.609   5.796  49.037  1.00  0.00     0.035 A 
HETATM   12 CL1  UNL     1      32.014   5.894  50.655  1.00  0.00    -0.090 Cl
HETATM   13  C15 UNL     1      33.586   6.062  48.107  1.00  0.00     0.102 A 
HETATM   14  O1  UNL     1      30.804   4.896  48.310  1.00  0.00    -0.369 OA
HETATM   15  C16 UNL     1      30.099   6.133  47.938  1.00  0.00     0.208 C 
HETATM   16  C17 UNL     1      28.755   6.417  48.068  1.00  0.00    -0.024 A 
HETATM   17  C18 UNL     1      27.614   5.731  48.337  1.00  0.00     0.052 A 
HETATM   18  C19 UNL     1      26.416   6.400  48.314  1.00  0.00     0.117 A 
HETATM   19  F1  UNL     1      25.354   5.618  48.595  1.00  0.00    -0.206 F 
HETATM   20  C20 UNL     1      26.401   7.743  48.023  1.00  0.00     0.043 A 
HETATM   21  C21 UNL     1      27.602   8.364  47.763  1.00  0.00     0.012 A 
HETATM   22  C22 UNL     1      28.891   7.813  47.752  1.00  0.00    -0.028 A 
HETATM   23  H12 UNL     1      35.151   6.917  46.259  1.00  0.00     0.156 HD
ENDROOT
BRANCH   1  24
HETATM   24  C5  UNL     1      29.398  10.079  47.005  1.00  0.00    -0.091 C 
HETATM   25  C4  UNL     1      28.928  11.114  46.602  1.00  0.00    -0.102 C 
BRANCH  25  26
HETATM   26  C3  UNL     1      28.377  12.382  46.120  1.00  0.00     0.120 C 
BRANCH  26  27
HETATM   27  C2  UNL     1      27.729  13.067  47.269  1.00  0.00    -0.025 C 
HETATM   28  C1  UNL     1      27.977  13.047  48.564  1.00  0.00     0.008 C 
ENDBRANCH  26  27
ENDBRANCH  25  26
ENDBRANCH   1  24
TORSDOF 3
ENDMDL
