MODEL 1
REMARK VINA RESULT:      -7.7      0.000      0.000
REMARK  7 active torsions:
REMARK  status: ('A' for Active; 'I' for Inactive)
REMARK    1  A    between atoms: C2_2  and  C3_3 
REMARK       I    between atoms: C3_3  and  N1_5 
REMARK    2  A    between atoms: N1_5  and  C4_6 
REMARK    3  A    between atoms: C15_20  and  O2_21 
REMARK    4  A    between atoms: C19_25  and  N5_26 
REMARK    5  A    between atoms: N5_26  and  C21_28 
REMARK    6  A    between atoms: C21_28  and  C22_29 
REMARK    7  A    between atoms: C22_29  and  N6_30 
ROOT
HETATM    1  C4  UNL     1      24.250   1.849  52.398  1.00  0.00     0.039 C 
HETATM    2  C5  UNL     1      23.778   3.002  51.960  1.00  0.00     0.046 C 
HETATM    3  C6  UNL     1      24.399   3.822  50.932  1.00  0.00     0.049 C 
HETATM    4  C7  UNL     1      23.714   4.929  50.341  1.00  0.00     0.182 C 
HETATM    5  N2  UNL     1      24.284   5.710  49.371  1.00  0.00    -0.158 NA
HETATM    6  N3  UNL     1      23.380   6.391  48.412  1.00  0.00    -0.303 N 
HETATM    7  C8  UNL     1      22.155   7.217  48.298  1.00  0.00     0.127 C 
HETATM    8  C9  UNL     1      21.922   7.909  49.639  1.00  0.00     0.002 C 
HETATM    9  C10 UNL     1      21.479   7.380  50.833  1.00  0.00     0.029 C 
HETATM   10  C11 UNL     1      21.412   5.879  50.564  1.00  0.00     0.058 C 
HETATM   11  N4  UNL     1      22.321   4.972  51.011  1.00  0.00    -0.227 NA
HETATM   12  C12 UNL     1      20.369   5.192  49.678  1.00  0.00     0.027 C 
HETATM   13  C13 UNL     1      20.031   5.766  48.458  1.00  0.00    -0.022 C 
HETATM   14  C14 UNL     1      20.967   6.659  47.660  1.00  0.00     0.058 C 
HETATM   15  C15 UNL     1      25.620   3.716  50.377  1.00  0.00     0.082 C 
HETATM   16  C17 UNL     1      26.667   2.726  50.670  1.00  0.00     0.036 C 
HETATM   17  C18 UNL     1      26.490   1.631  51.396  1.00  0.00     0.007 C 
HETATM   18  C19 UNL     1      25.384   0.982  52.128  1.00  0.00     0.152 C 
HETATM   19  H6  UNL     1      23.711   6.264  47.397  1.00  0.00     0.183 HD
ENDROOT
BRANCH  15  20
HETATM   20  O2  UNL     1      26.014   4.634  49.385  1.00  0.00    -0.355 OA
HETATM   21  C16 UNL     1      27.334   4.627  48.834  1.00  0.00     0.210 C 
ENDBRANCH  15  20
BRANCH   1  22
HETATM   22  N1  UNL     1      23.280   1.455  53.393  1.00  0.00    -0.325 N 
HETATM   23  C3  UNL     1      22.273   0.622  52.838  1.00  0.00     0.244 C 
HETATM   24  O1  UNL     1      22.164   0.234  51.666  1.00  0.00    -0.268 OA
HETATM   25  H4  UNL     1      23.183   1.674  54.428  1.00  0.00     0.169 HD
BRANCH  23  26
HETATM   26  C2  UNL     1      21.201   0.133  53.731  1.00  0.00     0.064 C 
HETATM   27  C1  UNL     1      21.254  -0.944  54.498  1.00  0.00     0.017 C 
ENDBRANCH  23  26
ENDBRANCH   1  22
BRANCH  18  28
HETATM   28  N5  UNL     1      25.915   0.424  53.323  1.00  0.00    -0.402 N 
HETATM   29  C20 UNL     1      26.075  -0.990  53.317  1.00  0.00     0.144 C 
BRANCH  28  30
HETATM   30  C21 UNL     1      26.986   1.137  53.944  1.00  0.00     0.147 C 
BRANCH  30  31
HETATM   31  C22 UNL     1      28.046   0.315  54.596  1.00  0.00     0.288 C 
BRANCH  31  32
HETATM   32  N6  UNL     1      29.364   0.447  54.014  1.00  0.00     0.080 N 
HETATM   33  C23 UNL     1      29.803  -0.905  53.694  1.00  0.00     0.306 C 
HETATM   34  H27 UNL     1      29.973   0.880  54.736  1.00  0.00     0.315 HD
ENDBRANCH  31  32
ENDBRANCH  30  31
ENDBRANCH  28  30
ENDBRANCH  18  28
TORSDOF 7
ENDMDL
MODEL 2
REMARK VINA RESULT:      -7.3      2.602      5.244
REMARK  7 active torsions:
REMARK  status: ('A' for Active; 'I' for Inactive)
REMARK    1  A    between atoms: C2_2  and  C3_3 
REMARK       I    between atoms: C3_3  and  N1_5 
REMARK    2  A    between atoms: N1_5  and  C4_6 
REMARK    3  A    between atoms: C15_20  and  O2_21 
REMARK    4  A    between atoms: C19_25  and  N5_26 
REMARK    5  A    between atoms: N5_26  and  C21_28 
REMARK    6  A    between atoms: C21_28  and  C22_29 
REMARK    7  A    between atoms: C22_29  and  N6_30 
ROOT
HETATM    1  C4  UNL     1      25.331   2.321  52.357  1.00  0.00     0.039 C 
HETATM    2  C5  UNL     1      24.148   2.128  51.802  1.00  0.00     0.046 C 
HETATM    3  C6  UNL     1      23.188   1.116  52.213  1.00  0.00     0.049 C 
HETATM    4  C7  UNL     1      21.842   1.121  51.732  1.00  0.00     0.182 C 
HETATM    5  N2  UNL     1      20.925   0.177  52.110  1.00  0.00    -0.158 NA
HETATM    6  N3  UNL     1      19.491   0.558  52.093  1.00  0.00    -0.303 N 
HETATM    7  C8  UNL     1      18.432   1.201  51.282  1.00  0.00     0.127 C 
HETATM    8  C9  UNL     1      18.856   1.147  49.816  1.00  0.00     0.002 C 
HETATM    9  C10 UNL     1      19.827   1.872  49.159  1.00  0.00     0.029 C 
HETATM   10  C11 UNL     1      20.514   2.658  50.273  1.00  0.00     0.058 C 
HETATM   11  N4  UNL     1      21.729   2.350  50.800  1.00  0.00    -0.227 NA
HETATM   12  C12 UNL     1      19.897   3.842  51.020  1.00  0.00     0.027 C 
HETATM   13  C13 UNL     1      18.570   3.770  51.430  1.00  0.00    -0.022 C 
HETATM   14  C14 UNL     1      17.852   2.464  51.726  1.00  0.00     0.058 C 
HETATM   15  C15 UNL     1      23.350   0.075  53.050  1.00  0.00     0.082 C 
HETATM   16  C17 UNL     1      24.563  -0.321  53.781  1.00  0.00     0.036 C 
HETATM   17  C18 UNL     1      25.654   0.423  53.895  1.00  0.00     0.007 C 
HETATM   18  C19 UNL     1      26.113   1.752  53.441  1.00  0.00     0.152 C 
HETATM   19  H6  UNL     1      18.993   0.267  53.001  1.00  0.00     0.183 HD
ENDROOT
BRANCH  15  20
HETATM   20  O2  UNL     1      22.266  -0.787  53.304  1.00  0.00    -0.355 OA
HETATM   21  C16 UNL     1      22.090  -1.420  54.574  1.00  0.00     0.210 C 
ENDBRANCH  15  20
BRANCH   1  22
HETATM   22  N1  UNL     1      25.874   3.422  51.596  1.00  0.00    -0.325 N 
HETATM   23  C3  UNL     1      26.405   2.984  50.353  1.00  0.00     0.244 C 
HETATM   24  O1  UNL     1      26.440   1.830  49.903  1.00  0.00    -0.268 OA
HETATM   25  H4  UNL     1      25.950   4.463  51.792  1.00  0.00     0.169 HD
BRANCH  23  26
HETATM   26  C2  UNL     1      27.001   3.995  49.455  1.00  0.00     0.064 C 
HETATM   27  C1  UNL     1      26.420   5.108  49.036  1.00  0.00     0.017 C 
ENDBRANCH  23  26
ENDBRANCH   1  22
BRANCH  18  28
HETATM   28  N5  UNL     1      27.489   1.647  53.098  1.00  0.00    -0.402 N 
HETATM   29  C20 UNL     1      28.361   2.524  53.802  1.00  0.00     0.144 C 
BRANCH  28  30
HETATM   30  C21 UNL     1      28.005   0.329  52.907  1.00  0.00     0.147 C 
BRANCH  30  31
HETATM   31  C22 UNL     1      29.288   0.008  53.596  1.00  0.00     0.288 C 
BRANCH  31  32
HETATM   32  N6  UNL     1      29.471  -1.390  53.922  1.00  0.00     0.080 N 
HETATM   33  C23 UNL     1      28.580  -2.132  53.039  1.00  0.00     0.306 C 
HETATM   34  H27 UNL     1      29.199  -1.509  54.917  1.00  0.00     0.315 HD
ENDBRANCH  31  32
ENDBRANCH  30  31
ENDBRANCH  28  30
ENDBRANCH  18  28
TORSDOF 7
ENDMDL
MODEL 3
REMARK VINA RESULT:      -7.3      2.152      7.116
REMARK  7 active torsions:
REMARK  status: ('A' for Active; 'I' for Inactive)
REMARK    1  A    between atoms: C2_2  and  C3_3 
REMARK       I    between atoms: C3_3  and  N1_5 
REMARK    2  A    between atoms: N1_5  and  C4_6 
REMARK    3  A    between atoms: C15_20  and  O2_21 
REMARK    4  A    between atoms: C19_25  and  N5_26 
REMARK    5  A    between atoms: N5_26  and  C21_28 
REMARK    6  A    between atoms: C21_28  and  C22_29 
REMARK    7  A    between atoms: C22_29  and  N6_30 
ROOT
HETATM    1  C4  UNL     1      21.971   2.733  51.542  1.00  0.00     0.039 C 
HETATM    2  C5  UNL     1      23.003   1.940  51.765  1.00  0.00     0.046 C 
HETATM    3  C6  UNL     1      24.380   2.239  51.402  1.00  0.00     0.049 C 
HETATM    4  C7  UNL     1      25.470   1.451  51.884  1.00  0.00     0.182 C 
HETATM    5  N2  UNL     1      26.772   1.720  51.554  1.00  0.00    -0.158 NA
HETATM    6  N3  UNL     1      27.829   1.306  52.509  1.00  0.00    -0.303 N 
HETATM    7  C8  UNL     1      28.317   0.184  53.343  1.00  0.00     0.127 C 
HETATM    8  C9  UNL     1      27.754  -1.115  52.771  1.00  0.00     0.002 C 
HETATM    9  C10 UNL     1      26.468  -1.610  52.822  1.00  0.00     0.029 C 
HETATM   10  C11 UNL     1      25.667  -0.479  53.462  1.00  0.00     0.058 C 
HETATM   11  N4  UNL     1      24.841   0.362  52.785  1.00  0.00    -0.227 NA
HETATM   12  C12 UNL     1      25.749  -0.070  54.935  1.00  0.00     0.027 C 
HETATM   13  C13 UNL     1      26.994   0.013  55.548  1.00  0.00    -0.022 C 
HETATM   14  C14 UNL     1      28.283   0.300  54.797  1.00  0.00     0.058 C 
HETATM   15  C15 UNL     1      24.862   3.223  50.621  1.00  0.00     0.082 C 
HETATM   16  C17 UNL     1      24.111   4.272  49.915  1.00  0.00     0.036 C 
HETATM   17  C18 UNL     1      22.829   4.545  50.110  1.00  0.00     0.007 C 
HETATM   18  C19 UNL     1      21.729   4.040  50.957  1.00  0.00     0.152 C 
HETATM   19  H6  UNL     1      28.535   2.097  52.685  1.00  0.00     0.183 HD
ENDROOT
BRANCH  15  20
HETATM   20  O2  UNL     1      26.250   3.321  50.406  1.00  0.00    -0.355 OA
HETATM   21  C16 UNL     1      26.793   4.106  49.341  1.00  0.00     0.210 C 
ENDBRANCH  15  20
BRANCH   1  22
HETATM   22  N1  UNL     1      20.861   1.984  52.084  1.00  0.00    -0.325 N 
HETATM   23  C3  UNL     1      20.627   0.793  51.346  1.00  0.00     0.244 C 
HETATM   24  O1  UNL     1      21.244   0.376  50.356  1.00  0.00    -0.268 OA
HETATM   25  H4  UNL     1      20.207   2.159  52.902  1.00  0.00     0.169 HD
BRANCH  23  26
HETATM   26  C2  UNL     1      19.519  -0.087  51.775  1.00  0.00     0.064 C 
HETATM   27  C1  UNL     1      18.273  -0.045  51.332  1.00  0.00     0.017 C 
ENDBRANCH  23  26
ENDBRANCH   1  22
BRANCH  18  28
HETATM   28  N5  UNL     1      20.536   4.057  50.184  1.00  0.00    -0.402 N 
HETATM   29  C20 UNL     1      19.469   4.827  50.726  1.00  0.00     0.144 C 
BRANCH  28  30
HETATM   30  C21 UNL     1      20.689   4.175  48.768  1.00  0.00     0.147 C 
BRANCH  30  31
HETATM   31  C22 UNL     1      20.127   3.068  47.941  1.00  0.00     0.288 C 
BRANCH  31  32
HETATM   32  N6  UNL     1      20.878   1.833  47.986  1.00  0.00     0.080 N 
HETATM   33  C23 UNL     1      22.222   2.158  47.527  1.00  0.00     0.306 C 
HETATM   34  H27 UNL     1      20.410   1.168  47.339  1.00  0.00     0.315 HD
ENDBRANCH  31  32
ENDBRANCH  30  31
ENDBRANCH  28  30
ENDBRANCH  18  28
TORSDOF 7
ENDMDL
MODEL 4
REMARK VINA RESULT:      -7.1      2.081      4.751
REMARK  7 active torsions:
REMARK  status: ('A' for Active; 'I' for Inactive)
REMARK    1  A    between atoms: C2_2  and  C3_3 
REMARK       I    between atoms: C3_3  and  N1_5 
REMARK    2  A    between atoms: N1_5  and  C4_6 
REMARK    3  A    between atoms: C15_20  and  O2_21 
REMARK    4  A    between atoms: C19_25  and  N5_26 
REMARK    5  A    between atoms: N5_26  and  C21_28 
REMARK    6  A    between atoms: C21_28  and  C22_29 
REMARK    7  A    between atoms: C22_29  and  N6_30 
ROOT
HETATM    1  C4  UNL     1      25.425   2.874  50.657  1.00  0.00     0.039 C 
HETATM    2  C5  UNL     1      24.376   3.015  49.867  1.00  0.00     0.046 C 
HETATM    3  C6  UNL     1      22.990   2.872  50.285  1.00  0.00     0.049 C 
HETATM    4  C7  UNL     1      21.909   3.272  49.442  1.00  0.00     0.182 C 
HETATM    5  N2  UNL     1      20.598   3.146  49.821  1.00  0.00    -0.158 NA
HETATM    6  N3  UNL     1      19.613   4.086  49.231  1.00  0.00    -0.303 N 
HETATM    7  C8  UNL     1      19.144   4.690  47.963  1.00  0.00     0.127 C 
HETATM    8  C9  UNL     1      19.580   3.784  46.814  1.00  0.00     0.002 C 
HETATM    9  C10 UNL     1      20.837   3.591  46.280  1.00  0.00     0.029 C 
HETATM   10  C11 UNL     1      21.754   4.384  47.207  1.00  0.00     0.058 C 
HETATM   11  N4  UNL     1      22.558   3.834  48.155  1.00  0.00    -0.227 NA
HETATM   12  C12 UNL     1      21.831   5.912  47.268  1.00  0.00     0.027 C 
HETATM   13  C13 UNL     1      20.654   6.652  47.247  1.00  0.00    -0.022 C 
HETATM   14  C14 UNL     1      19.318   6.122  47.740  1.00  0.00     0.058 C 
HETATM   15  C15 UNL     1      22.492   2.388  51.437  1.00  0.00     0.082 C 
HETATM   16  C17 UNL     1      23.231   1.865  52.596  1.00  0.00     0.036 C 
HETATM   17  C18 UNL     1      24.538   1.984  52.776  1.00  0.00     0.007 C 
HETATM   18  C19 UNL     1      25.683   2.578  52.056  1.00  0.00     0.152 C 
HETATM   19  H6  UNL     1      18.970   4.508  49.982  1.00  0.00     0.183 HD
ENDROOT
BRANCH  15  20
HETATM   20  O2  UNL     1      21.098   2.344  51.626  1.00  0.00    -0.355 OA
HETATM   21  C16 UNL     1      20.514   1.738  52.783  1.00  0.00     0.210 C 
ENDBRANCH  15  20
BRANCH   1  22
HETATM   22  N1  UNL     1      26.539   3.116  49.768  1.00  0.00    -0.325 N 
HETATM   23  C3  UNL     1      26.675   4.497  49.468  1.00  0.00     0.244 C 
HETATM   24  O1  UNL     1      25.976   5.438  49.871  1.00  0.00    -0.268 OA
HETATM   25  H4  UNL     1      27.246   2.469  49.310  1.00  0.00     0.169 HD
BRANCH  23  26
HETATM   26  C2  UNL     1      27.772   4.909  48.567  1.00  0.00     0.064 C 
HETATM   27  C1  UNL     1      28.127   6.153  48.288  1.00  0.00     0.017 C 
ENDBRANCH  23  26
ENDBRANCH   1  22
BRANCH  18  28
HETATM   28  N5  UNL     1      26.799   1.711  52.213  1.00  0.00    -0.402 N 
HETATM   29  C20 UNL     1      27.772   2.135  53.160  1.00  0.00     0.144 C 
BRANCH  28  30
HETATM   30  C21 UNL     1      26.524   0.309  52.235  1.00  0.00     0.147 C 
BRANCH  30  31
HETATM   31  C22 UNL     1      26.989  -0.443  53.437  1.00  0.00     0.288 C 
BRANCH  31  32
HETATM   32  N6  UNL     1      27.723  -1.656  53.150  1.00  0.00     0.080 N 
HETATM   33  C23 UNL     1      29.130  -1.336  53.349  1.00  0.00     0.306 C 
HETATM   34  H27 UNL     1      27.529  -1.902  52.159  1.00  0.00     0.315 HD
ENDBRANCH  31  32
ENDBRANCH  30  31
ENDBRANCH  28  30
ENDBRANCH  18  28
TORSDOF 7
ENDMDL
MODEL 5
REMARK VINA RESULT:      -7.0      3.548      7.284
REMARK  7 active torsions:
REMARK  status: ('A' for Active; 'I' for Inactive)
REMARK    1  A    between atoms: C2_2  and  C3_3 
REMARK       I    between atoms: C3_3  and  N1_5 
REMARK    2  A    between atoms: N1_5  and  C4_6 
REMARK    3  A    between atoms: C15_20  and  O2_21 
REMARK    4  A    between atoms: C19_25  and  N5_26 
REMARK    5  A    between atoms: N5_26  and  C21_28 
REMARK    6  A    between atoms: C21_28  and  C22_29 
REMARK    7  A    between atoms: C22_29  and  N6_30 
ROOT
HETATM    1  C4  UNL     1      25.952   3.709  49.620  1.00  0.00     0.039 C 
HETATM    2  C5  UNL     1      26.988   4.307  49.061  1.00  0.00     0.046 C 
HETATM    3  C6  UNL     1      27.000   5.681  48.583  1.00  0.00     0.049 C 
HETATM    4  C7  UNL     1      28.216   6.333  48.212  1.00  0.00     0.182 C 
HETATM    5  N2  UNL     1      28.246   7.627  47.763  1.00  0.00    -0.158 NA
HETATM    6  N3  UNL     1      29.489   8.408  47.981  1.00  0.00    -0.303 N 
HETATM    7  C8  UNL     1      30.964   8.373  47.852  1.00  0.00     0.127 C 
HETATM    8  C9  UNL     1      31.326   7.314  46.814  1.00  0.00     0.002 C 
HETATM    9  C10 UNL     1      31.283   5.939  46.914  1.00  0.00     0.029 C 
HETATM   10  C11 UNL     1      30.633   5.692  48.273  1.00  0.00     0.058 C 
HETATM   11  N4  UNL     1      29.343   5.301  48.453  1.00  0.00    -0.227 NA
HETATM   12  C12 UNL     1      31.306   5.938  49.625  1.00  0.00     0.027 C 
HETATM   13  C13 UNL     1      32.046   7.100  49.814  1.00  0.00    -0.022 C 
HETATM   14  C14 UNL     1      31.792   8.391  49.053  1.00  0.00     0.058 C 
HETATM   15  C15 UNL     1      25.975   6.536  48.415  1.00  0.00     0.082 C 
HETATM   16  C17 UNL     1      24.547   6.301  48.672  1.00  0.00     0.036 C 
HETATM   17  C18 UNL     1      24.057   5.255  49.323  1.00  0.00     0.007 C 
HETATM   18  C19 UNL     1      24.586   4.044  49.983  1.00  0.00     0.152 C 
HETATM   19  H6  UNL     1      29.279   9.383  48.383  1.00  0.00     0.183 HD
ENDROOT
BRANCH  15  20
HETATM   20  O2  UNL     1      26.226   7.835  47.934  1.00  0.00    -0.355 OA
HETATM   21  C16 UNL     1      25.170   8.775  47.717  1.00  0.00     0.210 C 
ENDBRANCH  15  20
BRANCH   1  22
HETATM   22  N1  UNL     1      26.455   2.385  49.907  1.00  0.00    -0.325 N 
HETATM   23  C3  UNL     1      26.522   2.144  51.305  1.00  0.00     0.244 C 
HETATM   24  O1  UNL     1      26.211   2.912  52.226  1.00  0.00    -0.268 OA
HETATM   25  H4  UNL     1      26.778   1.588  49.283  1.00  0.00     0.169 HD
BRANCH  23  26
HETATM   26  C2  UNL     1      27.019   0.830  51.763  1.00  0.00     0.064 C 
HETATM   27  C1  UNL     1      26.319  -0.089  52.409  1.00  0.00     0.017 C 
ENDBRANCH  23  26
ENDBRANCH   1  22
BRANCH  18  28
HETATM   28  N5  UNL     1      23.692   2.971  49.714  1.00  0.00    -0.402 N 
HETATM   29  C20 UNL     1      22.958   2.493  50.835  1.00  0.00     0.144 C 
BRANCH  28  30
HETATM   30  C21 UNL     1      22.936   3.053  48.504  1.00  0.00     0.147 C 
BRANCH  30  31
HETATM   31  C22 UNL     1      22.212   1.819  48.085  1.00  0.00     0.288 C 
BRANCH  31  32
HETATM   32  N6  UNL     1      20.769   1.917  48.123  1.00  0.00     0.080 N 
HETATM   33  C23 UNL     1      20.441   3.256  47.648  1.00  0.00     0.306 C 
HETATM   34  H27 UNL     1      20.480   1.788  49.112  1.00  0.00     0.315 HD
ENDBRANCH  31  32
ENDBRANCH  30  31
ENDBRANCH  28  30
ENDBRANCH  18  28
TORSDOF 7
ENDMDL
MODEL 6
REMARK VINA RESULT:      -6.9      3.070      8.554
REMARK  7 active torsions:
REMARK  status: ('A' for Active; 'I' for Inactive)
REMARK    1  A    between atoms: C2_2  and  C3_3 
REMARK       I    between atoms: C3_3  and  N1_5 
REMARK    2  A    between atoms: N1_5  and  C4_6 
REMARK    3  A    between atoms: C15_20  and  O2_21 
REMARK    4  A    between atoms: C19_25  and  N5_26 
REMARK    5  A    between atoms: N5_26  and  C21_28 
REMARK    6  A    between atoms: C21_28  and  C22_29 
REMARK    7  A    between atoms: C22_29  and  N6_30 
ROOT
HETATM    1  C4  UNL     1      20.610   1.788  50.469  1.00  0.00     0.039 C 
HETATM    2  C5  UNL     1      21.689   1.749  51.230  1.00  0.00     0.046 C 
HETATM    3  C6  UNL     1      21.877   0.864  52.369  1.00  0.00     0.049 C 
HETATM    4  C7  UNL     1      23.152   0.707  52.993  1.00  0.00     0.182 C 
HETATM    5  N2  UNL     1      23.346  -0.123  54.065  1.00  0.00    -0.158 NA
HETATM    6  N3  UNL     1      24.701  -0.697  54.261  1.00  0.00    -0.303 N 
HETATM    7  C8  UNL     1      26.145  -0.372  54.305  1.00  0.00     0.127 C 
HETATM    8  C9  UNL     1      26.288   1.119  54.601  1.00  0.00     0.002 C 
HETATM    9  C10 UNL     1      26.049   2.202  53.781  1.00  0.00     0.029 C 
HETATM   10  C11 UNL     1      25.448   1.581  52.523  1.00  0.00     0.058 C 
HETATM   11  N4  UNL     1      24.127   1.611  52.202  1.00  0.00    -0.227 NA
HETATM   12  C12 UNL     1      26.225   0.759  51.493  1.00  0.00     0.027 C 
HETATM   13  C13 UNL     1      27.137  -0.194  51.933  1.00  0.00    -0.022 C 
HETATM   14  C14 UNL     1      27.034  -0.900  53.275  1.00  0.00     0.058 C 
HETATM   15  C15 UNL     1      20.980   0.085  53.001  1.00  0.00     0.082 C 
HETATM   16  C17 UNL     1      19.550  -0.078  52.703  1.00  0.00     0.036 C 
HETATM   17  C18 UNL     1      18.949   0.369  51.609  1.00  0.00     0.007 C 
HETATM   18  C19 UNL     1      19.331   1.104  50.386  1.00  0.00     0.152 C 
HETATM   19  H6  UNL     1      24.659  -1.754  54.451  1.00  0.00     0.183 HD
ENDROOT
BRANCH  15  20
HETATM   20  O2  UNL     1      21.392  -0.699  54.096  1.00  0.00    -0.355 OA
HETATM   21  C16 UNL     1      20.782  -1.959  54.391  1.00  0.00     0.210 C 
ENDBRANCH  15  20
BRANCH   1  22
HETATM   22  N1  UNL     1      20.929   2.813  49.502  1.00  0.00    -0.325 N 
HETATM   23  C3  UNL     1      21.474   2.257  48.314  1.00  0.00     0.244 C 
HETATM   24  O1  UNL     1      21.684   1.063  48.058  1.00  0.00    -0.268 OA
HETATM   25  H4  UNL     1      20.837   3.871  49.520  1.00  0.00     0.169 HD
BRANCH  23  26
HETATM   26  C2  UNL     1      21.855   3.180  47.224  1.00  0.00     0.064 C 
HETATM   27  C1  UNL     1      22.306   4.415  47.368  1.00  0.00     0.017 C 
ENDBRANCH  23  26
ENDBRANCH   1  22
BRANCH  18  28
HETATM   28  N5  UNL     1      18.276   2.002  50.066  1.00  0.00    -0.402 N 
HETATM   29  C20 UNL     1      17.185   1.431  49.352  1.00  0.00     0.144 C 
BRANCH  28  30
HETATM   30  C21 UNL     1      17.894   2.933  51.081  1.00  0.00     0.147 C 
BRANCH  30  31
HETATM   31  C22 UNL     1      16.588   3.628  50.892  1.00  0.00     0.288 C 
BRANCH  31  32
HETATM   32  N6  UNL     1      15.833   3.845  52.107  1.00  0.00     0.080 N 
HETATM   33  C23 UNL     1      14.434   3.920  51.706  1.00  0.00     0.306 C 
HETATM   34  H27 UNL     1      16.158   4.745  52.511  1.00  0.00     0.315 HD
ENDBRANCH  31  32
ENDBRANCH  30  31
ENDBRANCH  28  30
ENDBRANCH  18  28
TORSDOF 7
ENDMDL
MODEL 7
REMARK VINA RESULT:      -6.9      2.192      7.892
REMARK  7 active torsions:
REMARK  status: ('A' for Active; 'I' for Inactive)
REMARK    1  A    between atoms: C2_2  and  C3_3 
REMARK       I    between atoms: C3_3  and  N1_5 
REMARK    2  A    between atoms: N1_5  and  C4_6 
REMARK    3  A    between atoms: C15_20  and  O2_21 
REMARK    4  A    between atoms: C19_25  and  N5_26 
REMARK    5  A    between atoms: N5_26  and  C21_28 
REMARK    6  A    between atoms: C21_28  and  C22_29 
REMARK    7  A    between atoms: C22_29  and  N6_30 
ROOT
HETATM    1  C4  UNL     1      25.028   5.346  49.642  1.00  0.00     0.039 C 
HETATM    2  C5  UNL     1      25.275   4.499  50.624  1.00  0.00     0.046 C 
HETATM    3  C6  UNL     1      24.262   3.767  51.369  1.00  0.00     0.049 C 
HETATM    4  C7  UNL     1      24.609   2.696  52.249  1.00  0.00     0.182 C 
HETATM    5  N2  UNL     1      23.668   1.995  52.956  1.00  0.00    -0.158 NA
HETATM    6  N3  UNL     1      23.984   0.595  53.331  1.00  0.00    -0.303 N 
HETATM    7  C8  UNL     1      25.021  -0.283  53.922  1.00  0.00     0.127 C 
HETATM    8  C9  UNL     1      25.956   0.584  54.762  1.00  0.00     0.002 C 
HETATM    9  C10 UNL     1      26.920   1.482  54.354  1.00  0.00     0.029 C 
HETATM   10  C11 UNL     1      26.747   1.540  52.839  1.00  0.00     0.058 C 
HETATM   11  N4  UNL     1      26.147   2.560  52.168  1.00  0.00    -0.227 NA
HETATM   12  C12 UNL     1      27.136   0.423  51.868  1.00  0.00     0.027 C 
HETATM   13  C13 UNL     1      26.828  -0.894  52.189  1.00  0.00    -0.022 C 
HETATM   14  C14 UNL     1      25.670  -1.291  53.090  1.00  0.00     0.058 C 
HETATM   15  C15 UNL     1      22.926   3.928  51.378  1.00  0.00     0.082 C 
HETATM   16  C17 UNL     1      22.125   4.904  50.626  1.00  0.00     0.036 C 
HETATM   17  C18 UNL     1      22.584   5.659  49.639  1.00  0.00     0.007 C 
HETATM   18  C19 UNL     1      23.868   5.865  48.938  1.00  0.00     0.152 C 
HETATM   19  H6  UNL     1      23.169  -0.069  53.107  1.00  0.00     0.183 HD
ENDROOT
BRANCH  15  20
HETATM   20  O2  UNL     1      22.133   3.093  52.188  1.00  0.00    -0.355 OA
HETATM   21  C16 UNL     1      20.732   3.325  52.363  1.00  0.00     0.210 C 
ENDBRANCH  15  20
BRANCH   1  22
HETATM   22  N1  UNL     1      26.348   5.787  49.251  1.00  0.00    -0.325 N 
HETATM   23  C3  UNL     1      27.176   4.692  48.887  1.00  0.00     0.244 C 
HETATM   24  O1  UNL     1      26.887   3.487  48.877  1.00  0.00    -0.268 OA
HETATM   25  H4  UNL     1      26.797   6.748  49.195  1.00  0.00     0.169 HD
BRANCH  23  26
HETATM   26  C2  UNL     1      28.563   4.978  48.463  1.00  0.00     0.064 C 
HETATM   27  C1  UNL     1      29.042   6.158  48.102  1.00  0.00     0.017 C 
ENDBRANCH  23  26
ENDBRANCH   1  22
BRANCH  18  28
HETATM   28  N5  UNL     1      23.999   7.253  48.659  1.00  0.00    -0.402 N 
HETATM   29  C20 UNL     1      23.210   7.735  47.578  1.00  0.00     0.144 C 
BRANCH  28  30
HETATM   30  C21 UNL     1      24.058   8.131  49.785  1.00  0.00     0.147 C 
BRANCH  30  31
HETATM   31  C22 UNL     1      25.168   9.128  49.796  1.00  0.00     0.288 C 
BRANCH  31  32
HETATM   32  N6  UNL     1      26.258   8.815  50.694  1.00  0.00     0.080 N 
HETATM   33  C23 UNL     1      27.475   9.255  50.023  1.00  0.00     0.306 C 
HETATM   34  H27 UNL     1      26.255   7.785  50.830  1.00  0.00     0.315 HD
ENDBRANCH  31  32
ENDBRANCH  30  31
ENDBRANCH  28  30
ENDBRANCH  18  28
TORSDOF 7
ENDMDL
MODEL 8
REMARK VINA RESULT:      -6.7      1.813      8.423
REMARK  7 active torsions:
REMARK  status: ('A' for Active; 'I' for Inactive)
REMARK    1  A    between atoms: C2_2  and  C3_3 
REMARK       I    between atoms: C3_3  and  N1_5 
REMARK    2  A    between atoms: N1_5  and  C4_6 
REMARK    3  A    between atoms: C15_20  and  O2_21 
REMARK    4  A    between atoms: C19_25  and  N5_26 
REMARK    5  A    between atoms: N5_26  and  C21_28 
REMARK    6  A    between atoms: C21_28  and  C22_29 
REMARK    7  A    between atoms: C22_29  and  N6_30 
ROOT
HETATM    1  C4  UNL     1      23.536   5.072  50.353  1.00  0.00     0.039 C 
HETATM    2  C5  UNL     1      24.051   4.223  51.223  1.00  0.00     0.046 C 
HETATM    3  C6  UNL     1      23.312   3.166  51.897  1.00  0.00     0.049 C 
HETATM    4  C7  UNL     1      23.978   2.140  52.636  1.00  0.00     0.182 C 
HETATM    5  N2  UNL     1      23.298   1.137  53.274  1.00  0.00    -0.158 NA
HETATM    6  N3  UNL     1      23.997  -0.156  53.473  1.00  0.00    -0.303 N 
HETATM    7  C8  UNL     1      25.259  -0.777  53.934  1.00  0.00     0.127 C 
HETATM    8  C9  UNL     1      25.971   0.214  54.851  1.00  0.00     0.002 C 
HETATM    9  C10 UNL     1      26.636   1.379  54.534  1.00  0.00     0.029 C 
HETATM   10  C11 UNL     1      26.375   1.553  53.040  1.00  0.00     0.058 C 
HETATM   11  N4  UNL     1      25.491   2.438  52.507  1.00  0.00    -0.227 NA
HETATM   12  C12 UNL     1      26.999   0.697  51.935  1.00  0.00     0.027 C 
HETATM   13  C13 UNL     1      27.072  -0.682  52.104  1.00  0.00    -0.022 C 
HETATM   14  C14 UNL     1      26.111  -1.474  52.975  1.00  0.00     0.058 C 
HETATM   15  C15 UNL     1      21.985   2.955  51.952  1.00  0.00     0.082 C 
HETATM   16  C17 UNL     1      20.913   3.752  51.338  1.00  0.00     0.036 C 
HETATM   17  C18 UNL     1      21.101   4.707  50.438  1.00  0.00     0.007 C 
HETATM   18  C19 UNL     1      22.245   5.329  49.740  1.00  0.00     0.152 C 
HETATM   19  H6  UNL     1      23.378  -0.988  53.189  1.00  0.00     0.183 HD
ENDROOT
BRANCH  15  20
HETATM   20  O2  UNL     1      21.487   1.853  52.673  1.00  0.00    -0.355 OA
HETATM   21  C16 UNL     1      20.088   1.557  52.725  1.00  0.00     0.210 C 
ENDBRANCH  15  20
BRANCH   1  22
HETATM   22  N1  UNL     1      24.667   5.895  49.991  1.00  0.00    -0.325 N 
HETATM   23  C3  UNL     1      25.633   5.158  49.254  1.00  0.00     0.244 C 
HETATM   24  O1  UNL     1      25.591   3.965  48.923  1.00  0.00    -0.268 OA
HETATM   25  H4  UNL     1      24.902   6.914  50.174  1.00  0.00     0.169 HD
BRANCH  23  26
HETATM   26  C2  UNL     1      26.855   5.860  48.809  1.00  0.00     0.064 C 
HETATM   27  C1  UNL     1      28.004   5.294  48.478  1.00  0.00     0.017 C 
ENDBRANCH  23  26
ENDBRANCH   1  22
BRANCH  18  28
HETATM   28  N5  UNL     1      21.985   6.722  49.626  1.00  0.00    -0.402 N 
HETATM   29  C20 UNL     1      22.282   7.296  48.358  1.00  0.00     0.144 C 
BRANCH  28  30
HETATM   30  C21 UNL     1      20.778   7.201  50.222  1.00  0.00     0.147 C 
BRANCH  30  31
HETATM   31  C22 UNL     1      19.765   7.790  49.300  1.00  0.00     0.288 C 
BRANCH  31  32
HETATM   32  N6  UNL     1      19.023   8.907  49.843  1.00  0.00     0.080 N 
HETATM   33  C23 UNL     1      19.823  10.095  49.572  1.00  0.00     0.306 C 
HETATM   34  H27 UNL     1      18.929   8.742  50.864  1.00  0.00     0.315 HD
ENDBRANCH  31  32
ENDBRANCH  30  31
ENDBRANCH  28  30
ENDBRANCH  18  28
TORSDOF 7
ENDMDL
MODEL 9
REMARK VINA RESULT:      -6.6      8.930     12.503
REMARK  7 active torsions:
REMARK  status: ('A' for Active; 'I' for Inactive)
REMARK    1  A    between atoms: C2_2  and  C3_3 
REMARK       I    between atoms: C3_3  and  N1_5 
REMARK    2  A    between atoms: N1_5  and  C4_6 
REMARK    3  A    between atoms: C15_20  and  O2_21 
REMARK    4  A    between atoms: C19_25  and  N5_26 
REMARK    5  A    between atoms: N5_26  and  C21_28 
REMARK    6  A    between atoms: C21_28  and  C22_29 
REMARK    7  A    between atoms: C22_29  and  N6_30 
ROOT
HETATM    1  C4  UNL     1      33.875   4.878  45.746  1.00  0.00     0.039 C 
HETATM    2  C5  UNL     1      33.427   4.759  44.509  1.00  0.00     0.046 C 
HETATM    3  C6  UNL     1      33.132   5.869  43.617  1.00  0.00     0.049 C 
HETATM    4  C7  UNL     1      32.883   5.665  42.225  1.00  0.00     0.182 C 
HETATM    5  N2  UNL     1      32.606   6.700  41.371  1.00  0.00    -0.158 NA
HETATM    6  N3  UNL     1      32.959   6.529  39.939  1.00  0.00    -0.303 N 
HETATM    7  C8  UNL     1      32.868   5.607  38.784  1.00  0.00     0.127 C 
HETATM    8  C9  UNL     1      31.711   4.642  39.036  1.00  0.00     0.002 C 
HETATM    9  C10 UNL     1      31.631   3.582  39.914  1.00  0.00     0.029 C 
HETATM   10  C11 UNL     1      32.927   3.672  40.715  1.00  0.00     0.058 C 
HETATM   11  N4  UNL     1      33.019   4.143  41.987  1.00  0.00    -0.227 NA
HETATM   12  C12 UNL     1      34.318   3.335  40.173  1.00  0.00     0.027 C 
HETATM   13  C13 UNL     1      34.678   3.776  38.904  1.00  0.00    -0.022 C 
HETATM   14  C14 UNL     1      34.083   5.009  38.243  1.00  0.00     0.058 C 
HETATM   15  C15 UNL     1      33.047   7.184  43.890  1.00  0.00     0.082 C 
HETATM   16  C17 UNL     1      33.232   7.856  45.184  1.00  0.00     0.036 C 
HETATM   17  C18 UNL     1      33.727   7.281  46.271  1.00  0.00     0.007 C 
HETATM   18  C19 UNL     1      34.239   5.950  46.656  1.00  0.00     0.152 C 
HETATM   19  H6  UNL     1      33.477   7.389  39.554  1.00  0.00     0.183 HD
ENDROOT
BRANCH  15  20
HETATM   20  O2  UNL     1      32.746   8.089  42.854  1.00  0.00    -0.355 OA
HETATM   21  C16 UNL     1      32.667   9.498  43.086  1.00  0.00     0.210 C 
ENDBRANCH  15  20
BRANCH   1  22
HETATM   22  N1  UNL     1      34.001   3.506  46.182  1.00  0.00    -0.325 N 
HETATM   23  C3  UNL     1      32.747   2.967  46.573  1.00  0.00     0.244 C 
HETATM   24  O1  UNL     1      31.642   3.528  46.573  1.00  0.00    -0.268 OA
HETATM   25  H4  UNL     1      34.834   2.853  46.265  1.00  0.00     0.169 HD
BRANCH  23  26
HETATM   26  C2  UNL     1      32.707   1.567  47.047  1.00  0.00     0.064 C 
HETATM   27  C1  UNL     1      31.944   0.600  46.564  1.00  0.00     0.017 C 
ENDBRANCH  23  26
ENDBRANCH   1  22
BRANCH  18  28
HETATM   28  N5  UNL     1      33.808   5.681  47.984  1.00  0.00    -0.402 N 
HETATM   29  C20 UNL     1      34.849   5.468  48.931  1.00  0.00     0.144 C 
BRANCH  28  30
HETATM   30  C21 UNL     1      32.713   6.457  48.474  1.00  0.00     0.147 C 
BRANCH  30  31
HETATM   31  C22 UNL     1      31.746   5.757  49.368  1.00  0.00     0.288 C 
BRANCH  31  32
HETATM   32  N6  UNL     1      30.386   6.244  49.292  1.00  0.00     0.080 N 
HETATM   33  C23 UNL     1      30.077   6.366  47.873  1.00  0.00     0.306 C 
HETATM   34  H27 UNL     1      30.367   7.170  49.762  1.00  0.00     0.315 HD
ENDBRANCH  31  32
ENDBRANCH  30  31
ENDBRANCH  28  30
ENDBRANCH  18  28
TORSDOF 7
ENDMDL
