MODEL 1
REMARK VINA RESULT:      -8.1      0.000      0.000
REMARK  0 active torsions:
REMARK  status: ('A' for Active; 'I' for Inactive)
ROOT
HETATM    1  C1  UNL     1      26.479   5.477  48.983  1.00  0.00     0.018 C 
HETATM    2  C2  UNL     1      25.716   4.609  49.419  1.00  0.00    -0.078 C 
HETATM    3  C3  UNL     1      24.797   3.597  49.950  1.00  0.00     0.014 C 
HETATM    4  C4  UNL     1      24.989   3.195  51.209  1.00  0.00    -0.004 C 
HETATM    5  C5  UNL     1      24.558   2.320  52.358  1.00  0.00     0.062 C 
HETATM    6  C6  UNL     1      25.661   1.378  52.795  1.00  0.00     0.070 C 
HETATM    7  C7  UNL     1      26.829   2.312  53.194  1.00  0.00     0.042 C 
HETATM    8  C8  UNL     1      26.156   0.519  51.674  1.00  0.00     0.042 C 
HETATM    9  N1  UNL     1      25.286   0.688  53.960  1.00  0.00    -0.188 NA
HETATM   10  N2  UNL     1      24.498  -0.227  54.153  1.00  0.00    -0.197 NA
HETATM   11  C9  UNL     1      23.692  -0.891  53.207  1.00  0.00     0.177 C 
HETATM   12  C10 UNL     1      22.204  -0.870  53.509  1.00  0.00     0.052 C 
HETATM   13  C11 UNL     1      21.688   0.470  53.749  1.00  0.00     0.003 C 
HETATM   14  C12 UNL     1      20.930   1.158  52.926  1.00  0.00     0.039 C 
HETATM   15  C13 UNL     1      20.454   0.702  51.579  1.00  0.00     0.137 C 
HETATM   16  C14 UNL     1      21.214   1.548  50.566  1.00  0.00     0.110 C 
HETATM   17  N3  UNL     1      20.847   2.773  50.725  1.00  0.00    -0.228 NA
HETATM   18  C15 UNL     1      20.440   3.281  52.031  1.00  0.00     0.235 C 
HETATM   19  N4  UNL     1      20.431   2.505  53.106  1.00  0.00    -0.246 NA
HETATM   20  N5  UNL     1      22.195   1.477  49.552  1.00  0.00    -0.354 N 
HETATM   21  C16 UNL     1      22.791   2.410  48.683  1.00  0.00     0.091 C 
HETATM   22  C17 UNL     1      23.817   3.178  48.985  1.00  0.00     0.037 C 
HETATM   23  H19 UNL     1      22.220   0.481  49.784  1.00  0.00     0.166 HD
ENDROOT
TORSDOF 0
ENDMDL
MODEL 2
REMARK VINA RESULT:      -7.9      1.720      5.012
REMARK  0 active torsions:
REMARK  status: ('A' for Active; 'I' for Inactive)
ROOT
HETATM    1  C1  UNL     1      21.935  -1.691  54.965  1.00  0.00     0.018 C 
HETATM    2  C2  UNL     1      22.018  -0.736  54.187  1.00  0.00    -0.078 C 
HETATM    3  C3  UNL     1      22.112   0.383  53.242  1.00  0.00     0.014 C 
HETATM    4  C4  UNL     1      23.264   0.533  52.585  1.00  0.00    -0.004 C 
HETATM    5  C5  UNL     1      24.077   1.309  51.580  1.00  0.00     0.062 C 
HETATM    6  C6  UNL     1      25.343   1.873  52.193  1.00  0.00     0.070 C 
HETATM    7  C7  UNL     1      26.107   0.631  52.711  1.00  0.00     0.042 C 
HETATM    8  C8  UNL     1      25.065   2.739  53.381  1.00  0.00     0.042 C 
HETATM    9  N1  UNL     1      26.152   2.455  51.202  1.00  0.00    -0.188 NA
HETATM   10  N2  UNL     1      26.054   3.497  50.571  1.00  0.00    -0.197 NA
HETATM   11  C9  UNL     1      25.040   4.473  50.661  1.00  0.00     0.177 C 
HETATM   12  C10 UNL     1      24.329   4.776  49.354  1.00  0.00     0.052 C 
HETATM   13  C11 UNL     1      23.816   3.585  48.691  1.00  0.00     0.003 C 
HETATM   14  C12 UNL     1      22.552   3.236  48.614  1.00  0.00     0.039 C 
HETATM   15  C13 UNL     1      21.394   3.989  49.196  1.00  0.00     0.137 C 
HETATM   16  C14 UNL     1      20.894   3.141  50.357  1.00  0.00     0.110 C 
HETATM   17  N3  UNL     1      20.445   2.035  49.870  1.00  0.00    -0.228 NA
HETATM   18  C15 UNL     1      21.011   1.456  48.655  1.00  0.00     0.235 C 
HETATM   19  N4  UNL     1      22.005   2.043  48.003  1.00  0.00    -0.246 NA
HETATM   20  N5  UNL     1      20.780   3.115  51.765  1.00  0.00    -0.354 N 
HETATM   21  C16 UNL     1      20.260   2.203  52.701  1.00  0.00     0.091 C 
HETATM   22  C17 UNL     1      20.909   1.169  53.193  1.00  0.00     0.037 C 
HETATM   23  H19 UNL     1      21.239   4.028  51.718  1.00  0.00     0.166 HD
ENDROOT
TORSDOF 0
ENDMDL
MODEL 3
REMARK VINA RESULT:      -7.1      1.816      4.514
REMARK  0 active torsions:
REMARK  status: ('A' for Active; 'I' for Inactive)
ROOT
HETATM    1  C1  UNL     1      22.516   5.141  47.458  1.00  0.00     0.018 C 
HETATM    2  C2  UNL     1      22.758   4.539  48.508  1.00  0.00    -0.078 C 
HETATM    3  C3  UNL     1      23.062   3.809  49.744  1.00  0.00     0.014 C 
HETATM    4  C4  UNL     1      22.521   2.597  49.888  1.00  0.00    -0.004 C 
HETATM    5  C5  UNL     1      22.351   1.358  50.730  1.00  0.00     0.062 C 
HETATM    6  C6  UNL     1      20.898   1.107  51.077  1.00  0.00     0.070 C 
HETATM    7  C7  UNL     1      20.192   0.969  49.708  1.00  0.00     0.042 C 
HETATM    8  C8  UNL     1      20.268   2.272  51.775  1.00  0.00     0.042 C 
HETATM    9  N1  UNL     1      20.755  -0.131  51.727  1.00  0.00    -0.188 NA
HETATM   10  N2  UNL     1      21.036  -0.500  52.858  1.00  0.00    -0.197 NA
HETATM   11  C9  UNL     1      21.621   0.252  53.896  1.00  0.00     0.177 C 
HETATM   12  C10 UNL     1      22.908  -0.326  54.457  1.00  0.00     0.052 C 
HETATM   13  C11 UNL     1      23.901  -0.615  53.432  1.00  0.00     0.003 C 
HETATM   14  C12 UNL     1      24.999   0.073  53.214  1.00  0.00     0.039 C 
HETATM   15  C13 UNL     1      25.441   1.289  53.972  1.00  0.00     0.137 C 
HETATM   16  C14 UNL     1      25.284   2.455  53.006  1.00  0.00     0.110 C 
HETATM   17  N3  UNL     1      26.108   2.271  52.032  1.00  0.00    -0.228 NA
HETATM   18  C15 UNL     1      26.480   0.929  51.596  1.00  0.00     0.235 C 
HETATM   19  N4  UNL     1      25.988  -0.154  52.182  1.00  0.00    -0.246 NA
HETATM   20  N5  UNL     1      24.540   3.634  52.778  1.00  0.00    -0.354 N 
HETATM   21  C16 UNL     1      24.543   4.631  51.785  1.00  0.00     0.091 C 
HETATM   22  C17 UNL     1      23.909   4.556  50.634  1.00  0.00     0.037 C 
HETATM   23  H19 UNL     1      24.058   3.377  53.642  1.00  0.00     0.166 HD
ENDROOT
TORSDOF 0
ENDMDL
MODEL 4
REMARK VINA RESULT:      -7.0      8.122     11.964
REMARK  0 active torsions:
REMARK  status: ('A' for Active; 'I' for Inactive)
ROOT
HETATM    1  C1  UNL     1      26.619   5.594  48.583  1.00  0.00     0.018 C 
HETATM    2  C2  UNL     1      27.620   6.310  48.500  1.00  0.00    -0.078 C 
HETATM    3  C3  UNL     1      28.805   7.168  48.377  1.00  0.00     0.014 C 
HETATM    4  C4  UNL     1      29.869   6.656  47.754  1.00  0.00    -0.004 C 
HETATM    5  C5  UNL     1      31.285   6.839  47.269  1.00  0.00     0.062 C 
HETATM    6  C6  UNL     1      32.227   5.824  47.884  1.00  0.00     0.070 C 
HETATM    7  C7  UNL     1      31.650   4.454  47.457  1.00  0.00     0.042 C 
HETATM    8  C8  UNL     1      32.206   5.858  49.380  1.00  0.00     0.042 C 
HETATM    9  N1  UNL     1      33.501   5.920  47.299  1.00  0.00    -0.188 NA
HETATM   10  N2  UNL     1      34.396   6.745  47.413  1.00  0.00    -0.197 NA
HETATM   11  C9  UNL     1      34.408   7.906  48.211  1.00  0.00     0.177 C 
HETATM   12  C10 UNL     1      34.668   9.198  47.455  1.00  0.00     0.052 C 
HETATM   13  C11 UNL     1      33.777   9.384  46.318  1.00  0.00     0.003 C 
HETATM   14  C12 UNL     1      32.783  10.240  46.256  1.00  0.00     0.039 C 
HETATM   15  C13 UNL     1      32.366  11.185  47.343  1.00  0.00     0.137 C 
HETATM   16  C14 UNL     1      31.035  10.657  47.860  1.00  0.00     0.110 C 
HETATM   17  N3  UNL     1      30.178  10.748  46.902  1.00  0.00    -0.228 NA
HETATM   18  C15 UNL     1      30.585  10.631  45.505  1.00  0.00     0.235 C 
HETATM   19  N4  UNL     1      31.850  10.427  45.165  1.00  0.00    -0.246 NA
HETATM   20  N5  UNL     1      30.419  10.073  48.989  1.00  0.00    -0.354 N 
HETATM   21  C16 UNL     1      29.116   9.638  49.293  1.00  0.00     0.091 C 
HETATM   22  C17 UNL     1      28.621   8.458  48.985  1.00  0.00     0.037 C 
HETATM   23  H19 UNL     1      31.351  10.140  49.407  1.00  0.00     0.166 HD
ENDROOT
TORSDOF 0
ENDMDL
MODEL 5
REMARK VINA RESULT:      -7.0      2.379      5.153
REMARK  0 active torsions:
REMARK  status: ('A' for Active; 'I' for Inactive)
ROOT
HETATM    1  C1  UNL     1      26.413   0.622  54.577  1.00  0.00     0.018 C 
HETATM    2  C2  UNL     1      25.818   1.215  53.672  1.00  0.00    -0.078 C 
HETATM    3  C3  UNL     1      25.111   1.942  52.611  1.00  0.00     0.014 C 
HETATM    4  C4  UNL     1      23.800   2.137  52.773  1.00  0.00    -0.004 C 
HETATM    5  C5  UNL     1      22.511   2.707  52.237  1.00  0.00     0.062 C 
HETATM    6  C6  UNL     1      21.457   1.635  52.045  1.00  0.00     0.070 C 
HETATM    7  C7  UNL     1      21.270   1.021  53.452  1.00  0.00     0.042 C 
HETATM    8  C8  UNL     1      21.923   0.531  51.148  1.00  0.00     0.042 C 
HETATM    9  N1  UNL     1      20.226   2.214  51.694  1.00  0.00    -0.188 NA
HETATM   10  N2  UNL     1      19.824   2.723  50.658  1.00  0.00    -0.197 NA
HETATM   11  C9  UNL     1      20.523   2.887  49.445  1.00  0.00     0.177 C 
HETATM   12  C10 UNL     1      20.609   4.319  48.946  1.00  0.00     0.052 C 
HETATM   13  C11 UNL     1      21.126   5.243  49.947  1.00  0.00     0.003 C 
HETATM   14  C12 UNL     1      22.319   5.792  49.939  1.00  0.00     0.039 C 
HETATM   15  C13 UNL     1      23.383   5.571  48.905  1.00  0.00     0.137 C 
HETATM   16  C14 UNL     1      24.466   4.755  49.597  1.00  0.00     0.110 C 
HETATM   17  N3  UNL     1      24.967   5.484  50.534  1.00  0.00    -0.228 NA
HETATM   18  C15 UNL     1      24.162   6.481  51.233  1.00  0.00     0.235 C 
HETATM   19  N4  UNL     1      22.886   6.679  50.932  1.00  0.00    -0.246 NA
HETATM   20  N5  UNL     1      25.086   3.486  49.605  1.00  0.00    -0.354 N 
HETATM   21  C16 UNL     1      26.122   2.893  50.351  1.00  0.00     0.091 C 
HETATM   22  C17 UNL     1      25.976   2.321  51.528  1.00  0.00     0.037 C 
HETATM   23  H19 UNL     1      24.430   3.272  48.851  1.00  0.00     0.166 HD
ENDROOT
TORSDOF 0
ENDMDL
MODEL 6
REMARK VINA RESULT:      -6.9      2.658      5.126
REMARK  0 active torsions:
REMARK  status: ('A' for Active; 'I' for Inactive)
ROOT
HETATM    1  C1  UNL     1      19.763   2.802  49.981  1.00  0.00     0.018 C 
HETATM    2  C2  UNL     1      20.666   2.503  50.767  1.00  0.00    -0.078 C 
HETATM    3  C3  UNL     1      21.752   2.136  51.683  1.00  0.00     0.014 C 
HETATM    4  C4  UNL     1      21.765   0.884  52.146  1.00  0.00    -0.004 C 
HETATM    5  C5  UNL     1      22.432  -0.161  53.003  1.00  0.00     0.062 C 
HETATM    6  C6  UNL     1      21.504  -0.684  54.081  1.00  0.00     0.070 C 
HETATM    7  C7  UNL     1      20.300  -1.265  53.304  1.00  0.00     0.042 C 
HETATM    8  C8  UNL     1      20.971   0.409  54.954  1.00  0.00     0.042 C 
HETATM    9  N1  UNL     1      22.098  -1.760  54.762  1.00  0.00    -0.188 NA
HETATM   10  N2  UNL     1      23.000  -1.813  55.584  1.00  0.00    -0.197 NA
HETATM   11  C9  UNL     1      23.750  -0.746  56.119  1.00  0.00     0.177 C 
HETATM   12  C10 UNL     1      25.253  -0.866  55.935  1.00  0.00     0.052 C 
HETATM   13  C11 UNL     1      25.643  -1.106  54.552  1.00  0.00     0.003 C 
HETATM   14  C12 UNL     1      26.210  -0.230  53.753  1.00  0.00     0.039 C 
HETATM   15  C13 UNL     1      26.560   1.185  54.106  1.00  0.00     0.137 C 
HETATM   16  C14 UNL     1      25.590   2.056  53.321  1.00  0.00     0.110 C 
HETATM   17  N3  UNL     1      25.835   1.885  52.068  1.00  0.00    -0.228 NA
HETATM   18  C15 UNL     1      26.343   0.615  51.560  1.00  0.00     0.235 C 
HETATM   19  N4  UNL     1      26.574  -0.413  52.365  1.00  0.00    -0.246 NA
HETATM   20  N5  UNL     1      24.503   2.947  53.471  1.00  0.00    -0.354 N 
HETATM   21  C16 UNL     1      23.702   3.691  52.586  1.00  0.00     0.091 C 
HETATM   22  C17 UNL     1      22.643   3.231  51.953  1.00  0.00     0.037 C 
HETATM   23  H19 UNL     1      24.619   2.760  54.470  1.00  0.00     0.166 HD
ENDROOT
TORSDOF 0
ENDMDL
MODEL 7
REMARK VINA RESULT:      -6.8      2.002      6.093
REMARK  0 active torsions:
REMARK  status: ('A' for Active; 'I' for Inactive)
ROOT
HETATM    1  C1  UNL     1      21.066  -1.571  54.345  1.00  0.00     0.018 C 
HETATM    2  C2  UNL     1      21.558  -0.725  53.594  1.00  0.00    -0.078 C 
HETATM    3  C3  UNL     1      22.136   0.301  52.717  1.00  0.00     0.014 C 
HETATM    4  C4  UNL     1      21.293   0.996  51.950  1.00  0.00    -0.004 C 
HETATM    5  C5  UNL     1      21.089   2.074  50.917  1.00  0.00     0.062 C 
HETATM    6  C6  UNL     1      20.434   1.536  49.661  1.00  0.00     0.070 C 
HETATM    7  C7  UNL     1      19.089   0.949  50.149  1.00  0.00     0.042 C 
HETATM    8  C8  UNL     1      21.206   0.406  49.054  1.00  0.00     0.042 C 
HETATM    9  N1  UNL     1      20.118   2.586  48.783  1.00  0.00    -0.188 NA
HETATM   10  N2  UNL     1      20.810   3.288  48.060  1.00  0.00    -0.197 NA
HETATM   11  C9  UNL     1      22.208   3.243  47.890  1.00  0.00     0.177 C 
HETATM   12  C10 UNL     1      22.928   4.551  48.173  1.00  0.00     0.052 C 
HETATM   13  C11 UNL     1      22.603   5.113  49.476  1.00  0.00     0.003 C 
HETATM   14  C12 UNL     1      23.398   5.132  50.522  1.00  0.00     0.039 C 
HETATM   15  C13 UNL     1      24.789   4.577  50.580  1.00  0.00     0.137 C 
HETATM   16  C14 UNL     1      24.704   3.346  51.471  1.00  0.00     0.110 C 
HETATM   17  N3  UNL     1      24.382   3.740  52.655  1.00  0.00    -0.228 NA
HETATM   18  C15 UNL     1      23.554   4.924  52.862  1.00  0.00     0.235 C 
HETATM   19  N4  UNL     1      23.100   5.641  51.844  1.00  0.00    -0.246 NA
HETATM   20  N5  UNL     1      24.811   1.937  51.457  1.00  0.00    -0.354 N 
HETATM   21  C16 UNL     1      24.698   0.925  52.428  1.00  0.00     0.091 C 
HETATM   22  C17 UNL     1      23.568   0.376  52.822  1.00  0.00     0.037 C 
HETATM   23  H19 UNL     1      24.995   2.061  50.459  1.00  0.00     0.166 HD
ENDROOT
TORSDOF 0
ENDMDL
MODEL 8
REMARK VINA RESULT:      -6.8      3.321      6.068
REMARK  0 active torsions:
REMARK  status: ('A' for Active; 'I' for Inactive)
ROOT
HETATM    1  C1  UNL     1      29.047   5.467  48.180  1.00  0.00     0.018 C 
HETATM    2  C2  UNL     1      27.871   5.365  48.542  1.00  0.00    -0.078 C 
HETATM    3  C3  UNL     1      26.468   5.235  48.949  1.00  0.00     0.014 C 
HETATM    4  C4  UNL     1      25.617   6.171  48.521  1.00  0.00    -0.004 C 
HETATM    5  C5  UNL     1      24.208   6.706  48.486  1.00  0.00     0.062 C 
HETATM    6  C6  UNL     1      24.121   8.107  49.056  1.00  0.00     0.070 C 
HETATM    7  C7  UNL     1      25.074   8.943  48.169  1.00  0.00     0.042 C 
HETATM    8  C8  UNL     1      24.648   8.187  50.455  1.00  0.00     0.042 C 
HETATM    9  N1  UNL     1      22.833   8.635  48.869  1.00  0.00    -0.188 NA
HETATM   10  N2  UNL     1      21.764   8.402  49.413  1.00  0.00    -0.197 NA
HETATM   11  C9  UNL     1      21.500   7.481  50.447  1.00  0.00     0.177 C 
HETATM   12  C10 UNL     1      20.429   6.453  50.128  1.00  0.00     0.052 C 
HETATM   13  C11 UNL     1      20.670   5.744  48.879  1.00  0.00     0.003 C 
HETATM   14  C12 UNL     1      21.066   4.496  48.771  1.00  0.00     0.039 C 
HETATM   15  C13 UNL     1      21.352   3.561  49.908  1.00  0.00     0.137 C 
HETATM   16  C14 UNL     1      22.862   3.368  49.911  1.00  0.00     0.110 C 
HETATM   17  N3  UNL     1      23.183   2.771  48.815  1.00  0.00    -0.228 NA
HETATM   18  C15 UNL     1      22.415   2.969  47.590  1.00  0.00     0.235 C 
HETATM   19  N4  UNL     1      21.358   3.767  47.554  1.00  0.00    -0.246 NA
HETATM   20  N5  UNL     1      24.030   3.638  50.660  1.00  0.00    -0.354 N 
HETATM   21  C16 UNL     1      25.399   3.362  50.494  1.00  0.00     0.091 C 
HETATM   22  C17 UNL     1      26.238   4.088  49.785  1.00  0.00     0.037 C 
HETATM   23  H19 UNL     1      23.385   4.095  51.310  1.00  0.00     0.166 HD
ENDROOT
TORSDOF 0
ENDMDL
MODEL 9
REMARK VINA RESULT:      -6.8      2.964      6.430
REMARK  0 active torsions:
REMARK  status: ('A' for Active; 'I' for Inactive)
ROOT
HETATM    1  C1  UNL     1      24.428   0.307  53.070  1.00  0.00     0.018 C 
HETATM    2  C2  UNL     1      24.394   1.182  52.200  1.00  0.00    -0.078 C 
HETATM    3  C3  UNL     1      24.348   2.240  51.185  1.00  0.00     0.014 C 
HETATM    4  C4  UNL     1      23.145   2.598  50.728  1.00  0.00    -0.004 C 
HETATM    5  C5  UNL     1      22.327   3.474  49.815  1.00  0.00     0.062 C 
HETATM    6  C6  UNL     1      21.508   2.659  48.834  1.00  0.00     0.070 C 
HETATM    7  C7  UNL     1      20.611   1.770  49.728  1.00  0.00     0.042 C 
HETATM    8  C8  UNL     1      22.353   1.737  48.012  1.00  0.00     0.042 C 
HETATM    9  N1  UNL     1      20.643   3.492  48.104  1.00  0.00    -0.188 NA
HETATM   10  N2  UNL     1      20.842   4.287  47.198  1.00  0.00    -0.197 NA
HETATM   11  C9  UNL     1      22.069   4.618  46.588  1.00  0.00     0.177 C 
HETATM   12  C10 UNL     1      22.423   6.095  46.626  1.00  0.00     0.052 C 
HETATM   13  C11 UNL     1      22.363   6.664  47.965  1.00  0.00     0.003 C 
HETATM   14  C12 UNL     1      23.397   7.003  48.701  1.00  0.00     0.039 C 
HETATM   15  C13 UNL     1      24.838   6.865  48.310  1.00  0.00     0.137 C 
HETATM   16  C14 UNL     1      25.395   5.749  49.182  1.00  0.00     0.110 C 
HETATM   17  N3  UNL     1      25.351   6.148  50.406  1.00  0.00    -0.228 NA
HETATM   18  C15 UNL     1      24.316   7.068  50.868  1.00  0.00     0.235 C 
HETATM   19  N4  UNL     1      23.383   7.531  50.049  1.00  0.00    -0.246 NA
HETATM   20  N5  UNL     1      25.903   4.431  49.134  1.00  0.00    -0.354 N 
HETATM   21  C16 UNL     1      26.395   3.523  50.090  1.00  0.00     0.091 C 
HETATM   22  C17 UNL     1      25.654   2.721  50.825  1.00  0.00     0.037 C 
HETATM   23  H19 UNL     1      25.727   4.507  48.129  1.00  0.00     0.166 HD
ENDROOT
TORSDOF 0
ENDMDL
