MODEL 1
REMARK VINA RESULT:      -7.5      0.000      0.000
REMARK  4 active torsions:
REMARK  status: ('A' for Active; 'I' for Inactive)
REMARK    1  A    between atoms: N1_2  and  C2_3 
REMARK    2  A    between atoms: C3_4  and  C4_5 
REMARK    3  A    between atoms: C9_12  and  C10_13 
REMARK    4  A    between atoms: C10_13  and  C11_14 
ROOT
HETATM    1  C4  UNL     1      22.303  -0.185  53.254  1.00  0.00     0.029 C 
HETATM    2  C5  UNL     1      22.507   0.635  52.263  1.00  0.00     0.031 C 
HETATM    3  C6  UNL     1      23.643   1.370  51.777  1.00  0.00     0.035 C 
HETATM    4  C7  UNL     1      24.913   1.430  52.134  1.00  0.00     0.070 A 
HETATM    5  N2  UNL     1      25.411   2.314  51.257  1.00  0.00    -0.241 NA
HETATM    6  C8  UNL     1      26.722   2.594  51.367  1.00  0.00     0.234 A 
HETATM    7  N3  UNL     1      27.507   2.045  52.277  1.00  0.00    -0.245 NA
HETATM    8  C9  UNL     1      27.115   1.134  53.219  1.00  0.00     0.051 A 
HETATM    9  C14 UNL     1      25.769   0.884  53.065  1.00  0.00     0.015 A 
HETATM   10  C15 UNL     1      25.468   0.015  54.015  1.00  0.00     0.008 C 
HETATM   11  C16 UNL     1      24.489  -0.819  54.706  1.00  0.00     0.148 C 
HETATM   12  N4  UNL     1      23.141  -0.694  54.278  1.00  0.00    -0.386 N 
HETATM   13  H18 UNL     1      22.509  -1.162  54.998  1.00  0.00     0.160 HD
ENDROOT
BRANCH   1  14
HETATM   14  C3  UNL     1      20.951  -0.689  53.346  1.00  0.00     0.048 C 
HETATM   15  C2  UNL     1      19.985  -0.066  52.706  1.00  0.00     0.112 C 
BRANCH  15  16
HETATM   16  N1  UNL     1      18.602  -0.459  52.712  1.00  0.00    -0.300 NA
HETATM   17  C1  UNL     1      18.222  -1.478  53.421  1.00  0.00     0.170 C 
ENDBRANCH  15  16
ENDBRANCH   1  14
BRANCH   8  18
HETATM   18  C10 UNL     1      27.999   0.514  54.190  1.00  0.00     0.087 C 
BRANCH  18  19
HETATM   19  C11 UNL     1      29.443   0.439  53.846  1.00  0.00    -0.025 C 
HETATM   20  C12 UNL     1      30.052  -0.698  53.420  1.00  0.00    -0.035 C 
HETATM   21  C13 UNL     1      29.205  -1.924  53.300  1.00  0.00     0.036 C 
ENDBRANCH  18  19
ENDBRANCH   8  18
TORSDOF 4
ENDMDL
MODEL 2
REMARK VINA RESULT:      -7.2      2.447      6.795
REMARK  4 active torsions:
REMARK  status: ('A' for Active; 'I' for Inactive)
REMARK    1  A    between atoms: N1_2  and  C2_3 
REMARK    2  A    between atoms: C3_4  and  C4_5 
REMARK    3  A    between atoms: C9_12  and  C10_13 
REMARK    4  A    between atoms: C10_13  and  C11_14 
ROOT
HETATM    1  C4  UNL     1      25.695   3.268  50.416  1.00  0.00     0.029 C 
HETATM    2  C5  UNL     1      26.736   2.892  51.103  1.00  0.00     0.031 C 
HETATM    3  C6  UNL     1      26.961   1.943  52.158  1.00  0.00     0.035 C 
HETATM    4  C7  UNL     1      26.195   1.061  52.773  1.00  0.00     0.070 A 
HETATM    5  N2  UNL     1      27.046   0.512  53.653  1.00  0.00    -0.241 NA
HETATM    6  C8  UNL     1      26.547  -0.450  54.450  1.00  0.00     0.234 A 
HETATM    7  N3  UNL     1      25.291  -0.858  54.395  1.00  0.00    -0.245 NA
HETATM    8  C9  UNL     1      24.335  -0.375  53.543  1.00  0.00     0.051 A 
HETATM    9  C14 UNL     1      24.896   0.605  52.753  1.00  0.00     0.015 A 
HETATM   10  C15 UNL     1      23.912   1.027  51.977  1.00  0.00     0.008 C 
HETATM   11  C16 UNL     1      23.417   1.909  50.924  1.00  0.00     0.148 C 
HETATM   12  N4  UNL     1      24.332   2.880  50.434  1.00  0.00    -0.386 N 
HETATM   13  H18 UNL     1      23.793   3.595  49.856  1.00  0.00     0.160 HD
ENDROOT
BRANCH   1  14
HETATM   14  C3  UNL     1      25.965   4.288  49.428  1.00  0.00     0.048 C 
HETATM   15  C2  UNL     1      27.210   4.614  49.161  1.00  0.00     0.112 C 
BRANCH  15  16
HETATM   16  N1  UNL     1      27.619   5.607  48.205  1.00  0.00    -0.300 NA
HETATM   17  C1  UNL     1      28.855   6.006  48.175  1.00  0.00     0.170 C 
ENDBRANCH  15  16
ENDBRANCH   1  14
BRANCH   8  18
HETATM   18  C10 UNL     1      22.968  -0.859  53.472  1.00  0.00     0.087 C 
BRANCH  18  19
HETATM   19  C11 UNL     1      22.139  -0.741  54.701  1.00  0.00    -0.025 C 
HETATM   20  C12 UNL     1      21.021   0.026  54.777  1.00  0.00    -0.035 C 
HETATM   21  C13 UNL     1      20.624   0.781  53.550  1.00  0.00     0.036 C 
ENDBRANCH  18  19
ENDBRANCH   8  18
TORSDOF 4
ENDMDL
MODEL 3
REMARK VINA RESULT:      -7.2      1.674      2.802
REMARK  4 active torsions:
REMARK  status: ('A' for Active; 'I' for Inactive)
REMARK    1  A    between atoms: N1_2  and  C2_3 
REMARK    2  A    between atoms: C3_4  and  C4_5 
REMARK    3  A    between atoms: C9_12  and  C10_13 
REMARK    4  A    between atoms: C10_13  and  C11_14 
ROOT
HETATM    1  C4  UNL     1      19.651  -0.834  53.247  1.00  0.00     0.029 C 
HETATM    2  C5  UNL     1      19.902   0.020  52.296  1.00  0.00     0.031 C 
HETATM    3  C6  UNL     1      21.078   0.714  51.846  1.00  0.00     0.035 C 
HETATM    4  C7  UNL     1      22.348   0.689  52.205  1.00  0.00     0.070 A 
HETATM    5  N2  UNL     1      22.895   1.585  51.371  1.00  0.00    -0.241 NA
HETATM    6  C8  UNL     1      24.219   1.789  51.495  1.00  0.00     0.234 A 
HETATM    7  N3  UNL     1      24.971   1.157  52.378  1.00  0.00    -0.245 NA
HETATM    8  C9  UNL     1      24.527   0.225  53.277  1.00  0.00     0.051 A 
HETATM    9  C14 UNL     1      23.170   0.055  53.110  1.00  0.00     0.015 A 
HETATM   10  C15 UNL     1      22.820  -0.840  54.018  1.00  0.00     0.008 C 
HETATM   11  C16 UNL     1      21.796  -1.652  54.669  1.00  0.00     0.148 C 
HETATM   12  N4  UNL     1      20.457  -1.435  54.247  1.00  0.00    -0.386 N 
HETATM   13  H18 UNL     1      19.799  -1.901  54.944  1.00  0.00     0.160 HD
ENDROOT
BRANCH   1  14
HETATM   14  C3  UNL     1      18.274  -1.268  53.315  1.00  0.00     0.048 C 
HETATM   15  C2  UNL     1      18.008  -2.547  53.469  1.00  0.00     0.112 C 
BRANCH  15  16
HETATM   16  N1  UNL     1      16.690  -3.114  53.552  1.00  0.00    -0.300 NA
HETATM   17  C1  UNL     1      16.542  -4.404  53.601  1.00  0.00     0.170 C 
ENDBRANCH  15  16
ENDBRANCH   1  14
BRANCH   8  18
HETATM   18  C10 UNL     1      25.374  -0.487  54.218  1.00  0.00     0.087 C 
BRANCH  18  19
HETATM   19  C11 UNL     1      26.453   0.288  54.884  1.00  0.00    -0.025 C 
HETATM   20  C12 UNL     1      27.762   0.199  54.534  1.00  0.00    -0.035 C 
HETATM   21  C13 UNL     1      28.111  -0.734  53.419  1.00  0.00     0.036 C 
ENDBRANCH  18  19
ENDBRANCH   8  18
TORSDOF 4
ENDMDL
MODEL 4
REMARK VINA RESULT:      -7.1      1.978      3.490
REMARK  4 active torsions:
REMARK  status: ('A' for Active; 'I' for Inactive)
REMARK    1  A    between atoms: N1_2  and  C2_3 
REMARK    2  A    between atoms: C3_4  and  C4_5 
REMARK    3  A    between atoms: C9_12  and  C10_13 
REMARK    4  A    between atoms: C10_13  and  C11_14 
ROOT
HETATM    1  C4  UNL     1      20.591   0.229  52.162  1.00  0.00     0.029 C 
HETATM    2  C5  UNL     1      20.465  -0.445  53.269  1.00  0.00     0.031 C 
HETATM    3  C6  UNL     1      21.382  -0.944  54.257  1.00  0.00     0.035 C 
HETATM    4  C7  UNL     1      22.688  -0.846  54.426  1.00  0.00     0.070 A 
HETATM    5  N2  UNL     1      22.881  -1.551  55.551  1.00  0.00    -0.241 NA
HETATM    6  C8  UNL     1      24.149  -1.638  55.993  1.00  0.00     0.234 A 
HETATM    7  N3  UNL     1      25.172  -1.071  55.377  1.00  0.00    -0.245 NA
HETATM    8  C9  UNL     1      25.098  -0.332  54.229  1.00  0.00     0.051 A 
HETATM    9  C14 UNL     1      23.783  -0.275  53.819  1.00  0.00     0.015 A 
HETATM   10  C15 UNL     1      23.801   0.437  52.704  1.00  0.00     0.008 C 
HETATM   11  C16 UNL     1      23.099   1.038  51.573  1.00  0.00     0.148 C 
HETATM   12  N4  UNL     1      21.712   0.753  51.469  1.00  0.00    -0.386 N 
HETATM   13  H18 UNL     1      21.375   1.043  50.500  1.00  0.00     0.160 HD
ENDROOT
BRANCH   1  14
HETATM   14  C3  UNL     1      19.344   0.510  51.486  1.00  0.00     0.048 C 
HETATM   15  C2  UNL     1      18.296  -0.247  51.726  1.00  0.00     0.112 C 
BRANCH  15  16
HETATM   16  N1  UNL     1      17.000  -0.080  51.125  1.00  0.00    -0.300 NA
HETATM   17  C1  UNL     1      16.859  -0.225  49.842  1.00  0.00     0.170 C 
ENDBRANCH  15  16
ENDBRANCH   1  14
BRANCH   8  18
HETATM   18  C10 UNL     1      26.228   0.314  53.585  1.00  0.00     0.087 C 
BRANCH  18  19
HETATM   19  C11 UNL     1      27.395   0.657  54.440  1.00  0.00    -0.025 C 
HETATM   20  C12 UNL     1      28.599   0.035  54.346  1.00  0.00    -0.035 C 
HETATM   21  C13 UNL     1      28.732  -1.047  53.324  1.00  0.00     0.036 C 
ENDBRANCH  18  19
ENDBRANCH   8  18
TORSDOF 4
ENDMDL
MODEL 5
REMARK VINA RESULT:      -6.9      1.869      7.031
REMARK  4 active torsions:
REMARK  status: ('A' for Active; 'I' for Inactive)
REMARK    1  A    between atoms: N1_2  and  C2_3 
REMARK    2  A    between atoms: C3_4  and  C4_5 
REMARK    3  A    between atoms: C9_12  and  C10_13 
REMARK    4  A    between atoms: C10_13  and  C11_14 
ROOT
HETATM    1  C4  UNL     1      25.779   0.045  53.760  1.00  0.00     0.029 C 
HETATM    2  C5  UNL     1      24.929  -0.684  54.424  1.00  0.00     0.031 C 
HETATM    3  C6  UNL     1      23.502  -0.849  54.398  1.00  0.00     0.035 C 
HETATM    4  C7  UNL     1      22.539  -0.356  53.641  1.00  0.00     0.070 A 
HETATM    5  N2  UNL     1      21.445  -0.929  54.167  1.00  0.00    -0.241 NA
HETATM    6  C8  UNL     1      20.270  -0.614  53.594  1.00  0.00     0.234 A 
HETATM    7  N3  UNL     1      20.161   0.210  52.567  1.00  0.00    -0.245 NA
HETATM    8  C9  UNL     1      21.200   0.850  51.948  1.00  0.00     0.051 A 
HETATM    9  C14 UNL     1      22.377   0.496  52.572  1.00  0.00     0.015 A 
HETATM   10  C15 UNL     1      23.321   1.164  51.931  1.00  0.00     0.008 C 
HETATM   11  C16 UNL     1      24.726   1.519  51.756  1.00  0.00     0.148 C 
HETATM   12  N4  UNL     1      25.632   0.994  52.716  1.00  0.00    -0.386 N 
HETATM   13  H18 UNL     1      26.564   1.505  52.622  1.00  0.00     0.160 HD
ENDROOT
BRANCH   1  14
HETATM   14  C3  UNL     1      27.159  -0.135  54.151  1.00  0.00     0.048 C 
HETATM   15  C2  UNL     1      28.113   0.371  53.401  1.00  0.00     0.112 C 
BRANCH  15  16
HETATM   16  N1  UNL     1      29.522   0.266  53.671  1.00  0.00    -0.300 NA
HETATM   17  C1  UNL     1      30.083  -0.904  53.733  1.00  0.00     0.170 C 
ENDBRANCH  15  16
ENDBRANCH   1  14
BRANCH   8  18
HETATM   18  C10 UNL     1      21.066   1.725  50.797  1.00  0.00     0.087 C 
BRANCH  18  19
HETATM   19  C11 UNL     1      20.884   1.081  49.469  1.00  0.00    -0.025 C 
HETATM   20  C12 UNL     1      21.620   1.404  48.375  1.00  0.00    -0.035 C 
HETATM   21  C13 UNL     1      22.661   2.464  48.538  1.00  0.00     0.036 C 
ENDBRANCH  18  19
ENDBRANCH   8  18
TORSDOF 4
ENDMDL
MODEL 6
REMARK VINA RESULT:      -6.9      1.795      7.269
REMARK  4 active torsions:
REMARK  status: ('A' for Active; 'I' for Inactive)
REMARK    1  A    between atoms: N1_2  and  C2_3 
REMARK    2  A    between atoms: C3_4  and  C4_5 
REMARK    3  A    between atoms: C9_12  and  C10_13 
REMARK    4  A    between atoms: C10_13  and  C11_14 
ROOT
HETATM    1  C4  UNL     1      24.824   0.361  52.977  1.00  0.00     0.029 C 
HETATM    2  C5  UNL     1      24.549   1.171  51.995  1.00  0.00     0.031 C 
HETATM    3  C6  UNL     1      23.351   1.529  51.286  1.00  0.00     0.035 C 
HETATM    4  C7  UNL     1      22.078   1.202  51.418  1.00  0.00     0.070 A 
HETATM    5  N2  UNL     1      21.504   1.896  50.424  1.00  0.00    -0.241 NA
HETATM    6  C8  UNL     1      20.171   1.767  50.295  1.00  0.00     0.234 A 
HETATM    7  N3  UNL     1      19.436   1.008  51.089  1.00  0.00    -0.245 NA
HETATM    8  C9  UNL     1      19.907   0.259  52.132  1.00  0.00     0.051 A 
HETATM    9  C14 UNL     1      21.273   0.425  52.219  1.00  0.00     0.015 A 
HETATM   10  C15 UNL     1      21.648  -0.338  53.232  1.00  0.00     0.008 C 
HETATM   11  C16 UNL     1      22.698  -0.873  54.095  1.00  0.00     0.148 C 
HETATM   12  N4  UNL     1      24.031  -0.516  53.760  1.00  0.00    -0.386 N 
HETATM   13  H18 UNL     1      24.700  -1.143  54.304  1.00  0.00     0.160 HD
ENDROOT
BRANCH   1  14
HETATM   14  C3  UNL     1      26.217   0.336  53.361  1.00  0.00     0.048 C 
HETATM   15  C2  UNL     1      26.547  -0.083  54.563  1.00  0.00     0.112 C 
BRANCH  15  16
HETATM   16  N1  UNL     1      27.889  -0.159  55.073  1.00  0.00    -0.300 NA
HETATM   17  C1  UNL     1      28.886   0.221  54.332  1.00  0.00     0.170 C 
ENDBRANCH  15  16
ENDBRANCH   1  14
BRANCH   8  18
HETATM   18  C10 UNL     1      19.080  -0.542  53.017  1.00  0.00     0.087 C 
BRANCH  18  19
HETATM   19  C11 UNL     1      17.678  -0.795  52.594  1.00  0.00    -0.025 C 
HETATM   20  C12 UNL     1      17.005  -1.939  52.883  1.00  0.00    -0.035 C 
HETATM   21  C13 UNL     1      17.734  -2.983  53.666  1.00  0.00     0.036 C 
ENDBRANCH  18  19
ENDBRANCH   8  18
TORSDOF 4
ENDMDL
MODEL 7
REMARK VINA RESULT:      -6.8      2.042      6.992
REMARK  4 active torsions:
REMARK  status: ('A' for Active; 'I' for Inactive)
REMARK    1  A    between atoms: N1_2  and  C2_3 
REMARK    2  A    between atoms: C3_4  and  C4_5 
REMARK    3  A    between atoms: C9_12  and  C10_13 
REMARK    4  A    between atoms: C10_13  and  C11_14 
ROOT
HETATM    1  C4  UNL     1      25.594   0.454  53.516  1.00  0.00     0.029 C 
HETATM    2  C5  UNL     1      25.571   1.724  53.229  1.00  0.00     0.031 C 
HETATM    3  C6  UNL     1      24.545   2.652  52.840  1.00  0.00     0.035 C 
HETATM    4  C7  UNL     1      23.237   2.560  52.690  1.00  0.00     0.070 A 
HETATM    5  N2  UNL     1      22.907   3.803  52.308  1.00  0.00    -0.241 NA
HETATM    6  C8  UNL     1      21.603   4.031  52.072  1.00  0.00     0.234 A 
HETATM    7  N3  UNL     1      20.670   3.105  52.200  1.00  0.00    -0.245 NA
HETATM    8  C9  UNL     1      20.884   1.809  52.581  1.00  0.00     0.051 A 
HETATM    9  C14 UNL     1      22.231   1.627  52.809  1.00  0.00     0.015 A 
HETATM   10  C15 UNL     1      22.354   0.357  53.153  1.00  0.00     0.008 C 
HETATM   11  C16 UNL     1      23.189  -0.774  53.549  1.00  0.00     0.148 C 
HETATM   12  N4  UNL     1      24.591  -0.548  53.561  1.00  0.00    -0.386 N 
HETATM   13  H18 UNL     1      25.088  -1.488  53.632  1.00  0.00     0.160 HD
ENDROOT
BRANCH   1  14
HETATM   14  C3  UNL     1      26.901  -0.059  53.863  1.00  0.00     0.048 C 
HETATM   15  C2  UNL     1      27.451  -0.985  53.109  1.00  0.00     0.112 C 
BRANCH  15  16
HETATM   16  N1  UNL     1      28.740  -1.580  53.337  1.00  0.00    -0.300 NA
HETATM   17  C1  UNL     1      29.730  -0.844  53.743  1.00  0.00     0.170 C 
ENDBRANCH  15  16
ENDBRANCH   1  14
BRANCH   8  18
HETATM   18  C10 UNL     1      19.841   0.812  52.751  1.00  0.00     0.087 C 
BRANCH  18  19
HETATM   19  C11 UNL     1      18.984   0.516  51.573  1.00  0.00    -0.025 C 
HETATM   20  C12 UNL     1      18.021  -0.442  51.571  1.00  0.00    -0.035 C 
HETATM   21  C13 UNL     1      17.833  -1.225  52.830  1.00  0.00     0.036 C 
ENDBRANCH  18  19
ENDBRANCH   8  18
TORSDOF 4
ENDMDL
MODEL 8
REMARK VINA RESULT:      -6.8      2.558      6.066
REMARK  4 active torsions:
REMARK  status: ('A' for Active; 'I' for Inactive)
REMARK    1  A    between atoms: N1_2  and  C2_3 
REMARK    2  A    between atoms: C3_4  and  C4_5 
REMARK    3  A    between atoms: C9_12  and  C10_13 
REMARK    4  A    between atoms: C10_13  and  C11_14 
ROOT
HETATM    1  C4  UNL     1      25.344   3.981  50.069  1.00  0.00     0.029 C 
HETATM    2  C5  UNL     1      24.088   3.637  50.106  1.00  0.00     0.031 C 
HETATM    3  C6  UNL     1      23.348   2.584  50.745  1.00  0.00     0.035 C 
HETATM    4  C7  UNL     1      23.673   1.613  51.579  1.00  0.00     0.070 A 
HETATM    5  N2  UNL     1      22.496   0.999  51.770  1.00  0.00    -0.241 NA
HETATM    6  C8  UNL     1      22.501  -0.062  52.597  1.00  0.00     0.234 A 
HETATM    7  N3  UNL     1      23.589  -0.503  53.204  1.00  0.00    -0.245 NA
HETATM    8  C9  UNL     1      24.840   0.039  53.087  1.00  0.00     0.051 A 
HETATM    9  C14 UNL     1      24.780   1.119  52.232  1.00  0.00     0.015 A 
HETATM   10  C15 UNL     1      26.020   1.571  52.160  1.00  0.00     0.008 C 
HETATM   11  C16 UNL     1      26.994   2.521  51.630  1.00  0.00     0.148 C 
HETATM   12  N4  UNL     1      26.514   3.439  50.659  1.00  0.00    -0.386 N 
HETATM   13  H18 UNL     1      27.349   3.907  50.188  1.00  0.00     0.160 HD
ENDROOT
BRANCH   1  14
HETATM   14  C3  UNL     1      25.622   5.151  49.267  1.00  0.00     0.048 C 
HETATM   15  C2  UNL     1      26.855   5.387  48.875  1.00  0.00     0.112 C 
BRANCH  15  16
HETATM   16  N1  UNL     1      27.270   6.509  48.078  1.00  0.00    -0.300 NA
HETATM   17  C1  UNL     1      28.534   6.713  47.858  1.00  0.00     0.170 C 
ENDBRANCH  15  16
ENDBRANCH   1  14
BRANCH   8  18
HETATM   18  C10 UNL     1      26.018  -0.436  53.790  1.00  0.00     0.087 C 
BRANCH  18  19
HETATM   19  C11 UNL     1      26.889  -1.409  53.079  1.00  0.00    -0.025 C 
HETATM   20  C12 UNL     1      28.246  -1.350  53.097  1.00  0.00    -0.035 C 
HETATM   21  C13 UNL     1      28.872  -0.241  53.880  1.00  0.00     0.036 C 
ENDBRANCH  18  19
ENDBRANCH   8  18
TORSDOF 4
ENDMDL
MODEL 9
REMARK VINA RESULT:      -6.7      1.946      3.700
REMARK  4 active torsions:
REMARK  status: ('A' for Active; 'I' for Inactive)
REMARK    1  A    between atoms: N1_2  and  C2_3 
REMARK    2  A    between atoms: C3_4  and  C4_5 
REMARK    3  A    between atoms: C9_12  and  C10_13 
REMARK    4  A    between atoms: C10_13  and  C11_14 
ROOT
HETATM    1  C4  UNL     1      20.738  -0.212  53.003  1.00  0.00     0.029 C 
HETATM    2  C5  UNL     1      21.499  -0.924  53.784  1.00  0.00     0.031 C 
HETATM    3  C6  UNL     1      22.905  -0.940  54.083  1.00  0.00     0.035 C 
HETATM    4  C7  UNL     1      23.928  -0.193  53.712  1.00  0.00     0.070 A 
HETATM    5  N2  UNL     1      24.950  -0.767  54.364  1.00  0.00    -0.241 NA
HETATM    6  C8  UNL     1      26.162  -0.214  54.183  1.00  0.00     0.234 A 
HETATM    7  N3  UNL     1      26.373   0.837  53.412  1.00  0.00    -0.245 NA
HETATM    8  C9  UNL     1      25.413   1.505  52.700  1.00  0.00     0.051 A 
HETATM    9  C14 UNL     1      24.194   0.901  52.918  1.00  0.00     0.015 A 
HETATM   10  C15 UNL     1      23.333   1.589  52.189  1.00  0.00     0.008 C 
HETATM   11  C16 UNL     1      21.971   1.813  51.710  1.00  0.00     0.148 C 
HETATM   12  N4  UNL     1      20.998   0.859  52.111  1.00  0.00    -0.386 N 
HETATM   13  H18 UNL     1      20.122   0.996  51.519  1.00  0.00     0.160 HD
ENDROOT
BRANCH   1  14
HETATM   14  C3  UNL     1      19.339  -0.573  53.038  1.00  0.00     0.048 C 
HETATM   15  C2  UNL     1      18.568  -0.267  52.017  1.00  0.00     0.112 C 
BRANCH  15  16
HETATM   16  N1  UNL     1      17.165  -0.565  51.921  1.00  0.00    -0.300 NA
HETATM   17  C1  UNL     1      16.631  -1.433  52.727  1.00  0.00     0.170 C 
ENDBRANCH  15  16
ENDBRANCH   1  14
BRANCH   8  18
HETATM   18  C10 UNL     1      25.656   2.682  51.884  1.00  0.00     0.087 C 
BRANCH  18  19
HETATM   19  C11 UNL     1      26.595   2.536  50.741  1.00  0.00    -0.025 C 
HETATM   20  C12 UNL     1      26.483   3.242  49.586  1.00  0.00    -0.035 C 
HETATM   21  C13 UNL     1      25.348   4.209  49.483  1.00  0.00     0.036 C 
ENDBRANCH  18  19
ENDBRANCH   8  18
TORSDOF 4
ENDMDL
