MODEL 1
REMARK VINA RESULT:      -7.8      0.000      0.000
REMARK  1 active torsions:
REMARK  status: ('A' for Active; 'I' for Inactive)
REMARK    1  A    between atoms: O1_2  and  C2_3 
ROOT
HETATM    1  C2  UNL     1      17.297  -0.416  52.129  1.00  0.00     0.107 C 
HETATM    2  C3  UNL     1      18.255  -0.013  51.321  1.00  0.00     0.173 C 
HETATM    3  O2  UNL     1      19.619  -0.199  51.483  1.00  0.00    -0.354 OA
HETATM    4  C4  UNL     1      20.329   0.671  52.377  1.00  0.00     0.231 C 
HETATM    5  C5  UNL     1      21.415  -0.093  53.069  1.00  0.00     0.035 C 
HETATM    6  C6  UNL     1      22.552   0.425  52.798  1.00  0.00    -0.010 C 
HETATM    7  C7  UNL     1      23.441  -0.482  53.577  1.00  0.00     0.030 C 
HETATM    8  C8  UNL     1      24.708  -0.727  53.914  1.00  0.00     0.091 C 
HETATM    9  N1  UNL     1      26.063  -0.265  53.743  1.00  0.00    -0.370 N 
HETATM   10  C9  UNL     1      26.647   0.425  54.911  1.00  0.00     0.154 C 
HETATM   11  C10 UNL     1      26.844  -0.459  52.559  1.00  0.00     0.102 C 
HETATM   12  C11 UNL     1      26.563   0.517  51.718  1.00  0.00    -0.008 C 
HETATM   13  C12 UNL     1      26.229   1.636  52.307  1.00  0.00     0.032 C 
HETATM   14  C13 UNL     1      24.845   1.463  52.259  1.00  0.00     0.012 C 
HETATM   15 BR1  UNL     1      24.802   2.865  50.906  1.00  0.00    -0.051 Br
HETATM   16  C14 UNL     1      23.593   1.218  52.289  1.00  0.00     0.032 C 
HETATM   17  N2  UNL     1      21.000  -1.172  53.866  1.00  0.00    -0.373 NA
HETATM   18  C15 UNL     1      19.813  -1.593  53.870  1.00  0.00     0.403 C 
HETATM   19  N3  UNL     1      18.733  -1.080  53.108  1.00  0.00    -0.251 NA
HETATM   20  C16 UNL     1      17.509  -1.150  53.378  1.00  0.00     0.156 C 
ENDROOT
BRANCH   1  21
HETATM   21  O1  UNL     1      15.990  -0.118  51.764  1.00  0.00    -0.353 OA
HETATM   22  C1  UNL     1      15.165   0.703  52.596  1.00  0.00     0.210 C 
ENDBRANCH   1  21
TORSDOF 1
ENDMDL
MODEL 2
REMARK VINA RESULT:      -7.7      3.233      7.713
REMARK  1 active torsions:
REMARK  status: ('A' for Active; 'I' for Inactive)
REMARK    1  A    between atoms: O1_2  and  C2_3 
ROOT
HETATM    1  C2  UNL     1      26.182   0.082  54.234  1.00  0.00     0.107 C 
HETATM    2  C3  UNL     1      25.233  -0.779  53.933  1.00  0.00     0.173 C 
HETATM    3  O2  UNL     1      24.078  -0.531  53.206  1.00  0.00    -0.354 OA
HETATM    4  C4  UNL     1      22.972   0.100  53.867  1.00  0.00     0.231 C 
HETATM    5  C5  UNL     1      22.266   1.013  52.912  1.00  0.00     0.035 C 
HETATM    6  C6  UNL     1      21.051   0.639  52.772  1.00  0.00    -0.010 C 
HETATM    7  C7  UNL     1      20.575   1.668  51.807  1.00  0.00     0.030 C 
HETATM    8  C8  UNL     1      19.516   2.098  51.118  1.00  0.00     0.091 C 
HETATM    9  N1  UNL     1      18.120   1.843  50.860  1.00  0.00    -0.370 N 
HETATM   10  C9  UNL     1      17.178   2.785  51.497  1.00  0.00     0.154 C 
HETATM   11  C10 UNL     1      17.629   0.786  50.029  1.00  0.00     0.102 C 
HETATM   12  C11 UNL     1      17.539  -0.305  50.764  1.00  0.00    -0.008 C 
HETATM   13  C12 UNL     1      17.287  -0.067  52.026  1.00  0.00     0.032 C 
HETATM   14  C13 UNL     1      18.604  -0.104  52.486  1.00  0.00     0.012 C 
HETATM   15 BR1  UNL     1      18.166  -1.800  53.341  1.00  0.00    -0.051 Br
HETATM   16  C14 UNL     1      19.826  -0.043  52.846  1.00  0.00     0.032 C 
HETATM   17  N2  UNL     1      23.028   2.070  52.389  1.00  0.00    -0.373 NA
HETATM   18  C15 UNL     1      24.272   2.158  52.563  1.00  0.00     0.403 C 
HETATM   19  N3  UNL     1      25.090   1.250  53.284  1.00  0.00    -0.251 NA
HETATM   20  C16 UNL     1      26.186   1.494  53.844  1.00  0.00     0.156 C 
ENDROOT
BRANCH   1  21
HETATM   21  O1  UNL     1      27.256  -0.390  54.977  1.00  0.00    -0.353 OA
HETATM   22  C1  UNL     1      28.558   0.187  54.836  1.00  0.00     0.210 C 
ENDBRANCH   1  21
TORSDOF 1
ENDMDL
MODEL 3
REMARK VINA RESULT:      -7.6      5.278      8.131
REMARK  1 active torsions:
REMARK  status: ('A' for Active; 'I' for Inactive)
REMARK    1  A    between atoms: O1_2  and  C2_3 
ROOT
HETATM    1  C2  UNL     1      27.474  -0.096  53.604  1.00  0.00     0.107 C 
HETATM    2  C3  UNL     1      27.882   1.113  53.276  1.00  0.00     0.173 C 
HETATM    3  O2  UNL     1      27.115   2.139  52.746  1.00  0.00    -0.354 OA
HETATM    4  C4  UNL     1      26.810   2.116  51.344  1.00  0.00     0.231 C 
HETATM    5  C5  UNL     1      25.434   2.662  51.117  1.00  0.00     0.035 C 
HETATM    6  C6  UNL     1      25.494   3.694  50.363  1.00  0.00    -0.010 C 
HETATM    7  C7  UNL     1      24.048   4.042  50.287  1.00  0.00     0.030 C 
HETATM    8  C8  UNL     1      23.167   4.894  49.761  1.00  0.00     0.091 C 
HETATM    9  N1  UNL     1      23.040   6.048  48.906  1.00  0.00    -0.370 N 
HETATM   10  C9  UNL     1      22.490   5.780  47.561  1.00  0.00     0.154 C 
HETATM   11  C10 UNL     1      23.378   7.385  49.291  1.00  0.00     0.102 C 
HETATM   12  C11 UNL     1      24.668   7.557  49.081  1.00  0.00    -0.008 C 
HETATM   13  C12 UNL     1      25.137   6.844  48.089  1.00  0.00     0.032 C 
HETATM   14  C13 UNL     1      25.606   5.768  48.844  1.00  0.00     0.012 C 
HETATM   15 BR1  UNL     1      27.412   6.393  48.456  1.00  0.00    -0.051 Br
HETATM   16  C14 UNL     1      25.925   4.760  49.558  1.00  0.00     0.032 C 
HETATM   17  N2  UNL     1      24.382   1.962  51.729  1.00  0.00    -0.373 NA
HETATM   18  C15 UNL     1      24.579   1.037  52.561  1.00  0.00     0.403 C 
HETATM   19  N3  UNL     1      25.837   0.558  53.009  1.00  0.00    -0.251 NA
HETATM   20  C16 UNL     1      26.100  -0.583  53.462  1.00  0.00     0.156 C 
ENDROOT
BRANCH   1  21
HETATM   21  O1  UNL     1      28.423  -0.968  54.121  1.00  0.00    -0.353 OA
HETATM   22  C1  UNL     1      29.770  -0.959  53.637  1.00  0.00     0.210 C 
ENDBRANCH   1  21
TORSDOF 1
ENDMDL
MODEL 4
REMARK VINA RESULT:      -7.4      6.005      8.418
REMARK  1 active torsions:
REMARK  status: ('A' for Active; 'I' for Inactive)
REMARK    1  A    between atoms: O1_2  and  C2_3 
ROOT
HETATM    1  C2  UNL     1      25.089   0.868  52.309  1.00  0.00     0.107 C 
HETATM    2  C3  UNL     1      26.250   1.474  52.179  1.00  0.00     0.173 C 
HETATM    3  O2  UNL     1      26.484   2.725  51.630  1.00  0.00    -0.354 OA
HETATM    4  C4  UNL     1      26.524   2.851  50.201  1.00  0.00     0.231 C 
HETATM    5  C5  UNL     1      25.939   4.169  49.794  1.00  0.00     0.035 C 
HETATM    6  C6  UNL     1      26.816   4.859  49.169  1.00  0.00    -0.010 C 
HETATM    7  C7  UNL     1      26.021   6.084  48.878  1.00  0.00     0.030 C 
HETATM    8  C8  UNL     1      26.055   7.283  48.294  1.00  0.00     0.091 C 
HETATM    9  N1  UNL     1      26.898   8.185  47.549  1.00  0.00    -0.370 N 
HETATM   10  C9  UNL     1      26.587   8.298  46.110  1.00  0.00     0.154 C 
HETATM   11  C10 UNL     1      27.956   8.964  48.119  1.00  0.00     0.102 C 
HETATM   12  C11 UNL     1      29.042   8.217  48.155  1.00  0.00    -0.008 C 
HETATM   13  C12 UNL     1      29.099   7.331  47.194  1.00  0.00     0.032 C 
HETATM   14  C13 UNL     1      28.574   6.253  47.907  1.00  0.00     0.012 C 
HETATM   15 BR1  UNL     1      30.366   5.487  47.903  1.00  0.00    -0.051 Br
HETATM   16  C14 UNL     1      27.994   5.323  48.561  1.00  0.00     0.032 C 
HETATM   17  N2  UNL     1      24.596   4.383  50.140  1.00  0.00    -0.373 NA
HETATM   18  C15 UNL     1      23.960   3.602  50.897  1.00  0.00     0.403 C 
HETATM   19  N3  UNL     1      24.460   2.424  51.507  1.00  0.00    -0.251 NA
HETATM   20  C16 UNL     1      23.803   1.423  51.882  1.00  0.00     0.156 C 
ENDROOT
BRANCH   1  21
HETATM   21  O1  UNL     1      25.091  -0.392  52.893  1.00  0.00    -0.353 OA
HETATM   22  C1  UNL     1      25.346  -0.552  54.293  1.00  0.00     0.210 C 
ENDBRANCH   1  21
TORSDOF 1
ENDMDL
MODEL 5
REMARK VINA RESULT:      -7.2      5.094      6.444
REMARK  1 active torsions:
REMARK  status: ('A' for Active; 'I' for Inactive)
REMARK    1  A    between atoms: O1_2  and  C2_3 
ROOT
HETATM    1  C2  UNL     1      22.877   6.072  48.671  1.00  0.00     0.107 C 
HETATM    2  C3  UNL     1      22.465   5.422  49.739  1.00  0.00     0.173 C 
HETATM    3  O2  UNL     1      23.243   4.693  50.626  1.00  0.00    -0.354 OA
HETATM    4  C4  UNL     1      23.641   3.364  50.258  1.00  0.00     0.231 C 
HETATM    5  C5  UNL     1      25.016   3.086  50.781  1.00  0.00     0.035 C 
HETATM    6  C6  UNL     1      24.984   2.090  51.583  1.00  0.00    -0.010 C 
HETATM    7  C7  UNL     1      26.424   2.012  51.956  1.00  0.00     0.030 C 
HETATM    8  C8  UNL     1      27.319   1.338  52.679  1.00  0.00     0.091 C 
HETATM    9  N1  UNL     1      27.478   0.224  53.581  1.00  0.00    -0.370 N 
HETATM   10  C9  UNL     1      28.122  -0.972  53.001  1.00  0.00     0.154 C 
HETATM   11  C10 UNL     1      27.085   0.233  54.957  1.00  0.00     0.102 C 
HETATM   12  C11 UNL     1      25.808  -0.090  55.021  1.00  0.00    -0.008 C 
HETATM   13  C12 UNL     1      25.422  -0.891  54.062  1.00  0.00     0.032 C 
HETATM   14  C13 UNL     1      24.928   0.086  53.196  1.00  0.00     0.012 C 
HETATM   15 BR1  UNL     1      23.139  -0.555  53.632  1.00  0.00    -0.051 Br
HETATM   16  C14 UNL     1      24.584   1.014  52.391  1.00  0.00     0.032 C 
HETATM   17  N2  UNL     1      26.040   3.917  50.300  1.00  0.00    -0.373 NA
HETATM   18  C15 UNL     1      25.809   4.945  49.610  1.00  0.00     0.403 C 
HETATM   19  N3  UNL     1      24.535   5.427  49.214  1.00  0.00    -0.251 NA
HETATM   20  C16 UNL     1      24.267   6.141  48.217  1.00  0.00     0.156 C 
ENDROOT
BRANCH   1  21
HETATM   21  O1  UNL     1      21.915   6.739  47.923  1.00  0.00    -0.353 OA
HETATM   22  C1  UNL     1      21.659   6.375  46.563  1.00  0.00     0.210 C 
ENDBRANCH   1  21
TORSDOF 1
ENDMDL
MODEL 6
REMARK VINA RESULT:      -7.0      4.668      7.947
REMARK  1 active torsions:
REMARK  status: ('A' for Active; 'I' for Inactive)
REMARK    1  A    between atoms: O1_2  and  C2_3 
ROOT
HETATM    1  C2  UNL     1      27.026   5.628  48.607  1.00  0.00     0.107 C 
HETATM    2  C3  UNL     1      27.196   4.379  48.988  1.00  0.00     0.173 C 
HETATM    3  O2  UNL     1      26.229   3.516  49.480  1.00  0.00    -0.354 OA
HETATM    4  C4  UNL     1      25.837   3.635  50.855  1.00  0.00     0.231 C 
HETATM    5  C5  UNL     1      24.375   3.339  50.991  1.00  0.00     0.035 C 
HETATM    6  C6  UNL     1      24.205   2.337  51.768  1.00  0.00    -0.010 C 
HETATM    7  C7  UNL     1      22.719   2.242  51.744  1.00  0.00     0.030 C 
HETATM    8  C8  UNL     1      21.670   1.571  52.220  1.00  0.00     0.091 C 
HETATM    9  N1  UNL     1      21.287   0.483  53.086  1.00  0.00    -0.370 N 
HETATM   10  C9  UNL     1      20.700   0.883  54.381  1.00  0.00     0.154 C 
HETATM   11  C10 UNL     1      21.416  -0.903  52.754  1.00  0.00     0.102 C 
HETATM   12  C11 UNL     1      22.639  -1.287  53.061  1.00  0.00    -0.008 C 
HETATM   13  C12 UNL     1      23.155  -0.633  54.070  1.00  0.00     0.032 C 
HETATM   14  C13 UNL     1      23.853   0.323  53.331  1.00  0.00     0.012 C 
HETATM   15 BR1  UNL     1      25.492  -0.587  53.862  1.00  0.00    -0.051 Br
HETATM   16  C14 UNL     1      24.389   1.239  52.623  1.00  0.00     0.032 C 
HETATM   17  N2  UNL     1      23.505   4.189  50.290  1.00  0.00    -0.373 NA
HETATM   18  C15 UNL     1      23.915   5.040  49.457  1.00  0.00     0.403 C 
HETATM   19  N3  UNL     1      25.264   5.282  49.093  1.00  0.00    -0.251 NA
HETATM   20  C16 UNL     1      25.750   6.347  48.639  1.00  0.00     0.156 C 
ENDROOT
BRANCH   1  21
HETATM   21  O1  UNL     1      28.144   6.310  48.144  1.00  0.00    -0.353 OA
HETATM   22  C1  UNL     1      29.431   5.683  48.127  1.00  0.00     0.210 C 
ENDBRANCH   1  21
TORSDOF 1
ENDMDL
MODEL 7
REMARK VINA RESULT:      -7.0      6.886      9.175
REMARK  1 active torsions:
REMARK  status: ('A' for Active; 'I' for Inactive)
REMARK    1  A    between atoms: O1_2  and  C2_3 
ROOT
HETATM    1  C2  UNL     1      24.392   2.377  51.116  1.00  0.00     0.107 C 
HETATM    2  C3  UNL     1      25.701   2.506  51.168  1.00  0.00     0.173 C 
HETATM    3  O2  UNL     1      26.453   3.590  50.741  1.00  0.00    -0.354 OA
HETATM    4  C4  UNL     1      26.731   3.724  49.340  1.00  0.00     0.231 C 
HETATM    5  C5  UNL     1      26.735   5.173  48.962  1.00  0.00     0.035 C 
HETATM    6  C6  UNL     1      27.882   5.497  48.496  1.00  0.00    -0.010 C 
HETATM    7  C7  UNL     1      27.642   6.937  48.202  1.00  0.00     0.030 C 
HETATM    8  C8  UNL     1      28.196   8.048  47.714  1.00  0.00     0.091 C 
HETATM    9  N1  UNL     1      29.406   8.585  47.141  1.00  0.00    -0.370 N 
HETATM   10  C9  UNL     1      29.358   8.838  45.686  1.00  0.00     0.154 C 
HETATM   11  C10 UNL     1      30.587   8.897  47.886  1.00  0.00     0.102 C 
HETATM   12  C11 UNL     1      31.305   7.797  47.997  1.00  0.00    -0.008 C 
HETATM   13  C12 UNL     1      31.163   6.975  46.988  1.00  0.00     0.032 C 
HETATM   14  C13 UNL     1      30.184   6.157  47.555  1.00  0.00     0.012 C 
HETATM   15 BR1  UNL     1      31.550   4.775  47.709  1.00  0.00    -0.051 Br
HETATM   16  C14 UNL     1      29.219   5.499  48.067  1.00  0.00     0.032 C 
HETATM   17  N2  UNL     1      25.532   5.868  49.161  1.00  0.00    -0.373 NA
HETATM   18  C15 UNL     1      24.556   5.366  49.779  1.00  0.00     0.403 C 
HETATM   19  N3  UNL     1      24.498   4.073  50.359  1.00  0.00    -0.251 NA
HETATM   20  C16 UNL     1      23.473   3.384  50.580  1.00  0.00     0.156 C 
ENDROOT
BRANCH   1  21
HETATM   21  O1  UNL     1      23.849   1.196  51.604  1.00  0.00    -0.353 OA
HETATM   22  C1  UNL     1      23.527   1.054  52.992  1.00  0.00     0.210 C 
ENDBRANCH   1  21
TORSDOF 1
ENDMDL
MODEL 8
REMARK VINA RESULT:      -6.9      4.873      6.463
REMARK  1 active torsions:
REMARK  status: ('A' for Active; 'I' for Inactive)
REMARK    1  A    between atoms: O1_2  and  C2_3 
ROOT
HETATM    1  C2  UNL     1      23.501   6.398  48.476  1.00  0.00     0.107 C 
HETATM    2  C3  UNL     1      24.691   5.913  48.764  1.00  0.00     0.173 C 
HETATM    3  O2  UNL     1      24.975   4.690  49.352  1.00  0.00    -0.354 OA
HETATM    4  C4  UNL     1      24.836   4.563  50.774  1.00  0.00     0.231 C 
HETATM    5  C5  UNL     1      24.340   3.191  51.112  1.00  0.00     0.035 C 
HETATM    6  C6  UNL     1      25.191   2.591  51.855  1.00  0.00    -0.010 C 
HETATM    7  C7  UNL     1      24.492   1.290  52.049  1.00  0.00     0.030 C 
HETATM    8  C8  UNL     1      24.570   0.099  52.644  1.00  0.00     0.091 C 
HETATM    9  N1  UNL     1      25.394  -0.717  53.502  1.00  0.00    -0.370 N 
HETATM   10  C9  UNL     1      24.906  -0.866  54.889  1.00  0.00     0.154 C 
HETATM   11  C10 UNL     1      26.591  -1.381  53.086  1.00  0.00     0.102 C 
HETATM   12  C11 UNL     1      27.590  -0.527  53.188  1.00  0.00    -0.008 C 
HETATM   13  C12 UNL     1      27.430   0.356  54.139  1.00  0.00     0.032 C 
HETATM   14  C13 UNL     1      26.897   1.378  53.353  1.00  0.00     0.012 C 
HETATM   15 BR1  UNL     1      28.586   2.323  53.587  1.00  0.00    -0.051 Br
HETATM   16  C14 UNL     1      26.318   2.246  52.619  1.00  0.00     0.032 C 
HETATM   17  N2  UNL     1      23.083   2.842  50.593  1.00  0.00    -0.373 NA
HETATM   18  C15 UNL     1      22.478   3.557  49.751  1.00  0.00     0.403 C 
HETATM   19  N3  UNL     1      22.933   4.783  49.201  1.00  0.00    -0.251 NA
HETATM   20  C16 UNL     1      22.233   5.713  48.733  1.00  0.00     0.156 C 
ENDROOT
BRANCH   1  21
HETATM   21  O1  UNL     1      23.454   7.655  47.885  1.00  0.00    -0.353 OA
HETATM   22  C1  UNL     1      24.532   8.124  47.068  1.00  0.00     0.210 C 
ENDBRANCH   1  21
TORSDOF 1
ENDMDL
MODEL 9
REMARK VINA RESULT:      -6.8      2.657      7.571
REMARK  1 active torsions:
REMARK  status: ('A' for Active; 'I' for Inactive)
REMARK    1  A    between atoms: O1_2  and  C2_3 
ROOT
HETATM    1  C2  UNL     1      24.795   0.805  53.045  1.00  0.00     0.107 C 
HETATM    2  C3  UNL     1      23.833   1.577  52.585  1.00  0.00     0.173 C 
HETATM    3  O2  UNL     1      22.467   1.391  52.736  1.00  0.00    -0.354 OA
HETATM    4  C4  UNL     1      21.803   0.452  51.879  1.00  0.00     0.231 C 
HETATM    5  C5  UNL     1      20.710  -0.236  52.636  1.00  0.00     0.035 C 
HETATM    6  C6  UNL     1      19.583  -0.009  52.075  1.00  0.00    -0.010 C 
HETATM    7  C7  UNL     1      18.684  -0.774  52.982  1.00  0.00     0.030 C 
HETATM    8  C8  UNL     1      17.417  -1.130  53.203  1.00  0.00     0.091 C 
HETATM    9  N1  UNL     1      16.073  -1.006  52.695  1.00  0.00    -0.370 N 
HETATM   10  C9  UNL     1      15.535  -2.210  52.031  1.00  0.00     0.154 C 
HETATM   11  C10 UNL     1      15.263   0.167  52.823  1.00  0.00     0.102 C 
HETATM   12  C11 UNL     1      15.555   0.979  51.826  1.00  0.00    -0.008 C 
HETATM   13  C12 UNL     1      15.935   0.357  50.739  1.00  0.00     0.032 C 
HETATM   14  C13 UNL     1      17.312   0.442  50.951  1.00  0.00     0.012 C 
HETATM   15 BR1  UNL     1      17.368   1.746  49.503  1.00  0.00    -0.051 Br
HETATM   16  C14 UNL     1      18.556   0.449  51.233  1.00  0.00     0.032 C 
HETATM   17  N2  UNL     1      21.108  -0.985  53.755  1.00  0.00    -0.373 NA
HETATM   18  C15 UNL     1      22.282  -0.947  54.210  1.00  0.00     0.403 C 
HETATM   19  N3  UNL     1      23.361  -0.181  53.701  1.00  0.00    -0.251 NA
HETATM   20  C16 UNL     1      24.587  -0.422  53.817  1.00  0.00     0.156 C 
ENDROOT
BRANCH   1  21
HETATM   21  O1  UNL     1      26.103   1.188  52.772  1.00  0.00    -0.353 OA
HETATM   22  C1  UNL     1      26.412   1.970  51.615  1.00  0.00     0.210 C 
ENDBRANCH   1  21
TORSDOF 1
ENDMDL
