MODEL 1
REMARK VINA RESULT:      -7.1      0.000      0.000
REMARK  7 active torsions:
REMARK  status: ('A' for Active; 'I' for Inactive)
REMARK    1  A    between atoms: C2_2  and  C3_3 
REMARK    2  A    between atoms: C3_3  and  C4_4 
REMARK    3  A    between atoms: C4_4  and  C5_5 
REMARK    4  A    between atoms: C6_6  and  C7_7 
REMARK    5  A    between atoms: C10_11  and  N2_12 
REMARK    6  A    between atoms: N2_12  and  C11_13 
REMARK    7  A    between atoms: C16_18  and  N3_19 
ROOT
HETATM    1  C7  UNL     1      22.325   0.118  52.834  1.00  0.00     0.077 A 
HETATM    2  C8  UNL     1      21.419  -0.557  53.624  1.00  0.00     0.052 A 
HETATM    3  C9  UNL     1      21.950  -1.250  54.717  1.00  0.00     0.139 A 
HETATM    4  N1  UNL     1      23.274  -1.247  54.969  1.00  0.00    -0.075 NA
HETATM    5  C10 UNL     1      24.137  -0.580  54.181  1.00  0.00     0.723 A 
HETATM    6  N4  UNL     1      23.639   0.093  53.123  1.00  0.00    -0.063 NA
ENDROOT
BRANCH   5   7
HETATM    7  N2  UNL     1      25.538  -0.579  54.449  1.00  0.00    -0.209 N 
HETATM    8  H10 UNL     1      25.863  -0.926  55.378  1.00  0.00     0.179 HD
BRANCH   7   9
HETATM    9  C11 UNL     1      26.485  -0.113  53.476  1.00  0.00     0.172 A 
HETATM   10  C12 UNL     1      27.690  -0.981  53.352  1.00  0.00     0.011 A 
HETATM   11  C13 UNL     1      28.795  -0.255  53.559  1.00  0.00    -0.061 A 
HETATM   12  C14 UNL     1      30.165  -0.870  53.496  1.00  0.00     0.048 C 
HETATM   13  C15 UNL     1      28.409   1.134  53.834  1.00  0.00     0.033 A 
HETATM   14  C16 UNL     1      27.076   1.201  53.782  1.00  0.00     0.030 A 
BRANCH  14  15
HETATM   15  N3  UNL     1      26.484   2.469  54.021  1.00  0.00    -0.400 N 
HETATM   16  H17 UNL     1      25.429   2.417  53.998  1.00  0.00     0.156 HD
HETATM   17  H18 UNL     1      26.920   3.400  54.207  1.00  0.00     0.156 HD
ENDBRANCH  14  15
ENDBRANCH   7   9
ENDBRANCH   5   7
BRANCH   1  18
HETATM   18  C6  UNL     1      21.862   0.868  51.672  1.00  0.00     0.033 C 
HETATM   19  C5  UNL     1      21.301   0.311  50.632  1.00  0.00     0.010 C 
BRANCH  19  20
HETATM   20  C4  UNL     1      20.830   1.033  49.465  1.00  0.00     0.051 C 
BRANCH  20  21
HETATM   21  C3  UNL     1      21.745   1.640  48.722  1.00  0.00    -0.150 C 
BRANCH  21  22
HETATM   22  C2  UNL     1      22.651   2.438  48.173  1.00  0.00     0.067 C 
HETATM   23  C1  UNL     1      23.606   3.091  49.094  1.00  0.00     0.024 C 
ENDBRANCH  21  22
ENDBRANCH  20  21
ENDBRANCH  19  20
ENDBRANCH   1  18
TORSDOF 7
ENDMDL
MODEL 2
REMARK VINA RESULT:      -7.0      2.890      6.241
REMARK  7 active torsions:
REMARK  status: ('A' for Active; 'I' for Inactive)
REMARK    1  A    between atoms: C2_2  and  C3_3 
REMARK    2  A    between atoms: C3_3  and  C4_4 
REMARK    3  A    between atoms: C4_4  and  C5_5 
REMARK    4  A    between atoms: C6_6  and  C7_7 
REMARK    5  A    between atoms: C10_11  and  N2_12 
REMARK    6  A    between atoms: N2_12  and  C11_13 
REMARK    7  A    between atoms: C16_18  and  N3_19 
ROOT
HETATM    1  C7  UNL     1      24.547   1.033  52.960  1.00  0.00     0.077 A 
HETATM    2  C8  UNL     1      23.263   0.546  52.839  1.00  0.00     0.052 A 
HETATM    3  C9  UNL     1      22.282   1.477  52.480  1.00  0.00     0.139 A 
HETATM    4  N1  UNL     1      22.593   2.771  52.267  1.00  0.00    -0.075 NA
HETATM    5  C10 UNL     1      23.855   3.219  52.393  1.00  0.00     0.723 A 
HETATM    6  N4  UNL     1      24.812   2.333  52.739  1.00  0.00    -0.063 NA
ENDROOT
BRANCH   5   7
HETATM    7  N2  UNL     1      24.181   4.589  52.168  1.00  0.00    -0.209 N 
HETATM    8  H10 UNL     1      24.372   5.194  52.996  1.00  0.00     0.179 HD
BRANCH   7   9
HETATM    9  C11 UNL     1      24.245   5.134  50.841  1.00  0.00     0.172 A 
HETATM   10  C12 UNL     1      25.305   4.518  49.992  1.00  0.00     0.011 A 
HETATM   11  C13 UNL     1      26.126   5.468  49.531  1.00  0.00    -0.061 A 
HETATM   12  C14 UNL     1      27.294   5.138  48.644  1.00  0.00     0.048 C 
HETATM   13  C15 UNL     1      25.678   6.772  50.034  1.00  0.00     0.033 A 
HETATM   14  C16 UNL     1      24.593   6.564  50.786  1.00  0.00     0.030 A 
BRANCH  14  15
HETATM   15  N3  UNL     1      23.991   7.705  51.377  1.00  0.00    -0.400 N 
HETATM   16  H17 UNL     1      24.708   8.443  51.617  1.00  0.00     0.156 HD
HETATM   17  H18 UNL     1      22.991   7.911  51.598  1.00  0.00     0.156 HD
ENDBRANCH  14  15
ENDBRANCH   7   9
ENDBRANCH   5   7
BRANCH   1  18
HETATM   18  C6  UNL     1      25.634   0.134  53.332  1.00  0.00     0.033 C 
HETATM   19  C5  UNL     1      26.172  -0.726  52.509  1.00  0.00     0.010 C 
BRANCH  19  20
HETATM   20  C4  UNL     1      27.253  -1.629  52.852  1.00  0.00     0.051 C 
BRANCH  20  21
HETATM   21  C3  UNL     1      28.422  -1.083  53.158  1.00  0.00    -0.150 C 
BRANCH  21  22
HETATM   22  C2  UNL     1      29.445  -0.392  53.643  1.00  0.00     0.067 C 
HETATM   23  C1  UNL     1      29.119   0.855  54.369  1.00  0.00     0.024 C 
ENDBRANCH  21  22
ENDBRANCH  20  21
ENDBRANCH  19  20
ENDBRANCH   1  18
TORSDOF 7
ENDMDL
MODEL 3
REMARK VINA RESULT:      -6.9      2.289      3.327
REMARK  7 active torsions:
REMARK  status: ('A' for Active; 'I' for Inactive)
REMARK    1  A    between atoms: C2_2  and  C3_3 
REMARK    2  A    between atoms: C3_3  and  C4_4 
REMARK    3  A    between atoms: C4_4  and  C5_5 
REMARK    4  A    between atoms: C6_6  and  C7_7 
REMARK    5  A    between atoms: C10_11  and  N2_12 
REMARK    6  A    between atoms: N2_12  and  C11_13 
REMARK    7  A    between atoms: C16_18  and  N3_19 
ROOT
HETATM    1  C7  UNL     1      23.819   2.203  51.672  1.00  0.00     0.077 A 
HETATM    2  C8  UNL     1      22.541   1.871  52.070  1.00  0.00     0.052 A 
HETATM    3  C9  UNL     1      22.433   0.808  52.972  1.00  0.00     0.139 A 
HETATM    4  N1  UNL     1      23.526   0.157  53.418  1.00  0.00    -0.075 NA
HETATM    5  C10 UNL     1      24.762   0.502  53.013  1.00  0.00     0.723 A 
HETATM    6  N4  UNL     1      24.882   1.526  52.142  1.00  0.00    -0.063 NA
ENDROOT
BRANCH   5   7
HETATM    7  N2  UNL     1      25.917  -0.188  53.486  1.00  0.00    -0.209 N 
HETATM    8  H10 UNL     1      25.793  -0.904  54.235  1.00  0.00     0.179 HD
BRANCH   7   9
HETATM    9  C11 UNL     1      27.222   0.087  52.954  1.00  0.00     0.172 A 
HETATM   10  C12 UNL     1      28.166  -1.062  53.062  1.00  0.00     0.011 A 
HETATM   11  C13 UNL     1      29.264  -0.686  53.727  1.00  0.00    -0.061 A 
HETATM   12  C14 UNL     1      30.393  -1.643  53.988  1.00  0.00     0.048 C 
HETATM   13  C15 UNL     1      29.132   0.726  54.107  1.00  0.00     0.033 A 
HETATM   14  C16 UNL     1      27.951   1.157  53.655  1.00  0.00     0.030 A 
BRANCH  14  15
HETATM   15  N3  UNL     1      27.618   2.512  53.916  1.00  0.00    -0.400 N 
HETATM   16  H17 UNL     1      27.137   2.961  53.088  1.00  0.00     0.156 HD
HETATM   17  H18 UNL     1      27.771   3.101  54.765  1.00  0.00     0.156 HD
ENDBRANCH  14  15
ENDBRANCH   7   9
ENDBRANCH   5   7
BRANCH   1  18
HETATM   18  C6  UNL     1      24.027   3.299  50.732  1.00  0.00     0.033 C 
HETATM   19  C5  UNL     1      25.200   3.808  50.467  1.00  0.00     0.010 C 
BRANCH  19  20
HETATM   20  C4  UNL     1      25.434   4.896  49.537  1.00  0.00     0.051 C 
BRANCH  20  21
HETATM   21  C3  UNL     1      26.619   4.936  48.941  1.00  0.00    -0.150 C 
BRANCH  21  22
HETATM   22  C2  UNL     1      27.897   4.904  48.591  1.00  0.00     0.067 C 
HETATM   23  C1  UNL     1      28.495   6.181  48.146  1.00  0.00     0.024 C 
ENDBRANCH  21  22
ENDBRANCH  20  21
ENDBRANCH  19  20
ENDBRANCH   1  18
TORSDOF 7
ENDMDL
MODEL 4
REMARK VINA RESULT:      -6.9      3.573      6.735
REMARK  7 active torsions:
REMARK  status: ('A' for Active; 'I' for Inactive)
REMARK    1  A    between atoms: C2_2  and  C3_3 
REMARK    2  A    between atoms: C3_3  and  C4_4 
REMARK    3  A    between atoms: C4_4  and  C5_5 
REMARK    4  A    between atoms: C6_6  and  C7_7 
REMARK    5  A    between atoms: C10_11  and  N2_12 
REMARK    6  A    between atoms: N2_12  and  C11_13 
REMARK    7  A    between atoms: C16_18  and  N3_19 
ROOT
HETATM    1  C7  UNL     1      25.316   1.488  51.843  1.00  0.00     0.077 A 
HETATM    2  C8  UNL     1      24.020   1.306  52.277  1.00  0.00     0.052 A 
HETATM    3  C9  UNL     1      23.161   2.400  52.128  1.00  0.00     0.139 A 
HETATM    4  N1  UNL     1      23.592   3.557  51.588  1.00  0.00    -0.075 NA
HETATM    5  C10 UNL     1      24.863   3.707  51.172  1.00  0.00     0.723 A 
HETATM    6  N4  UNL     1      25.703   2.661  51.310  1.00  0.00    -0.063 NA
ENDROOT
BRANCH   5   7
HETATM    7  N2  UNL     1      25.316   4.933  50.602  1.00  0.00    -0.209 N 
HETATM    8  H10 UNL     1      25.324   5.785  51.204  1.00  0.00     0.179 HD
BRANCH   7   9
HETATM    9  C11 UNL     1      25.751   5.006  49.235  1.00  0.00     0.172 A 
HETATM   10  C12 UNL     1      27.176   4.616  49.040  1.00  0.00     0.011 A 
HETATM   11  C13 UNL     1      27.840   5.609  48.438  1.00  0.00    -0.061 A 
HETATM   12  C14 UNL     1      29.303   5.496  48.113  1.00  0.00     0.048 C 
HETATM   13  C15 UNL     1      26.915   6.722  48.192  1.00  0.00     0.033 A 
HETATM   14  C16 UNL     1      25.715   6.360  48.656  1.00  0.00     0.030 A 
BRANCH  14  15
HETATM   15  N3  UNL     1      24.661   7.300  48.518  1.00  0.00    -0.400 N 
HETATM   16  H17 UNL     1      24.388   7.432  47.505  1.00  0.00     0.156 HD
HETATM   17  H18 UNL     1      24.141   7.852  49.237  1.00  0.00     0.156 HD
ENDBRANCH  14  15
ENDBRANCH   7   9
ENDBRANCH   5   7
BRANCH   1  18
HETATM   18  C6  UNL     1      26.282   0.401  51.960  1.00  0.00     0.033 C 
HETATM   19  C5  UNL     1      26.035  -0.719  52.585  1.00  0.00     0.010 C 
BRANCH  19  20
HETATM   20  C4  UNL     1      26.976  -1.814  52.715  1.00  0.00     0.051 C 
BRANCH  20  21
HETATM   21  C3  UNL     1      28.220  -1.504  53.056  1.00  0.00    -0.150 C 
BRANCH  21  22
HETATM   22  C2  UNL     1      29.479  -1.456  53.470  1.00  0.00     0.067 C 
HETATM   23  C1  UNL     1      30.097  -0.116  53.559  1.00  0.00     0.024 C 
ENDBRANCH  21  22
ENDBRANCH  20  21
ENDBRANCH  19  20
ENDBRANCH   1  18
TORSDOF 7
ENDMDL
MODEL 5
REMARK VINA RESULT:      -6.8      2.686      5.631
REMARK  7 active torsions:
REMARK  status: ('A' for Active; 'I' for Inactive)
REMARK    1  A    between atoms: C2_2  and  C3_3 
REMARK    2  A    between atoms: C3_3  and  C4_4 
REMARK    3  A    between atoms: C4_4  and  C5_5 
REMARK    4  A    between atoms: C6_6  and  C7_7 
REMARK    5  A    between atoms: C10_11  and  N2_12 
REMARK    6  A    between atoms: N2_12  and  C11_13 
REMARK    7  A    between atoms: C16_18  and  N3_19 
ROOT
HETATM    1  C7  UNL     1      24.626   0.458  52.947  1.00  0.00     0.077 A 
HETATM    2  C8  UNL     1      25.494  -0.608  53.050  1.00  0.00     0.052 A 
HETATM    3  C9  UNL     1      26.781  -0.407  52.540  1.00  0.00     0.139 A 
HETATM    4  N1  UNL     1      27.136   0.769  51.985  1.00  0.00    -0.075 NA
HETATM    5  C10 UNL     1      26.268   1.793  51.897  1.00  0.00     0.723 A 
HETATM    6  N4  UNL     1      25.023   1.614  52.384  1.00  0.00    -0.063 NA
ENDROOT
BRANCH   5   7
HETATM    7  N2  UNL     1      26.646   3.036  51.308  1.00  0.00    -0.209 N 
HETATM    8  H10 UNL     1      27.236   3.689  51.868  1.00  0.00     0.179 HD
BRANCH   7   9
HETATM    9  C11 UNL     1      26.230   3.391  49.980  1.00  0.00     0.172 A 
HETATM   10  C12 UNL     1      27.179   4.303  49.280  1.00  0.00     0.011 A 
HETATM   11  C13 UNL     1      26.537   5.409  48.886  1.00  0.00    -0.061 A 
HETATM   12  C14 UNL     1      27.246   6.511  48.151  1.00  0.00     0.048 C 
HETATM   13  C15 UNL     1      25.130   5.315  49.292  1.00  0.00     0.033 A 
HETATM   14  C16 UNL     1      24.968   4.147  49.920  1.00  0.00     0.030 A 
BRANCH  14  15
HETATM   15  N3  UNL     1      23.665   3.850  50.401  1.00  0.00    -0.400 N 
HETATM   16  H17 UNL     1      23.110   3.289  49.697  1.00  0.00     0.156 HD
HETATM   17  H18 UNL     1      23.200   4.092  51.304  1.00  0.00     0.156 HD
ENDBRANCH  14  15
ENDBRANCH   7   9
ENDBRANCH   5   7
BRANCH   1  18
HETATM   18  C6  UNL     1      23.263   0.339  53.451  1.00  0.00     0.033 C 
HETATM   19  C5  UNL     1      22.787  -0.751  53.991  1.00  0.00     0.010 C 
BRANCH  19  20
HETATM   20  C4  UNL     1      21.437  -0.896  54.501  1.00  0.00     0.051 C 
BRANCH  20  21
HETATM   21  C3  UNL     1      20.444  -0.623  53.665  1.00  0.00    -0.150 C 
BRANCH  21  22
HETATM   22  C2  UNL     1      19.293  -0.438  53.034  1.00  0.00     0.067 C 
HETATM   23  C1  UNL     1      18.219  -1.417  53.311  1.00  0.00     0.024 C 
ENDBRANCH  21  22
ENDBRANCH  20  21
ENDBRANCH  19  20
ENDBRANCH   1  18
TORSDOF 7
ENDMDL
MODEL 6
REMARK VINA RESULT:      -6.8      6.745      9.134
REMARK  7 active torsions:
REMARK  status: ('A' for Active; 'I' for Inactive)
REMARK    1  A    between atoms: C2_2  and  C3_3 
REMARK    2  A    between atoms: C3_3  and  C4_4 
REMARK    3  A    between atoms: C4_4  and  C5_5 
REMARK    4  A    between atoms: C6_6  and  C7_7 
REMARK    5  A    between atoms: C10_11  and  N2_12 
REMARK    6  A    between atoms: N2_12  and  C11_13 
REMARK    7  A    between atoms: C16_18  and  N3_19 
ROOT
HETATM    1  C7  UNL     1      28.367   5.865  48.216  1.00  0.00     0.077 A 
HETATM    2  C8  UNL     1      28.354   7.045  47.504  1.00  0.00     0.052 A 
HETATM    3  C9  UNL     1      29.598   7.523  47.080  1.00  0.00     0.139 A 
HETATM    4  N1  UNL     1      30.735   6.854  47.358  1.00  0.00    -0.075 NA
HETATM    5  C10 UNL     1      30.718   5.704  48.056  1.00  0.00     0.723 A 
HETATM    6  N4  UNL     1      29.525   5.231  48.472  1.00  0.00    -0.063 NA
ENDROOT
BRANCH   5   7
HETATM    7  N2  UNL     1      31.922   4.999  48.350  1.00  0.00    -0.209 N 
HETATM    8  H10 UNL     1      32.305   5.057  49.319  1.00  0.00     0.179 HD
BRANCH   7   9
HETATM    9  C11 UNL     1      32.601   4.227  47.348  1.00  0.00     0.172 A 
HETATM   10  C12 UNL     1      31.766   3.137  46.766  1.00  0.00     0.011 A 
HETATM   11  C13 UNL     1      32.388   1.962  46.912  1.00  0.00    -0.061 A 
HETATM   12  C14 UNL     1      31.779   0.681  46.416  1.00  0.00     0.048 C 
HETATM   13  C15 UNL     1      33.669   2.181  47.595  1.00  0.00     0.033 A 
HETATM   14  C16 UNL     1      33.778   3.490  47.839  1.00  0.00     0.030 A 
BRANCH  14  15
HETATM   15  N3  UNL     1      34.955   3.926  48.502  1.00  0.00    -0.400 N 
HETATM   16  H17 UNL     1      35.340   4.810  48.068  1.00  0.00     0.156 HD
HETATM   17  H18 UNL     1      35.470   3.520  49.314  1.00  0.00     0.156 HD
ENDBRANCH  14  15
ENDBRANCH   7   9
ENDBRANCH   5   7
BRANCH   1  18
HETATM   18  C6  UNL     1      27.115   5.292  48.699  1.00  0.00     0.033 C 
HETATM   19  C5  UNL     1      27.018   4.087  49.194  1.00  0.00     0.010 C 
BRANCH  19  20
HETATM   20  C4  UNL     1      25.787   3.494  49.681  1.00  0.00     0.051 C 
BRANCH  20  21
HETATM   21  C3  UNL     1      25.840   2.870  50.850  1.00  0.00    -0.150 C 
BRANCH  21  22
HETATM   22  C2  UNL     1      25.850   2.022  51.870  1.00  0.00     0.067 C 
HETATM   23  C1  UNL     1      26.669   0.801  51.708  1.00  0.00     0.024 C 
ENDBRANCH  21  22
ENDBRANCH  20  21
ENDBRANCH  19  20
ENDBRANCH   1  18
TORSDOF 7
ENDMDL
MODEL 7
REMARK VINA RESULT:      -6.5      1.693      3.803
REMARK  7 active torsions:
REMARK  status: ('A' for Active; 'I' for Inactive)
REMARK    1  A    between atoms: C2_2  and  C3_3 
REMARK    2  A    between atoms: C3_3  and  C4_4 
REMARK    3  A    between atoms: C4_4  and  C5_5 
REMARK    4  A    between atoms: C6_6  and  C7_7 
REMARK    5  A    between atoms: C10_11  and  N2_12 
REMARK    6  A    between atoms: N2_12  and  C11_13 
REMARK    7  A    between atoms: C16_18  and  N3_19 
ROOT
HETATM    1  C7  UNL     1      24.253   2.537  51.376  1.00  0.00     0.077 A 
HETATM    2  C8  UNL     1      25.161   2.878  50.396  1.00  0.00     0.052 A 
HETATM    3  C9  UNL     1      26.508   2.867  50.772  1.00  0.00     0.139 A 
HETATM    4  N1  UNL     1      26.880   2.538  52.025  1.00  0.00    -0.075 NA
HETATM    5  C10 UNL     1      25.973   2.210  52.963  1.00  0.00     0.723 A 
HETATM    6  N4  UNL     1      24.670   2.216  52.615  1.00  0.00    -0.063 NA
ENDROOT
BRANCH   5   7
HETATM    7  N2  UNL     1      26.369   1.863  54.288  1.00  0.00    -0.209 N 
HETATM    8  H10 UNL     1      26.343   2.604  55.022  1.00  0.00     0.179 HD
BRANCH   7   9
HETATM    9  C11 UNL     1      26.797   0.532  54.616  1.00  0.00     0.172 A 
HETATM   10  C12 UNL     1      28.277   0.359  54.605  1.00  0.00     0.011 A 
HETATM   11  C13 UNL     1      28.614  -0.628  53.767  1.00  0.00    -0.061 A 
HETATM   12  C14 UNL     1      30.047  -1.026  53.553  1.00  0.00     0.048 C 
HETATM   13  C15 UNL     1      27.394  -1.178  53.164  1.00  0.00     0.033 A 
HETATM   14  C16 UNL     1      26.355  -0.501  53.663  1.00  0.00     0.030 A 
BRANCH  14  15
HETATM   15  N3  UNL     1      25.064  -0.876  53.209  1.00  0.00    -0.400 N 
HETATM   16  H17 UNL     1      24.727  -1.760  53.680  1.00  0.00     0.156 HD
HETATM   17  H18 UNL     1      24.429  -0.427  52.511  1.00  0.00     0.156 HD
ENDBRANCH  14  15
ENDBRANCH   7   9
ENDBRANCH   5   7
BRANCH   1  18
HETATM   18  C6  UNL     1      22.826   2.522  51.074  1.00  0.00     0.033 C 
HETATM   19  C5  UNL     1      22.158   1.433  50.804  1.00  0.00     0.010 C 
BRANCH  19  20
HETATM   20  C4  UNL     1      20.740   1.391  50.502  1.00  0.00     0.051 C 
BRANCH  20  21
HETATM   21  C3  UNL     1      20.003   0.528  51.187  1.00  0.00    -0.150 C 
BRANCH  21  22
HETATM   22  C2  UNL     1      19.161  -0.111  51.988  1.00  0.00     0.067 C 
HETATM   23  C1  UNL     1      19.658  -0.446  53.341  1.00  0.00     0.024 C 
ENDBRANCH  21  22
ENDBRANCH  20  21
ENDBRANCH  19  20
ENDBRANCH   1  18
TORSDOF 7
ENDMDL
MODEL 8
REMARK VINA RESULT:      -6.5      4.017      6.093
REMARK  7 active torsions:
REMARK  status: ('A' for Active; 'I' for Inactive)
REMARK    1  A    between atoms: C2_2  and  C3_3 
REMARK    2  A    between atoms: C3_3  and  C4_4 
REMARK    3  A    between atoms: C4_4  and  C5_5 
REMARK    4  A    between atoms: C6_6  and  C7_7 
REMARK    5  A    between atoms: C10_11  and  N2_12 
REMARK    6  A    between atoms: N2_12  and  C11_13 
REMARK    7  A    between atoms: C16_18  and  N3_19 
ROOT
HETATM    1  C7  UNL     1      25.735   4.723  49.420  1.00  0.00     0.077 A 
HETATM    2  C8  UNL     1      24.436   4.901  48.994  1.00  0.00     0.052 A 
HETATM    3  C9  UNL     1      23.470   4.097  49.607  1.00  0.00     0.139 A 
HETATM    4  N1  UNL     1      23.807   3.205  50.559  1.00  0.00    -0.075 NA
HETATM    5  C10 UNL     1      25.083   3.050  50.956  1.00  0.00     0.723 A 
HETATM    6  N4  UNL     1      26.026   3.819  50.373  1.00  0.00    -0.063 NA
ENDROOT
BRANCH   5   7
HETATM    7  N2  UNL     1      25.436   2.105  51.963  1.00  0.00    -0.209 N 
HETATM    8  H10 UNL     1      24.742   1.900  52.714  1.00  0.00     0.179 HD
BRANCH   7   9
HETATM    9  C11 UNL     1      26.713   1.447  51.955  1.00  0.00     0.172 A 
HETATM   10  C12 UNL     1      26.625  -0.026  51.739  1.00  0.00     0.011 A 
HETATM   11  C13 UNL     1      27.226  -0.669  52.746  1.00  0.00    -0.061 A 
HETATM   12  C14 UNL     1      27.293  -2.170  52.794  1.00  0.00     0.048 C 
HETATM   13  C15 UNL     1      27.752   0.318  53.697  1.00  0.00     0.033 A 
HETATM   14  C16 UNL     1      27.449   1.532  53.228  1.00  0.00     0.030 A 
BRANCH  14  15
HETATM   15  N3  UNL     1      27.869   2.645  54.003  1.00  0.00    -0.400 N 
HETATM   16  H17 UNL     1      28.026   2.378  55.014  1.00  0.00     0.156 HD
HETATM   17  H18 UNL     1      28.037   3.639  53.732  1.00  0.00     0.156 HD
ENDBRANCH  14  15
ENDBRANCH   7   9
ENDBRANCH   5   7
BRANCH   1  18
HETATM   18  C6  UNL     1      26.810   5.518  48.835  1.00  0.00     0.033 C 
HETATM   19  C5  UNL     1      27.992   5.038  48.558  1.00  0.00     0.010 C 
BRANCH  19  20
HETATM   20  C4  UNL     1      29.076   5.805  47.976  1.00  0.00     0.051 C 
BRANCH  20  21
HETATM   21  C3  UNL     1      28.973   7.127  48.022  1.00  0.00    -0.150 C 
BRANCH  21  22
HETATM   22  C2  UNL     1      29.107   8.443  47.934  1.00  0.00     0.067 C 
HETATM   23  C1  UNL     1      29.352   9.171  49.198  1.00  0.00     0.024 C 
ENDBRANCH  21  22
ENDBRANCH  20  21
ENDBRANCH  19  20
ENDBRANCH   1  18
TORSDOF 7
ENDMDL
MODEL 9
REMARK VINA RESULT:      -6.5      5.079      7.579
REMARK  7 active torsions:
REMARK  status: ('A' for Active; 'I' for Inactive)
REMARK    1  A    between atoms: C2_2  and  C3_3 
REMARK    2  A    between atoms: C3_3  and  C4_4 
REMARK    3  A    between atoms: C4_4  and  C5_5 
REMARK    4  A    between atoms: C6_6  and  C7_7 
REMARK    5  A    between atoms: C10_11  and  N2_12 
REMARK    6  A    between atoms: N2_12  and  C11_13 
REMARK    7  A    between atoms: C16_18  and  N3_19 
ROOT
HETATM    1  C7  UNL     1      27.673   5.167  48.655  1.00  0.00     0.077 A 
HETATM    2  C8  UNL     1      26.832   6.237  48.439  1.00  0.00     0.052 A 
HETATM    3  C9  UNL     1      25.529   6.107  48.930  1.00  0.00     0.139 A 
HETATM    4  N1  UNL     1      25.136   4.992  49.577  1.00  0.00    -0.075 NA
HETATM    5  C10 UNL     1      25.978   3.961  49.775  1.00  0.00     0.723 A 
HETATM    6  N4  UNL     1      27.238   4.072  49.306  1.00  0.00    -0.063 NA
ENDROOT
BRANCH   5   7
HETATM    7  N2  UNL     1      25.559   2.782  50.459  1.00  0.00    -0.209 N 
HETATM    8  H10 UNL     1      24.753   2.245  50.070  1.00  0.00     0.179 HD
BRANCH   7   9
HETATM    9  C11 UNL     1      26.219   2.336  51.653  1.00  0.00     0.172 A 
HETATM   10  C12 UNL     1      26.677   0.919  51.590  1.00  0.00     0.011 A 
HETATM   11  C13 UNL     1      26.157   0.228  52.611  1.00  0.00    -0.061 A 
HETATM   12  C14 UNL     1      26.447  -1.234  52.802  1.00  0.00     0.048 C 
HETATM   13  C15 UNL     1      25.322   1.126  53.419  1.00  0.00     0.033 A 
HETATM   14  C16 UNL     1      25.368   2.336  52.856  1.00  0.00     0.030 A 
BRANCH  14  15
HETATM   15  N3  UNL     1      24.622   3.368  53.484  1.00  0.00    -0.400 N 
HETATM   16  H17 UNL     1      23.669   3.028  53.788  1.00  0.00     0.156 HD
HETATM   17  H18 UNL     1      24.867   4.364  53.680  1.00  0.00     0.156 HD
ENDBRANCH  14  15
ENDBRANCH   7   9
ENDBRANCH   5   7
BRANCH   1  18
HETATM   18  C6  UNL     1      29.051   5.214  48.176  1.00  0.00     0.033 C 
HETATM   19  C5  UNL     1      29.660   6.320  47.844  1.00  0.00     0.010 C 
BRANCH  19  20
HETATM   20  C4  UNL     1      31.028   6.395  47.367  1.00  0.00     0.051 C 
BRANCH  20  21
HETATM   21  C3  UNL     1      31.693   5.253  47.259  1.00  0.00    -0.150 C 
BRANCH  21  22
HETATM   22  C2  UNL     1      32.481   4.193  47.379  1.00  0.00     0.067 C 
HETATM   23  C1  UNL     1      32.251   3.084  46.428  1.00  0.00     0.024 C 
ENDBRANCH  21  22
ENDBRANCH  20  21
ENDBRANCH  19  20
ENDBRANCH   1  18
TORSDOF 7
ENDMDL
