MODEL 1
REMARK VINA RESULT:      -8.7      0.000      0.000
REMARK  7 active torsions:
REMARK  status: ('A' for Active; 'I' for Inactive)
REMARK    1  A    between atoms: C2_2  and  C13_17 
REMARK    2  A    between atoms: C3_3  and  C4_4 
REMARK    3  A    between atoms: C4_4  and  N1_5 
REMARK    4  A    between atoms: N1_5  and  C5_6 
REMARK    5  A    between atoms: C13_17  and  O1_19 
REMARK    6  A    between atoms: O1_19  and  C15_20 
REMARK    7  A    between atoms: C15_20  and  C16_21 
ROOT
HETATM    1  C1  UNL     1      24.202   3.083  52.728  1.00  0.00     0.046 C 
HETATM    2  C2  UNL     1      24.838   2.859  51.383  1.00  0.00    -0.058 C 
HETATM    3  C3  UNL     1      23.976   2.557  50.423  1.00  0.00    -0.003 C 
ENDROOT
BRANCH   3   4
HETATM    4  C4  UNL     1      22.519   2.442  50.622  1.00  0.00     0.149 C 
BRANCH   4   5
HETATM    5  N1  UNL     1      22.013   1.088  50.364  1.00  0.00    -0.371 N 
HETATM    6  H7  UNL     1      22.446   0.631  49.541  1.00  0.00     0.161 HD
BRANCH   5   7
HETATM    7  C5  UNL     1      21.021   0.555  51.231  1.00  0.00     0.137 A 
HETATM    8  N2  UNL     1      19.725   0.621  50.885  1.00  0.00    -0.224 NA
HETATM    9  C6  UNL     1      18.779   0.126  51.684  1.00  0.00     0.235 A 
HETATM   10  N3  UNL     1      19.076  -0.461  52.869  1.00  0.00    -0.241 NA
HETATM   11  C7  UNL     1      20.352  -0.568  53.290  1.00  0.00     0.072 A 
HETATM   12  C8  UNL     1      20.712  -1.152  54.482  1.00  0.00     0.034 A 
HETATM   13  C12 UNL     1      21.302  -0.045  52.439  1.00  0.00     0.040 A 
HETATM   14  C9  UNL     1      22.044  -1.246  54.888  1.00  0.00     0.026 A 
HETATM   15  C10 UNL     1      23.010  -0.727  54.046  1.00  0.00     0.035 A 
HETATM   16 CL1  UNL     1      24.691  -0.829  54.529  1.00  0.00    -0.084 Cl
HETATM   17  C11 UNL     1      22.613  -0.146  52.855  1.00  0.00     0.041 A 
ENDBRANCH   5   7
ENDBRANCH   4   5
ENDBRANCH   3   4
BRANCH   2  18
HETATM   18  C13 UNL     1      26.316   2.961  51.108  1.00  0.00     0.146 C 
HETATM   19  C14 UNL     1      26.450   3.690  49.771  1.00  0.00     0.044 C 
BRANCH  18  20
HETATM   20  O1  UNL     1      26.779   1.674  51.034  1.00  0.00    -0.377 OA
BRANCH  20  21
HETATM   21  C15 UNL     1      26.446   0.833  52.075  1.00  0.00     0.207 C 
BRANCH  21  22
HETATM   22  C16 UNL     1      27.675   0.295  52.702  1.00  0.00    -0.032 A 
HETATM   23  C17 UNL     1      28.749   0.962  53.244  1.00  0.00     0.009 A 
HETATM   24  C18 UNL     1      29.829   0.305  53.777  1.00  0.00     0.004 A 
HETATM   25  C19 UNL     1      29.912  -1.070  53.807  1.00  0.00     0.042 A 
HETATM   26  C20 UNL     1      28.867  -1.797  53.280  1.00  0.00     0.117 A 
HETATM   27  F1  UNL     1      28.872  -3.151  53.273  1.00  0.00    -0.206 F 
HETATM   28  C21 UNL     1      27.800  -1.099  52.754  1.00  0.00     0.051 A 
ENDBRANCH  21  22
ENDBRANCH  20  21
ENDBRANCH  18  20
ENDBRANCH   2  18
TORSDOF 7
ENDMDL
MODEL 2
REMARK VINA RESULT:      -8.5      6.184      9.817
REMARK  7 active torsions:
REMARK  status: ('A' for Active; 'I' for Inactive)
REMARK    1  A    between atoms: C2_2  and  C13_17 
REMARK    2  A    between atoms: C3_3  and  C4_4 
REMARK    3  A    between atoms: C4_4  and  N1_5 
REMARK    4  A    between atoms: N1_5  and  C5_6 
REMARK    5  A    between atoms: C13_17  and  O1_19 
REMARK    6  A    between atoms: O1_19  and  C15_20 
REMARK    7  A    between atoms: C15_20  and  C16_21 
ROOT
HETATM    1  C1  UNL     1      26.075   5.999  49.320  1.00  0.00     0.046 C 
HETATM    2  C2  UNL     1      26.803   4.697  49.118  1.00  0.00    -0.058 C 
HETATM    3  C3  UNL     1      28.004   4.832  48.572  1.00  0.00    -0.003 C 
ENDROOT
BRANCH   3   4
HETATM    4  C4  UNL     1      28.600   6.124  48.186  1.00  0.00     0.149 C 
BRANCH   4   5
HETATM    5  N1  UNL     1      29.812   6.444  48.950  1.00  0.00    -0.371 N 
HETATM    6  H7  UNL     1      29.750   6.191  49.954  1.00  0.00     0.161 HD
BRANCH   5   7
HETATM    7  C5  UNL     1      30.907   7.043  48.272  1.00  0.00     0.137 A 
HETATM    8  N2  UNL     1      30.912   8.368  48.049  1.00  0.00    -0.224 NA
HETATM    9  C6  UNL     1      31.932   8.949  47.414  1.00  0.00     0.235 A 
HETATM   10  N3  UNL     1      32.998   8.240  46.971  1.00  0.00    -0.241 NA
HETATM   11  C7  UNL     1      33.071   6.906  47.154  1.00  0.00     0.072 A 
HETATM   12  C8  UNL     1      34.126   6.137  46.725  1.00  0.00     0.034 A 
HETATM   13  C12 UNL     1      32.000   6.341  47.813  1.00  0.00     0.040 A 
HETATM   14  C9  UNL     1      34.170   4.757  46.931  1.00  0.00     0.026 A 
HETATM   15  C10 UNL     1      33.104   4.174  47.591  1.00  0.00     0.035 A 
HETATM   16 CL1  UNL     1      33.129   2.444  47.864  1.00  0.00    -0.084 Cl
HETATM   17  C11 UNL     1      32.059   4.977  48.009  1.00  0.00     0.041 A 
ENDBRANCH   5   7
ENDBRANCH   4   5
ENDBRANCH   3   4
BRANCH   2  18
HETATM   18  C13 UNL     1      26.256   3.344  49.488  1.00  0.00     0.146 C 
HETATM   19  C14 UNL     1      24.752   3.534  49.688  1.00  0.00     0.044 C 
BRANCH  18  20
HETATM   20  O1  UNL     1      26.882   2.986  50.652  1.00  0.00    -0.377 OA
BRANCH  20  21
HETATM   21  C15 UNL     1      26.143   2.250  51.554  1.00  0.00     0.207 C 
BRANCH  21  22
HETATM   22  C16 UNL     1      27.038   1.372  52.343  1.00  0.00    -0.032 A 
HETATM   23  C17 UNL     1      27.098  -0.001  52.397  1.00  0.00     0.009 A 
HETATM   24  C18 UNL     1      27.987  -0.667  53.202  1.00  0.00     0.004 A 
HETATM   25  C19 UNL     1      28.882  -0.005  54.014  1.00  0.00     0.042 A 
HETATM   26  C20 UNL     1      28.873   1.373  54.006  1.00  0.00     0.117 A 
HETATM   27  F1  UNL     1      29.722   2.096  54.774  1.00  0.00    -0.206 F 
HETATM   28  C21 UNL     1      27.965   2.004  53.182  1.00  0.00     0.051 A 
ENDBRANCH  21  22
ENDBRANCH  20  21
ENDBRANCH  18  20
ENDBRANCH   2  18
TORSDOF 7
ENDMDL
MODEL 3
REMARK VINA RESULT:      -8.5      6.612     10.276
REMARK  7 active torsions:
REMARK  status: ('A' for Active; 'I' for Inactive)
REMARK    1  A    between atoms: C2_2  and  C13_17 
REMARK    2  A    between atoms: C3_3  and  C4_4 
REMARK    3  A    between atoms: C4_4  and  N1_5 
REMARK    4  A    between atoms: N1_5  and  C5_6 
REMARK    5  A    between atoms: C13_17  and  O1_19 
REMARK    6  A    between atoms: O1_19  and  C15_20 
REMARK    7  A    between atoms: C15_20  and  C16_21 
ROOT
HETATM    1  C1  UNL     1      26.038   5.996  49.077  1.00  0.00     0.046 C 
HETATM    2  C2  UNL     1      26.879   4.750  49.016  1.00  0.00    -0.058 C 
HETATM    3  C3  UNL     1      28.100   4.948  48.538  1.00  0.00    -0.003 C 
ENDROOT
BRANCH   3   4
HETATM    4  C4  UNL     1      28.616   6.258  48.098  1.00  0.00     0.149 C 
BRANCH   4   5
HETATM    5  N1  UNL     1      29.692   6.765  48.958  1.00  0.00    -0.371 N 
HETATM    6  H7  UNL     1      29.352   7.294  49.782  1.00  0.00     0.161 HD
BRANCH   5   7
HETATM    7  C5  UNL     1      31.039   6.495  48.595  1.00  0.00     0.137 A 
HETATM    8  N2  UNL     1      31.520   5.245  48.692  1.00  0.00    -0.224 NA
HETATM    9  C6  UNL     1      32.782   4.971  48.356  1.00  0.00     0.235 A 
HETATM   10  N3  UNL     1      33.628   5.930  47.906  1.00  0.00    -0.241 NA
HETATM   11  C7  UNL     1      33.225   7.210  47.780  1.00  0.00     0.072 A 
HETATM   12  C8  UNL     1      34.039   8.223  47.331  1.00  0.00     0.034 A 
HETATM   13  C12 UNL     1      31.915   7.455  48.137  1.00  0.00     0.040 A 
HETATM   14  C9  UNL     1      33.589   9.539  47.212  1.00  0.00     0.026 A 
HETATM   15  C10 UNL     1      32.278   9.801  47.565  1.00  0.00     0.035 A 
HETATM   16 CL1  UNL     1      31.683  11.444  47.429  1.00  0.00    -0.084 Cl
HETATM   17  C11 UNL     1      31.487   8.760  48.014  1.00  0.00     0.041 A 
ENDBRANCH   5   7
ENDBRANCH   4   5
ENDBRANCH   3   4
BRANCH   2  18
HETATM   18  C13 UNL     1      26.417   3.383  49.449  1.00  0.00     0.146 C 
HETATM   19  C14 UNL     1      24.896   3.467  49.569  1.00  0.00     0.044 C 
BRANCH  18  20
HETATM   20  O1  UNL     1      27.010   3.147  50.660  1.00  0.00    -0.377 OA
BRANCH  20  21
HETATM   21  C15 UNL     1      26.267   2.452  51.591  1.00  0.00     0.207 C 
BRANCH  21  22
HETATM   22  C16 UNL     1      27.156   1.587  52.402  1.00  0.00    -0.032 A 
HETATM   23  C17 UNL     1      27.208   0.215  52.485  1.00  0.00     0.009 A 
HETATM   24  C18 UNL     1      28.091  -0.437  53.308  1.00  0.00     0.004 A 
HETATM   25  C19 UNL     1      28.987   0.238  54.108  1.00  0.00     0.042 A 
HETATM   26  C20 UNL     1      28.985   1.615  54.070  1.00  0.00     0.117 A 
HETATM   27  F1  UNL     1      29.835   2.351  54.826  1.00  0.00    -0.206 F 
HETATM   28  C21 UNL     1      28.082   2.233  53.230  1.00  0.00     0.051 A 
ENDBRANCH  21  22
ENDBRANCH  20  21
ENDBRANCH  18  20
ENDBRANCH   2  18
TORSDOF 7
ENDMDL
MODEL 4
REMARK VINA RESULT:      -8.3      4.639      6.177
REMARK  7 active torsions:
REMARK  status: ('A' for Active; 'I' for Inactive)
REMARK    1  A    between atoms: C2_2  and  C13_17 
REMARK    2  A    between atoms: C3_3  and  C4_4 
REMARK    3  A    between atoms: C4_4  and  N1_5 
REMARK    4  A    between atoms: N1_5  and  C5_6 
REMARK    5  A    between atoms: C13_17  and  O1_19 
REMARK    6  A    between atoms: O1_19  and  C15_20 
REMARK    7  A    between atoms: C15_20  and  C16_21 
ROOT
HETATM    1  C1  UNL     1      26.184   6.427  48.640  1.00  0.00     0.046 C 
HETATM    2  C2  UNL     1      27.600   5.926  48.551  1.00  0.00    -0.058 C 
HETATM    3  C3  UNL     1      27.740   4.646  48.866  1.00  0.00    -0.003 C 
ENDROOT
BRANCH   3   4
HETATM    4  C4  UNL     1      26.629   3.766  49.273  1.00  0.00     0.149 C 
BRANCH   4   5
HETATM    5  N1  UNL     1      26.656   3.436  50.704  1.00  0.00    -0.371 N 
HETATM    6  H7  UNL     1      27.532   3.720  51.180  1.00  0.00     0.161 HD
BRANCH   5   7
HETATM    7  C5  UNL     1      25.528   2.788  51.275  1.00  0.00     0.137 A 
HETATM    8  N2  UNL     1      24.304   3.316  51.120  1.00  0.00    -0.224 NA
HETATM    9  C6  UNL     1      23.232   2.722  51.649  1.00  0.00     0.235 A 
HETATM   10  N3  UNL     1      23.328   1.571  52.359  1.00  0.00    -0.241 NA
HETATM   11  C7  UNL     1      24.521   0.977  52.561  1.00  0.00     0.072 A 
HETATM   12  C8  UNL     1      24.677  -0.189  53.273  1.00  0.00     0.034 A 
HETATM   13  C12 UNL     1      25.604   1.619  52.000  1.00  0.00     0.040 A 
HETATM   14  C9  UNL     1      25.928  -0.779  53.464  1.00  0.00     0.026 A 
HETATM   15  C10 UNL     1      27.025  -0.148  52.908  1.00  0.00     0.035 A 
HETATM   16 CL1  UNL     1      28.609  -0.863  53.131  1.00  0.00    -0.084 Cl
HETATM   17  C11 UNL     1      26.832   1.023  52.198  1.00  0.00     0.041 A 
ENDBRANCH   5   7
ENDBRANCH   4   5
ENDBRANCH   3   4
BRANCH   2  18
HETATM   18  C13 UNL     1      28.782   6.767  48.142  1.00  0.00     0.146 C 
HETATM   19  C14 UNL     1      28.333   7.560  46.914  1.00  0.00     0.044 C 
BRANCH  18  20
HETATM   20  O1  UNL     1      29.788   5.889  47.840  1.00  0.00    -0.377 OA
BRANCH  20  21
HETATM   21  C15 UNL     1      31.074   6.300  48.119  1.00  0.00     0.207 C 
BRANCH  21  22
HETATM   22  C16 UNL     1      32.031   5.215  47.797  1.00  0.00    -0.032 A 
HETATM   23  C17 UNL     1      33.393   5.161  47.983  1.00  0.00     0.009 A 
HETATM   24  C18 UNL     1      34.143   4.074  47.609  1.00  0.00     0.004 A 
HETATM   25  C19 UNL     1      33.582   2.961  47.022  1.00  0.00     0.042 A 
HETATM   26  C20 UNL     1      32.221   2.953  46.808  1.00  0.00     0.117 A 
HETATM   27  F1  UNL     1      31.595   1.896  46.238  1.00  0.00    -0.206 F 
HETATM   28  C21 UNL     1      31.503   4.064  47.198  1.00  0.00     0.051 A 
ENDBRANCH  21  22
ENDBRANCH  20  21
ENDBRANCH  18  20
ENDBRANCH   2  18
TORSDOF 7
ENDMDL
MODEL 5
REMARK VINA RESULT:      -8.2      2.721      5.348
REMARK  7 active torsions:
REMARK  status: ('A' for Active; 'I' for Inactive)
REMARK    1  A    between atoms: C2_2  and  C13_17 
REMARK    2  A    between atoms: C3_3  and  C4_4 
REMARK    3  A    between atoms: C4_4  and  N1_5 
REMARK    4  A    between atoms: N1_5  and  C5_6 
REMARK    5  A    between atoms: C13_17  and  O1_19 
REMARK    6  A    between atoms: O1_19  and  C15_20 
REMARK    7  A    between atoms: C15_20  and  C16_21 
ROOT
HETATM    1  C1  UNL     1      21.769   0.957  50.555  1.00  0.00     0.046 C 
HETATM    2  C2  UNL     1      22.151   0.943  52.010  1.00  0.00    -0.058 C 
HETATM    3  C3  UNL     1      21.918   2.087  52.639  1.00  0.00    -0.003 C 
ENDROOT
BRANCH   3   4
HETATM    4  C4  UNL     1      21.340   3.283  51.998  1.00  0.00     0.149 C 
BRANCH   4   5
HETATM    5  N1  UNL     1      22.182   4.476  52.151  1.00  0.00    -0.371 N 
HETATM    6  H7  UNL     1      22.267   4.803  53.131  1.00  0.00     0.161 HD
BRANCH   5   7
HETATM    7  C5  UNL     1      22.775   5.045  50.992  1.00  0.00     0.137 A 
HETATM    8  N2  UNL     1      22.122   5.997  50.306  1.00  0.00    -0.224 NA
HETATM    9  C6  UNL     1      22.662   6.544  49.215  1.00  0.00     0.235 A 
HETATM   10  N3  UNL     1      23.881   6.170  48.754  1.00  0.00    -0.241 NA
HETATM   11  C7  UNL     1      24.601   5.220  49.385  1.00  0.00     0.072 A 
HETATM   12  C8  UNL     1      25.840   4.801  48.962  1.00  0.00     0.034 A 
HETATM   13  C12 UNL     1      24.011   4.679  50.507  1.00  0.00     0.040 A 
HETATM   14  C9  UNL     1      26.560   3.816  49.639  1.00  0.00     0.026 A 
HETATM   15  C10 UNL     1      25.983   3.262  50.767  1.00  0.00     0.035 A 
HETATM   16 CL1  UNL     1      26.861   2.021  51.638  1.00  0.00    -0.084 Cl
HETATM   17  C11 UNL     1      24.735   3.706  51.164  1.00  0.00     0.041 A 
ENDBRANCH   5   7
ENDBRANCH   4   5
ENDBRANCH   3   4
BRANCH   2  18
HETATM   18  C13 UNL     1      22.744  -0.241  52.728  1.00  0.00     0.146 C 
HETATM   19  C14 UNL     1      21.666  -0.738  53.690  1.00  0.00     0.044 C 
BRANCH  18  20
HETATM   20  O1  UNL     1      23.843   0.230  53.395  1.00  0.00    -0.377 OA
BRANCH  20  21
HETATM   21  C15 UNL     1      24.489  -0.656  54.231  1.00  0.00     0.207 C 
BRANCH  21  22
HETATM   22  C16 UNL     1      25.930  -0.711  53.891  1.00  0.00    -0.032 A 
HETATM   23  C17 UNL     1      26.572  -1.413  52.897  1.00  0.00     0.009 A 
HETATM   24  C18 UNL     1      27.933  -1.366  52.726  1.00  0.00     0.004 A 
HETATM   25  C19 UNL     1      28.751  -0.612  53.539  1.00  0.00     0.042 A 
HETATM   26  C20 UNL     1      28.168   0.115  54.555  1.00  0.00     0.117 A 
HETATM   27  F1  UNL     1      28.903   0.881  55.395  1.00  0.00    -0.206 F 
HETATM   28  C21 UNL     1      26.798   0.041  54.693  1.00  0.00     0.051 A 
ENDBRANCH  21  22
ENDBRANCH  20  21
ENDBRANCH  18  20
ENDBRANCH   2  18
TORSDOF 7
ENDMDL
MODEL 6
REMARK VINA RESULT:      -8.1      4.260      8.050
REMARK  7 active torsions:
REMARK  status: ('A' for Active; 'I' for Inactive)
REMARK    1  A    between atoms: C2_2  and  C13_17 
REMARK    2  A    between atoms: C3_3  and  C4_4 
REMARK    3  A    between atoms: C4_4  and  N1_5 
REMARK    4  A    between atoms: N1_5  and  C5_6 
REMARK    5  A    between atoms: C13_17  and  O1_19 
REMARK    6  A    between atoms: O1_19  and  C15_20 
REMARK    7  A    between atoms: C15_20  and  C16_21 
ROOT
HETATM    1  C1  UNL     1      24.688   2.893  52.856  1.00  0.00     0.046 C 
HETATM    2  C2  UNL     1      25.841   2.013  52.455  1.00  0.00    -0.058 C 
HETATM    3  C3  UNL     1      26.273   2.222  51.219  1.00  0.00    -0.003 C 
ENDROOT
BRANCH   3   4
HETATM    4  C4  UNL     1      25.696   3.217  50.296  1.00  0.00     0.149 C 
BRANCH   4   5
HETATM    5  N1  UNL     1      26.541   4.406  50.138  1.00  0.00    -0.371 N 
HETATM    6  H7  UNL     1      27.454   4.336  50.624  1.00  0.00     0.161 HD
BRANCH   5   7
HETATM    7  C5  UNL     1      26.050   5.495  49.368  1.00  0.00     0.137 A 
HETATM    8  N2  UNL     1      24.752   5.832  49.439  1.00  0.00    -0.224 NA
HETATM    9  C6  UNL     1      24.271   6.851  48.724  1.00  0.00     0.235 A 
HETATM   10  N3  UNL     1      25.061   7.585  47.903  1.00  0.00    -0.241 NA
HETATM   11  C7  UNL     1      26.374   7.312  47.774  1.00  0.00     0.072 A 
HETATM   12  C8  UNL     1      27.221   8.022  46.956  1.00  0.00     0.034 A 
HETATM   13  C12 UNL     1      26.834   6.253  48.527  1.00  0.00     0.040 A 
HETATM   14  C9  UNL     1      28.578   7.713  46.846  1.00  0.00     0.026 A 
HETATM   15  C10 UNL     1      29.056   6.654  47.595  1.00  0.00     0.035 A 
HETATM   16 CL1  UNL     1      30.755   6.240  47.478  1.00  0.00    -0.084 Cl
HETATM   17  C11 UNL     1      28.177   5.961  48.407  1.00  0.00     0.041 A 
ENDBRANCH   5   7
ENDBRANCH   4   5
ENDBRANCH   3   4
BRANCH   2  18
HETATM   18  C13 UNL     1      26.479   0.979  53.346  1.00  0.00     0.146 C 
HETATM   19  C14 UNL     1      27.019  -0.108  52.415  1.00  0.00     0.044 C 
BRANCH  18  20
HETATM   20  O1  UNL     1      25.482   0.506  54.155  1.00  0.00    -0.377 OA
BRANCH  20  21
HETATM   21  C15 UNL     1      24.952  -0.726  53.833  1.00  0.00     0.207 C 
BRANCH  21  22
HETATM   22  C16 UNL     1      23.472  -0.662  53.859  1.00  0.00    -0.032 A 
HETATM   23  C17 UNL     1      22.598  -0.954  54.879  1.00  0.00     0.009 A 
HETATM   24  C18 UNL     1      21.237  -0.857  54.732  1.00  0.00     0.004 A 
HETATM   25  C19 UNL     1      20.653  -0.460  53.549  1.00  0.00     0.042 A 
HETATM   26  C20 UNL     1      21.475  -0.152  52.487  1.00  0.00     0.117 A 
HETATM   27  F1  UNL     1      20.978   0.247  51.292  1.00  0.00    -0.206 F 
HETATM   28  C21 UNL     1      22.837  -0.263  52.676  1.00  0.00     0.051 A 
ENDBRANCH  21  22
ENDBRANCH  20  21
ENDBRANCH  18  20
ENDBRANCH   2  18
TORSDOF 7
ENDMDL
MODEL 7
REMARK VINA RESULT:      -8.0      2.939      4.681
REMARK  7 active torsions:
REMARK  status: ('A' for Active; 'I' for Inactive)
REMARK    1  A    between atoms: C2_2  and  C13_17 
REMARK    2  A    between atoms: C3_3  and  C4_4 
REMARK    3  A    between atoms: C4_4  and  N1_5 
REMARK    4  A    between atoms: N1_5  and  C5_6 
REMARK    5  A    between atoms: C13_17  and  O1_19 
REMARK    6  A    between atoms: O1_19  and  C15_20 
REMARK    7  A    between atoms: C15_20  and  C16_21 
ROOT
HETATM    1  C1  UNL     1      23.459   3.225  51.986  1.00  0.00     0.046 C 
HETATM    2  C2  UNL     1      24.073   2.928  50.645  1.00  0.00    -0.058 C 
HETATM    3  C3  UNL     1      23.226   2.409  49.768  1.00  0.00    -0.003 C 
ENDROOT
BRANCH   3   4
HETATM    4  C4  UNL     1      21.805   2.134  50.050  1.00  0.00     0.149 C 
BRANCH   4   5
HETATM    5  N1  UNL     1      21.514   0.701  50.177  1.00  0.00    -0.371 N 
HETATM    6  H7  UNL     1      21.895   0.128  49.401  1.00  0.00     0.161 HD
BRANCH   5   7
HETATM    7  C5  UNL     1      20.773   0.253  51.303  1.00  0.00     0.137 A 
HETATM    8  N2  UNL     1      19.431   0.239  51.258  1.00  0.00    -0.224 NA
HETATM    9  C6  UNL     1      18.717  -0.178  52.305  1.00  0.00     0.235 A 
HETATM   10  N3  UNL     1      19.305  -0.604  53.450  1.00  0.00    -0.241 NA
HETATM   11  C7  UNL     1      20.647  -0.622  53.577  1.00  0.00     0.072 A 
HETATM   12  C8  UNL     1      21.296  -1.042  54.713  1.00  0.00     0.034 A 
HETATM   13  C12 UNL     1      21.350  -0.184  52.476  1.00  0.00     0.040 A 
HETATM   14  C9  UNL     1      22.689  -1.048  54.812  1.00  0.00     0.026 A 
HETATM   15  C10 UNL     1      23.410  -0.612  53.716  1.00  0.00     0.035 A 
HETATM   16 CL1  UNL     1      25.160  -0.606  53.810  1.00  0.00    -0.084 Cl
HETATM   17  C11 UNL     1      22.725  -0.196  52.590  1.00  0.00     0.041 A 
ENDBRANCH   5   7
ENDBRANCH   4   5
ENDBRANCH   3   4
BRANCH   2  18
HETATM   18  C13 UNL     1      25.515   3.183  50.289  1.00  0.00     0.146 C 
HETATM   19  C14 UNL     1      26.349   2.445  51.336  1.00  0.00     0.044 C 
BRANCH  18  20
HETATM   20  O1  UNL     1      25.690   4.539  50.362  1.00  0.00    -0.377 OA
BRANCH  20  21
HETATM   21  C15 UNL     1      25.412   5.264  49.222  1.00  0.00     0.207 C 
BRANCH  21  22
HETATM   22  C16 UNL     1      26.635   5.957  48.754  1.00  0.00    -0.032 A 
HETATM   23  C17 UNL     1      26.844   7.291  48.495  1.00  0.00     0.009 A 
HETATM   24  C18 UNL     1      28.048   7.773  48.046  1.00  0.00     0.004 A 
HETATM   25  C19 UNL     1      29.131   6.951  47.823  1.00  0.00     0.042 A 
HETATM   26  C20 UNL     1      28.987   5.602  48.064  1.00  0.00     0.117 A 
HETATM   27  F1  UNL     1      30.004   4.730  47.870  1.00  0.00    -0.206 F 
HETATM   28  C21 UNL     1      27.761   5.159  48.514  1.00  0.00     0.051 A 
ENDBRANCH  21  22
ENDBRANCH  20  21
ENDBRANCH  18  20
ENDBRANCH   2  18
TORSDOF 7
ENDMDL
MODEL 8
REMARK VINA RESULT:      -8.0      6.483     10.185
REMARK  7 active torsions:
REMARK  status: ('A' for Active; 'I' for Inactive)
REMARK    1  A    between atoms: C2_2  and  C13_17 
REMARK    2  A    between atoms: C3_3  and  C4_4 
REMARK    3  A    between atoms: C4_4  and  N1_5 
REMARK    4  A    between atoms: N1_5  and  C5_6 
REMARK    5  A    between atoms: C13_17  and  O1_19 
REMARK    6  A    between atoms: O1_19  and  C15_20 
REMARK    7  A    between atoms: C15_20  and  C16_21 
ROOT
HETATM    1  C1  UNL     1      25.884   6.030  49.240  1.00  0.00     0.046 C 
HETATM    2  C2  UNL     1      26.648   4.743  49.078  1.00  0.00    -0.058 C 
HETATM    3  C3  UNL     1      27.856   4.897  48.554  1.00  0.00    -0.003 C 
ENDROOT
BRANCH   3   4
HETATM    4  C4  UNL     1      28.428   6.196  48.154  1.00  0.00     0.149 C 
BRANCH   4   5
HETATM    5  N1  UNL     1      29.563   6.602  48.993  1.00  0.00    -0.371 N 
HETATM    6  H7  UNL     1      29.283   7.090  49.864  1.00  0.00     0.161 HD
BRANCH   5   7
HETATM    7  C5  UNL     1      30.879   6.300  48.551  1.00  0.00     0.137 A 
HETATM    8  N2  UNL     1      31.304   5.027  48.535  1.00  0.00    -0.224 NA
HETATM    9  C6  UNL     1      32.536   4.723  48.123  1.00  0.00     0.235 A 
HETATM   10  N3  UNL     1      33.407   5.674  47.706  1.00  0.00    -0.241 NA
HETATM   11  C7  UNL     1      33.059   6.977  47.691  1.00  0.00     0.072 A 
HETATM   12  C8  UNL     1      33.900   7.983  47.279  1.00  0.00     0.034 A 
HETATM   13  C12 UNL     1      31.779   7.251  48.123  1.00  0.00     0.040 A 
HETATM   14  C9  UNL     1      33.508   9.322  47.275  1.00  0.00     0.026 A 
HETATM   15  C10 UNL     1      32.227   9.616  47.706  1.00  0.00     0.035 A 
HETATM   16 CL1  UNL     1      31.706  11.288  47.715  1.00  0.00    -0.084 Cl
HETATM   17  C11 UNL     1      31.407   8.580  48.114  1.00  0.00     0.041 A 
ENDBRANCH   5   7
ENDBRANCH   4   5
ENDBRANCH   3   4
BRANCH   2  18
HETATM   18  C13 UNL     1      26.126   3.384  49.465  1.00  0.00     0.146 C 
HETATM   19  C14 UNL     1      24.602   3.482  49.408  1.00  0.00     0.044 C 
BRANCH  18  20
HETATM   20  O1  UNL     1      26.573   3.153  50.738  1.00  0.00    -0.377 OA
BRANCH  20  21
HETATM   21  C15 UNL     1      25.621   2.833  51.683  1.00  0.00     0.207 C 
BRANCH  21  22
HETATM   22  C16 UNL     1      25.834   1.448  52.164  1.00  0.00    -0.032 A 
HETATM   23  C17 UNL     1      26.941   0.639  52.054  1.00  0.00     0.009 A 
HETATM   24  C18 UNL     1      26.968  -0.641  52.547  1.00  0.00     0.004 A 
HETATM   25  C19 UNL     1      25.886  -1.206  53.187  1.00  0.00     0.042 A 
HETATM   26  C20 UNL     1      24.745  -0.447  53.329  1.00  0.00     0.117 A 
HETATM   27  F1  UNL     1      23.641  -0.929  53.947  1.00  0.00    -0.206 F 
HETATM   28  C21 UNL     1      24.759   0.835  52.821  1.00  0.00     0.051 A 
ENDBRANCH  21  22
ENDBRANCH  20  21
ENDBRANCH  18  20
ENDBRANCH   2  18
TORSDOF 7
ENDMDL
MODEL 9
REMARK VINA RESULT:      -7.9      4.199      8.295
REMARK  7 active torsions:
REMARK  status: ('A' for Active; 'I' for Inactive)
REMARK    1  A    between atoms: C2_2  and  C13_17 
REMARK    2  A    between atoms: C3_3  and  C4_4 
REMARK    3  A    between atoms: C4_4  and  N1_5 
REMARK    4  A    between atoms: N1_5  and  C5_6 
REMARK    5  A    between atoms: C13_17  and  O1_19 
REMARK    6  A    between atoms: O1_19  and  C15_20 
REMARK    7  A    between atoms: C15_20  and  C16_21 
ROOT
HETATM    1  C1  UNL     1      21.401   0.596  50.880  1.00  0.00     0.046 C 
HETATM    2  C2  UNL     1      20.768   1.049  52.168  1.00  0.00    -0.058 C 
HETATM    3  C3  UNL     1      21.027   2.311  52.481  1.00  0.00    -0.003 C 
ENDROOT
BRANCH   3   4
HETATM    4  C4  UNL     1      21.857   3.215  51.663  1.00  0.00     0.149 C 
BRANCH   4   5
HETATM    5  N1  UNL     1      23.095   3.620  52.339  1.00  0.00    -0.371 N 
HETATM    6  H7  UNL     1      22.937   4.180  53.198  1.00  0.00     0.161 HD
BRANCH   5   7
HETATM    7  C5  UNL     1      24.339   3.224  51.778  1.00  0.00     0.137 A 
HETATM    8  N2  UNL     1      24.926   3.991  50.845  1.00  0.00    -0.224 NA
HETATM    9  C6  UNL     1      26.094   3.636  50.306  1.00  0.00     0.235 A 
HETATM   10  N3  UNL     1      26.737   2.501  50.672  1.00  0.00    -0.241 NA
HETATM   11  C7  UNL     1      26.216   1.676  51.603  1.00  0.00     0.072 A 
HETATM   12  C8  UNL     1      26.822   0.512  52.011  1.00  0.00     0.034 A 
HETATM   13  C12 UNL     1      25.008   2.075  52.136  1.00  0.00     0.040 A 
HETATM   14  C9  UNL     1      26.255  -0.320  52.978  1.00  0.00     0.026 A 
HETATM   15  C10 UNL     1      25.044   0.065  53.523  1.00  0.00     0.035 A 
HETATM   16 CL1  UNL     1      24.306  -0.959  54.739  1.00  0.00    -0.084 Cl
HETATM   17  C11 UNL     1      24.462   1.242  53.089  1.00  0.00     0.041 A 
ENDBRANCH   5   7
ENDBRANCH   4   5
ENDBRANCH   3   4
BRANCH   2  18
HETATM   18  C13 UNL     1      19.909   0.181  53.051  1.00  0.00     0.146 C 
HETATM   19  C14 UNL     1      20.864  -0.778  53.762  1.00  0.00     0.044 C 
BRANCH  18  20
HETATM   20  O1  UNL     1      19.052  -0.483  52.215  1.00  0.00    -0.377 OA
BRANCH  20  21
HETATM   21  C15 UNL     1      17.707  -0.392  52.505  1.00  0.00     0.207 C 
BRANCH  21  22
HETATM   22  C16 UNL     1      17.167  -1.736  52.818  1.00  0.00    -0.032 A 
HETATM   23  C17 UNL     1      17.731  -2.765  53.535  1.00  0.00     0.009 A 
HETATM   24  C18 UNL     1      17.096  -3.966  53.721  1.00  0.00     0.004 A 
HETATM   25  C19 UNL     1      15.846  -4.225  53.201  1.00  0.00     0.042 A 
HETATM   26  C20 UNL     1      15.226  -3.234  52.472  1.00  0.00     0.117 A 
HETATM   27  F1  UNL     1      13.998  -3.411  51.929  1.00  0.00    -0.206 F 
HETATM   28  C21 UNL     1      15.898  -2.041  52.308  1.00  0.00     0.051 A 
ENDBRANCH  21  22
ENDBRANCH  20  21
ENDBRANCH  18  20
ENDBRANCH   2  18
TORSDOF 7
ENDMDL
