MODEL 1
REMARK VINA RESULT:      -7.9      0.000      0.000
REMARK  8 active torsions:
REMARK  status: ('A' for Active; 'I' for Inactive)
REMARK    1  A    between atoms: O1_2  and  C2_3 
REMARK    2  A    between atoms: C4_5  and  C5_6 
REMARK    3  A    between atoms: C5_6  and  O2_7 
REMARK    4  A    between atoms: C5_6  and  C6_8 
REMARK    5  A    between atoms: C6_8  and  N1_9 
REMARK    6  A    between atoms: C11_16  and  C12_17 
REMARK    7  A    between atoms: C15_22  and  N4_23 
REMARK    8  A    between atoms: N4_23  and  C16_24 
ROOT
HETATM    1  C2  UNL     1      22.925   1.802  50.764  1.00  0.00     0.078 A 
HETATM    2  C3  UNL     1      24.041   2.326  50.285  1.00  0.00     0.043 A 
HETATM    3  C4  UNL     1      24.660   3.171  51.310  1.00  0.00     0.178 A 
HETATM    4  O4  UNL     1      23.845   3.105  52.423  1.00  0.00    -0.363 OA
HETATM    5  C11 UNL     1      22.767   2.298  52.164  1.00  0.00     0.217 A 
ENDROOT
BRANCH   5   6
HETATM    6  C12 UNL     1      22.663   1.103  53.019  1.00  0.00     0.041 A 
HETATM    7  C13 UNL     1      23.765   0.412  53.444  1.00  0.00     0.132 A 
HETATM    8  N2  UNL     1      23.720  -0.684  54.226  1.00  0.00    -0.253 NA
HETATM    9  C14 UNL     1      22.508  -1.153  54.631  1.00  0.00     0.234 A 
HETATM   10  N3  UNL     1      21.404  -0.495  54.229  1.00  0.00    -0.224 NA
HETATM   11  C15 UNL     1      21.454   0.600  53.449  1.00  0.00     0.140 A 
BRANCH  11  12
HETATM   12  N4  UNL     1      20.241   1.210  53.088  1.00  0.00    -0.339 N 
HETATM   13  H21 UNL     1      19.888   2.156  53.283  1.00  0.00     0.167 HD
BRANCH  12  14
HETATM   14  C16 UNL     1      19.242   0.538  52.331  1.00  0.00     0.061 A 
HETATM   15  C17 UNL     1      18.397  -0.478  52.278  1.00  0.00     0.099 A 
HETATM   16 CL1  UNL     1      18.009  -1.807  53.382  1.00  0.00    -0.079 Cl
HETATM   17  C18 UNL     1      17.883  -0.128  50.979  1.00  0.00     0.142 A 
HETATM   18  F1  UNL     1      16.965  -0.633  50.133  1.00  0.00    -0.204 F 
HETATM   19  C19 UNL     1      18.705   0.885  50.998  1.00  0.00     0.075 A 
ENDBRANCH  12  14
ENDBRANCH  11  12
ENDBRANCH   5   6
BRANCH   1  20
HETATM   20  O1  UNL     1      22.098   0.967  50.078  1.00  0.00    -0.357 OA
HETATM   21  C1  UNL     1      21.621   1.198  48.768  1.00  0.00     0.209 C 
ENDBRANCH   1  20
BRANCH   3  22
HETATM   22  C5  UNL     1      26.033   2.743  51.744  1.00  0.00     0.179 C 
BRANCH  22  23
HETATM   23  O2  UNL     1      26.941   3.455  50.982  1.00  0.00    -0.391 OA
HETATM   24  H7  UNL     1      27.861   3.080  50.997  1.00  0.00     0.210 HD
ENDBRANCH  22  23
BRANCH  22  25
HETATM   25  C6  UNL     1      26.262   1.283  51.701  1.00  0.00     0.307 C 
BRANCH  25  26
HETATM   26  N1  UNL     1      27.315   0.750  52.490  1.00  0.00     0.095 N 
HETATM   27  C7  UNL     1      27.077  -0.705  52.606  1.00  0.00     0.298 C 
HETATM   28  C8  UNL     1      28.371  -1.295  53.120  1.00  0.00     0.198 C 
HETATM   29  O3  UNL     1      28.488  -0.851  54.444  1.00  0.00    -0.388 OA
HETATM   30  C9  UNL     1      28.557   0.527  54.518  1.00  0.00     0.198 C 
HETATM   31  C10 UNL     1      27.354   1.216  53.860  1.00  0.00     0.298 C 
ENDBRANCH  25  26
ENDBRANCH  22  25
ENDBRANCH   3  22
TORSDOF 8
ENDMDL
MODEL 2
REMARK VINA RESULT:      -7.7      2.107      3.075
REMARK  8 active torsions:
REMARK  status: ('A' for Active; 'I' for Inactive)
REMARK    1  A    between atoms: O1_2  and  C2_3 
REMARK    2  A    between atoms: C4_5  and  C5_6 
REMARK    3  A    between atoms: C5_6  and  O2_7 
REMARK    4  A    between atoms: C5_6  and  C6_8 
REMARK    5  A    between atoms: C6_8  and  N1_9 
REMARK    6  A    between atoms: C11_16  and  C12_17 
REMARK    7  A    between atoms: C15_22  and  N4_23 
REMARK    8  A    between atoms: N4_23  and  C16_24 
ROOT
HETATM    1  C2  UNL     1      22.592   4.042  52.348  1.00  0.00     0.078 A 
HETATM    2  C3  UNL     1      23.826   4.189  52.799  1.00  0.00     0.043 A 
HETATM    3  C4  UNL     1      24.359   2.882  53.193  1.00  0.00     0.178 A 
HETATM    4  O4  UNL     1      23.365   1.957  52.938  1.00  0.00    -0.363 OA
HETATM    5  C11 UNL     1      22.259   2.588  52.431  1.00  0.00     0.217 A 
ENDROOT
BRANCH   5   6
HETATM    6  C12 UNL     1      21.872   2.173  51.072  1.00  0.00     0.041 A 
HETATM    7  C13 UNL     1      22.744   2.217  50.019  1.00  0.00     0.132 A 
HETATM    8  N2  UNL     1      22.437   1.848  48.761  1.00  0.00    -0.253 NA
HETATM    9  C14 UNL     1      21.179   1.398  48.497  1.00  0.00     0.234 A 
HETATM   10  N3  UNL     1      20.297   1.342  49.512  1.00  0.00    -0.224 NA
HETATM   11  C15 UNL     1      20.609   1.712  50.767  1.00  0.00     0.140 A 
BRANCH  11  12
HETATM   12  N4  UNL     1      19.612   1.614  51.752  1.00  0.00    -0.339 N 
HETATM   13  H21 UNL     1      18.936   2.313  52.087  1.00  0.00     0.167 HD
BRANCH  12  14
HETATM   14  C16 UNL     1      19.380   0.420  52.491  1.00  0.00     0.061 A 
HETATM   15  C17 UNL     1      19.802  -0.376  53.460  1.00  0.00     0.099 A 
HETATM   16 CL1  UNL     1      21.184  -0.332  54.565  1.00  0.00    -0.079 Cl
HETATM   17  C18 UNL     1      18.725  -1.319  53.306  1.00  0.00     0.142 A 
HETATM   18  F1  UNL     1      18.355  -2.471  53.897  1.00  0.00    -0.204 F 
HETATM   19  C19 UNL     1      18.281  -0.556  52.345  1.00  0.00     0.075 A 
ENDBRANCH  12  14
ENDBRANCH  11  12
ENDBRANCH   5   6
BRANCH   1  20
HETATM   20  O1  UNL     1      21.800   5.053  51.899  1.00  0.00    -0.357 OA
HETATM   21  C1  UNL     1      22.171   5.994  50.910  1.00  0.00     0.209 C 
ENDBRANCH   1  20
BRANCH   3  22
HETATM   22  C5  UNL     1      25.578   2.436  52.437  1.00  0.00     0.179 C 
BRANCH  22  23
HETATM   23  O2  UNL     1      25.774   3.344  51.412  1.00  0.00    -0.391 OA
HETATM   24  H7  UNL     1      25.009   3.961  51.269  1.00  0.00     0.210 HD
ENDBRANCH  22  23
BRANCH  22  25
HETATM   25  C6  UNL     1      25.529   1.035  51.967  1.00  0.00     0.307 C 
BRANCH  25  26
HETATM   26  N1  UNL     1      26.648   0.203  52.237  1.00  0.00     0.095 N 
HETATM   27  C7  UNL     1      26.123  -1.061  52.797  1.00  0.00     0.298 C 
HETATM   28  C8  UNL     1      27.268  -2.048  52.731  1.00  0.00     0.198 C 
HETATM   29  O3  UNL     1      28.201  -1.605  53.677  1.00  0.00    -0.388 OA
HETATM   30  C9  UNL     1      28.674  -0.343  53.378  1.00  0.00     0.198 C 
HETATM   31  C10 UNL     1      27.550   0.696  53.255  1.00  0.00     0.298 C 
ENDBRANCH  25  26
ENDBRANCH  22  25
ENDBRANCH   3  22
TORSDOF 8
ENDMDL
MODEL 3
REMARK VINA RESULT:      -7.4      3.884      7.854
REMARK  8 active torsions:
REMARK  status: ('A' for Active; 'I' for Inactive)
REMARK    1  A    between atoms: O1_2  and  C2_3 
REMARK    2  A    between atoms: C4_5  and  C5_6 
REMARK    3  A    between atoms: C5_6  and  O2_7 
REMARK    4  A    between atoms: C5_6  and  C6_8 
REMARK    5  A    between atoms: C6_8  and  N1_9 
REMARK    6  A    between atoms: C11_16  and  C12_17 
REMARK    7  A    between atoms: C15_22  and  N4_23 
REMARK    8  A    between atoms: N4_23  and  C16_24 
ROOT
HETATM    1  C2  UNL     1      23.169   1.819  52.099  1.00  0.00     0.078 A 
HETATM    2  C3  UNL     1      21.987   2.344  51.823  1.00  0.00     0.043 A 
HETATM    3  C4  UNL     1      21.045   1.271  51.490  1.00  0.00     0.178 A 
HETATM    4  O4  UNL     1      21.744   0.084  51.595  1.00  0.00    -0.363 OA
HETATM    5  C11 UNL     1      23.043   0.338  51.952  1.00  0.00     0.217 A 
ENDROOT
BRANCH   5   6
HETATM    6  C12 UNL     1      23.459  -0.244  53.240  1.00  0.00     0.041 A 
HETATM    7  C13 UNL     1      22.559  -0.577  54.216  1.00  0.00     0.132 A 
HETATM    8  N2  UNL     1      22.892  -1.110  55.406  1.00  0.00    -0.253 NA
HETATM    9  C14 UNL     1      24.206  -1.341  55.680  1.00  0.00     0.234 A 
HETATM   10  N3  UNL     1      25.116  -1.023  54.740  1.00  0.00    -0.224 NA
HETATM   11  C15 UNL     1      24.779  -0.492  53.552  1.00  0.00     0.140 A 
BRANCH  11  12
HETATM   12  N4  UNL     1      25.809  -0.198  52.643  1.00  0.00    -0.339 N 
HETATM   13  H21 UNL     1      25.770   0.013  51.637  1.00  0.00     0.167 HD
BRANCH  12  14
HETATM   14  C16 UNL     1      27.178  -0.147  53.027  1.00  0.00     0.061 A 
HETATM   15  C17 UNL     1      28.191   0.618  53.397  1.00  0.00     0.099 A 
HETATM   16 CL1  UNL     1      28.380   2.360  53.653  1.00  0.00    -0.079 Cl
HETATM   17  C18 UNL     1      29.118  -0.477  53.525  1.00  0.00     0.142 A 
HETATM   18  F1  UNL     1      30.413  -0.614  53.867  1.00  0.00    -0.204 F 
HETATM   19  C19 UNL     1      28.139  -1.261  53.163  1.00  0.00     0.075 A 
ENDBRANCH  12  14
ENDBRANCH  11  12
ENDBRANCH   5   6
BRANCH   1  20
HETATM   20  O1  UNL     1      24.276   2.530  52.447  1.00  0.00    -0.357 OA
HETATM   21  C1  UNL     1      25.196   3.093  51.534  1.00  0.00     0.209 C 
ENDBRANCH   1  20
BRANCH   3  22
HETATM   22  C5  UNL     1      19.855   1.163  52.401  1.00  0.00     0.179 C 
BRANCH  22  23
HETATM   23  O2  UNL     1      20.132   1.923  53.523  1.00  0.00    -0.391 OA
HETATM   24  H7  UNL     1      21.074   1.854  53.833  1.00  0.00     0.210 HD
ENDBRANCH  22  23
BRANCH  22  25
HETATM   25  C6  UNL     1      19.458  -0.224  52.725  1.00  0.00     0.307 C 
BRANCH  25  26
HETATM   26  N1  UNL     1      18.231  -0.706  52.195  1.00  0.00     0.095 N 
HETATM   27  C7  UNL     1      17.488   0.466  51.686  1.00  0.00     0.298 C 
HETATM   28  C8  UNL     1      16.384  -0.092  50.814  1.00  0.00     0.198 C 
HETATM   29  O3  UNL     1      15.492  -0.719  51.693  1.00  0.00    -0.388 OA
HETATM   30  C9  UNL     1      16.094  -1.755  52.381  1.00  0.00     0.198 C 
HETATM   31  C10 UNL     1      17.336  -1.304  53.162  1.00  0.00     0.298 C 
ENDBRANCH  25  26
ENDBRANCH  22  25
ENDBRANCH   3  22
TORSDOF 8
ENDMDL
MODEL 4
REMARK VINA RESULT:      -7.3      3.606      5.160
REMARK  8 active torsions:
REMARK  status: ('A' for Active; 'I' for Inactive)
REMARK    1  A    between atoms: O1_2  and  C2_3 
REMARK    2  A    between atoms: C4_5  and  C5_6 
REMARK    3  A    between atoms: C5_6  and  O2_7 
REMARK    4  A    between atoms: C5_6  and  C6_8 
REMARK    5  A    between atoms: C6_8  and  N1_9 
REMARK    6  A    between atoms: C11_16  and  C12_17 
REMARK    7  A    between atoms: C15_22  and  N4_23 
REMARK    8  A    between atoms: N4_23  and  C16_24 
ROOT
HETATM    1  C2  UNL     1      23.061   3.568  49.762  1.00  0.00     0.078 A 
HETATM    2  C3  UNL     1      23.414   4.802  49.443  1.00  0.00     0.043 A 
HETATM    3  C4  UNL     1      23.204   5.681  50.597  1.00  0.00     0.178 A 
HETATM    4  O4  UNL     1      22.715   4.887  51.616  1.00  0.00    -0.363 OA
HETATM    5  C11 UNL     1      22.593   3.593  51.181  1.00  0.00     0.217 A 
ENDROOT
BRANCH   5   6
HETATM    6  C12 UNL     1      23.417   2.612  51.907  1.00  0.00     0.041 A 
HETATM    7  C13 UNL     1      24.591   2.956  52.521  1.00  0.00     0.132 A 
HETATM    8  N2  UNL     1      25.376   2.096  53.196  1.00  0.00    -0.253 NA
HETATM    9  C14 UNL     1      24.998   0.791  53.285  1.00  0.00     0.234 A 
HETATM   10  N3  UNL     1      23.848   0.420  52.692  1.00  0.00    -0.224 NA
HETATM   11  C15 UNL     1      23.066   1.283  52.019  1.00  0.00     0.140 A 
BRANCH  11  12
HETATM   12  N4  UNL     1      21.886   0.791  51.437  1.00  0.00    -0.339 N 
HETATM   13  H21 UNL     1      21.599   0.745  50.450  1.00  0.00     0.167 HD
BRANCH  12  14
HETATM   14  C16 UNL     1      20.826   0.236  52.207  1.00  0.00     0.061 A 
HETATM   15  C17 UNL     1      20.471  -0.320  53.353  1.00  0.00     0.099 A 
HETATM   16 CL1  UNL     1      21.348  -0.743  54.832  1.00  0.00    -0.079 Cl
HETATM   17  C18 UNL     1      19.088  -0.471  52.980  1.00  0.00     0.142 A 
HETATM   18  F1  UNL     1      17.976  -0.960  53.562  1.00  0.00    -0.204 F 
HETATM   19  C19 UNL     1      19.404   0.075  51.838  1.00  0.00     0.075 A 
ENDBRANCH  12  14
ENDBRANCH  11  12
ENDBRANCH   5   6
BRANCH   1  20
HETATM   20  O1  UNL     1      23.126   2.497  48.926  1.00  0.00    -0.357 OA
HETATM   21  C1  UNL     1      22.250   2.263  47.842  1.00  0.00     0.209 C 
ENDBRANCH   1  20
BRANCH   3  22
HETATM   22  C5  UNL     1      24.442   6.353  51.120  1.00  0.00     0.179 C 
BRANCH  22  23
HETATM   23  O2  UNL     1      24.249   6.562  52.473  1.00  0.00    -0.391 OA
HETATM   24  H7  UNL     1      23.364   6.258  52.805  1.00  0.00     0.210 HD
ENDBRANCH  22  23
BRANCH  22  25
HETATM   25  C6  UNL     1      24.824   7.582  50.393  1.00  0.00     0.307 C 
BRANCH  25  26
HETATM   26  N1  UNL     1      26.186   7.741  50.023  1.00  0.00     0.095 N 
HETATM   27  C7  UNL     1      26.432   9.192  49.887  1.00  0.00     0.298 C 
HETATM   28  C8  UNL     1      27.937   9.355  49.859  1.00  0.00     0.198 C 
HETATM   29  O3  UNL     1      28.350   8.812  48.636  1.00  0.00    -0.388 OA
HETATM   30  C9  UNL     1      28.037   7.470  48.538  1.00  0.00     0.198 C 
HETATM   31  C10 UNL     1      26.539   7.197  48.729  1.00  0.00     0.298 C 
ENDBRANCH  25  26
ENDBRANCH  22  25
ENDBRANCH   3  22
TORSDOF 8
ENDMDL
MODEL 5
REMARK VINA RESULT:      -7.3      3.890      5.788
REMARK  8 active torsions:
REMARK  status: ('A' for Active; 'I' for Inactive)
REMARK    1  A    between atoms: O1_2  and  C2_3 
REMARK    2  A    between atoms: C4_5  and  C5_6 
REMARK    3  A    between atoms: C5_6  and  O2_7 
REMARK    4  A    between atoms: C5_6  and  C6_8 
REMARK    5  A    between atoms: C6_8  and  N1_9 
REMARK    6  A    between atoms: C11_16  and  C12_17 
REMARK    7  A    between atoms: C15_22  and  N4_23 
REMARK    8  A    between atoms: N4_23  and  C16_24 
ROOT
HETATM    1  C2  UNL     1      23.314   3.872  49.414  1.00  0.00     0.078 A 
HETATM    2  C3  UNL     1      23.326   5.178  49.209  1.00  0.00     0.043 A 
HETATM    3  C4  UNL     1      23.351   5.872  50.500  1.00  0.00     0.178 A 
HETATM    4  O4  UNL     1      23.362   4.894  51.475  1.00  0.00    -0.363 OA
HETATM    5  C11 UNL     1      23.333   3.654  50.892  1.00  0.00     0.217 A 
ENDROOT
BRANCH   5   6
HETATM    6  C12 UNL     1      24.504   2.806  51.172  1.00  0.00     0.041 A 
HETATM    7  C13 UNL     1      25.785   3.235  50.955  1.00  0.00     0.132 A 
HETATM    8  N2  UNL     1      26.885   2.498  51.196  1.00  0.00    -0.253 NA
HETATM    9  C14 UNL     1      26.737   1.236  51.687  1.00  0.00     0.234 A 
HETATM   10  N3  UNL     1      25.488   0.784  51.912  1.00  0.00    -0.224 NA
HETATM   11  C15 UNL     1      24.392   1.525  51.670  1.00  0.00     0.140 A 
BRANCH  11  12
HETATM   12  N4  UNL     1      23.137   0.956  51.940  1.00  0.00    -0.339 N 
HETATM   13  H21 UNL     1      22.259   0.996  51.406  1.00  0.00     0.167 HD
BRANCH  12  14
HETATM   14  C16 UNL     1      22.886   0.171  53.099  1.00  0.00     0.061 A 
HETATM   15  C17 UNL     1      21.975  -0.300  53.936  1.00  0.00     0.099 A 
HETATM   16 CL1  UNL     1      20.215  -0.143  54.044  1.00  0.00    -0.079 Cl
HETATM   17  C18 UNL     1      22.929  -1.004  54.754  1.00  0.00     0.142 A 
HETATM   18  F1  UNL     1      22.875  -1.775  55.857  1.00  0.00    -0.204 F 
HETATM   19  C19 UNL     1      23.853  -0.557  53.948  1.00  0.00     0.075 A 
ENDBRANCH  12  14
ENDBRANCH  11  12
ENDBRANCH   5   6
BRANCH   1  20
HETATM   20  O1  UNL     1      23.290   2.928  48.434  1.00  0.00    -0.357 OA
HETATM   21  C1  UNL     1      22.295   1.934  48.293  1.00  0.00     0.209 C 
ENDBRANCH   1  20
BRANCH   3  22
HETATM   22  C5  UNL     1      24.555   6.739  50.734  1.00  0.00     0.179 C 
BRANCH  22  23
HETATM   23  O2  UNL     1      24.545   7.097  52.070  1.00  0.00    -0.391 OA
HETATM   24  H7  UNL     1      23.901   7.822  52.287  1.00  0.00     0.210 HD
ENDBRANCH  22  23
BRANCH  22  25
HETATM   25  C6  UNL     1      24.659   7.901  49.825  1.00  0.00     0.307 C 
BRANCH  25  26
HETATM   26  N1  UNL     1      25.931   8.199  49.267  1.00  0.00     0.095 N 
HETATM   27  C7  UNL     1      26.592   6.907  48.982  1.00  0.00     0.298 C 
HETATM   28  C8  UNL     1      27.756   7.232  48.071  1.00  0.00     0.198 C 
HETATM   29  O3  UNL     1      28.674   7.929  48.868  1.00  0.00    -0.388 OA
HETATM   30  C9  UNL     1      28.139   9.105  49.357  1.00  0.00     0.198 C 
HETATM   31  C10 UNL     1      26.848   8.881  50.156  1.00  0.00     0.298 C 
ENDBRANCH  25  26
ENDBRANCH  22  25
ENDBRANCH   3  22
TORSDOF 8
ENDMDL
MODEL 6
REMARK VINA RESULT:      -7.2      5.310      7.473
REMARK  8 active torsions:
REMARK  status: ('A' for Active; 'I' for Inactive)
REMARK    1  A    between atoms: O1_2  and  C2_3 
REMARK    2  A    between atoms: C4_5  and  C5_6 
REMARK    3  A    between atoms: C5_6  and  O2_7 
REMARK    4  A    between atoms: C5_6  and  C6_8 
REMARK    5  A    between atoms: C6_8  and  N1_9 
REMARK    6  A    between atoms: C11_16  and  C12_17 
REMARK    7  A    between atoms: C15_22  and  N4_23 
REMARK    8  A    between atoms: N4_23  and  C16_24 
ROOT
HETATM    1  C2  UNL     1      23.557   3.066  50.718  1.00  0.00     0.078 A 
HETATM    2  C3  UNL     1      24.067   2.141  51.514  1.00  0.00     0.043 A 
HETATM    3  C4  UNL     1      25.514   2.058  51.298  1.00  0.00     0.178 A 
HETATM    4  O4  UNL     1      25.824   2.996  50.333  1.00  0.00    -0.363 OA
HETATM    5  C11 UNL     1      24.686   3.641  49.926  1.00  0.00     0.217 A 
ENDROOT
BRANCH   5   6
HETATM    6  C12 UNL     1      24.669   5.093  50.175  1.00  0.00     0.041 A 
HETATM    7  C13 UNL     1      23.570   5.735  50.678  1.00  0.00     0.132 A 
HETATM    8  N2  UNL     1      23.509   7.058  50.922  1.00  0.00    -0.253 NA
HETATM    9  C14 UNL     1      24.601   7.827  50.658  1.00  0.00     0.234 A 
HETATM   10  N3  UNL     1      25.699   7.225  50.163  1.00  0.00    -0.224 NA
HETATM   11  C15 UNL     1      25.756   5.903  49.921  1.00  0.00     0.140 A 
BRANCH  11  12
HETATM   12  N4  UNL     1      26.951   5.377  49.404  1.00  0.00    -0.339 N 
HETATM   13  H21 UNL     1      27.405   4.469  49.568  1.00  0.00     0.167 HD
BRANCH  12  14
HETATM   14  C16 UNL     1      27.774   6.097  48.495  1.00  0.00     0.061 A 
HETATM   15  C17 UNL     1      27.833   7.048  47.577  1.00  0.00     0.099 A 
HETATM   16 CL1  UNL     1      26.633   8.141  46.869  1.00  0.00    -0.079 Cl
HETATM   17  C18 UNL     1      29.245   6.889  47.340  1.00  0.00     0.142 A 
HETATM   18  F1  UNL     1      30.164   7.464  46.542  1.00  0.00    -0.204 F 
HETATM   19  C19 UNL     1      29.223   5.945  48.242  1.00  0.00     0.075 A 
ENDBRANCH  12  14
ENDBRANCH  11  12
ENDBRANCH   5   6
BRANCH   1  20
HETATM   20  O1  UNL     1      22.240   3.404  50.657  1.00  0.00    -0.357 OA
HETATM   21  C1  UNL     1      21.242   2.933  51.541  1.00  0.00     0.209 C 
ENDBRANCH   1  20
BRANCH   3  22
HETATM   22  C5  UNL     1      26.357   2.371  52.502  1.00  0.00     0.179 C 
BRANCH  22  23
HETATM   23  O2  UNL     1      27.577   2.825  52.035  1.00  0.00    -0.391 OA
HETATM   24  H7  UNL     1      28.357   2.475  52.543  1.00  0.00     0.210 HD
ENDBRANCH  22  23
BRANCH  22  25
HETATM   25  C6  UNL     1      26.484   1.258  53.466  1.00  0.00     0.307 C 
BRANCH  25  26
HETATM   26  N1  UNL     1      27.265   0.134  53.087  1.00  0.00     0.095 N 
HETATM   27  C7  UNL     1      26.410  -1.061  53.245  1.00  0.00     0.298 C 
HETATM   28  C8  UNL     1      27.117  -2.175  52.504  1.00  0.00     0.198 C 
HETATM   29  O3  UNL     1      28.263  -2.460  53.257  1.00  0.00    -0.388 OA
HETATM   30  C9  UNL     1      29.104  -1.368  53.344  1.00  0.00     0.198 C 
HETATM   31  C10 UNL     1      28.410  -0.132  53.932  1.00  0.00     0.298 C 
ENDBRANCH  25  26
ENDBRANCH  22  25
ENDBRANCH   3  22
TORSDOF 8
ENDMDL
MODEL 7
REMARK VINA RESULT:      -7.2      3.794      7.943
REMARK  8 active torsions:
REMARK  status: ('A' for Active; 'I' for Inactive)
REMARK    1  A    between atoms: O1_2  and  C2_3 
REMARK    2  A    between atoms: C4_5  and  C5_6 
REMARK    3  A    between atoms: C5_6  and  O2_7 
REMARK    4  A    between atoms: C5_6  and  C6_8 
REMARK    5  A    between atoms: C6_8  and  N1_9 
REMARK    6  A    between atoms: C11_16  and  C12_17 
REMARK    7  A    between atoms: C15_22  and  N4_23 
REMARK    8  A    between atoms: N4_23  and  C16_24 
ROOT
HETATM    1  C2  UNL     1      23.133   1.401  52.617  1.00  0.00     0.078 A 
HETATM    2  C3  UNL     1      21.825   1.350  52.432  1.00  0.00     0.043 A 
HETATM    3  C4  UNL     1      21.296   2.711  52.312  1.00  0.00     0.178 A 
HETATM    4  O4  UNL     1      22.375   3.566  52.428  1.00  0.00    -0.363 OA
HETATM    5  C11 UNL     1      23.523   2.844  52.624  1.00  0.00     0.217 A 
ENDROOT
BRANCH   5   6
HETATM    6  C12 UNL     1      24.545   3.002  51.575  1.00  0.00     0.041 A 
HETATM    7  C13 UNL     1      24.228   3.376  50.297  1.00  0.00     0.132 A 
HETATM    8  N2  UNL     1      25.126   3.534  49.306  1.00  0.00    -0.253 NA
HETATM    9  C14 UNL     1      26.443   3.311  49.571  1.00  0.00     0.234 A 
HETATM   10  N3  UNL     1      26.788   2.943  50.819  1.00  0.00    -0.224 NA
HETATM   11  C15 UNL     1      25.888   2.787  51.806  1.00  0.00     0.140 A 
BRANCH  11  12
HETATM   12  N4  UNL     1      26.355   2.399  53.072  1.00  0.00    -0.339 N 
HETATM   13  H21 UNL     1      26.033   2.667  54.011  1.00  0.00     0.167 HD
BRANCH  12  14
HETATM   14  C16 UNL     1      27.441   1.496  53.244  1.00  0.00     0.061 A 
HETATM   15  C17 UNL     1      27.864   0.247  53.136  1.00  0.00     0.099 A 
HETATM   16 CL1  UNL     1      27.105  -1.260  52.603  1.00  0.00    -0.079 Cl
HETATM   17  C18 UNL     1      29.191   0.537  53.616  1.00  0.00     0.142 A 
HETATM   18  F1  UNL     1      30.316  -0.169  53.838  1.00  0.00    -0.204 F 
HETATM   19  C19 UNL     1      28.807   1.779  53.734  1.00  0.00     0.075 A 
ENDBRANCH  12  14
ENDBRANCH  11  12
ENDBRANCH   5   6
BRANCH   1  20
HETATM   20  O1  UNL     1      23.944   0.319  52.768  1.00  0.00    -0.357 OA
HETATM   21  C1  UNL     1      23.956  -0.530  53.899  1.00  0.00     0.209 C 
ENDBRANCH   1  20
BRANCH   3  22
HETATM   22  C5  UNL     1      20.629   3.022  51.002  1.00  0.00     0.179 C 
BRANCH  22  23
HETATM   23  O2  UNL     1      19.937   4.208  51.171  1.00  0.00    -0.391 OA
HETATM   24  H7  UNL     1      20.176   4.910  50.509  1.00  0.00     0.210 HD
ENDBRANCH  22  23
BRANCH  22  25
HETATM   25  C6  UNL     1      19.784   1.931  50.472  1.00  0.00     0.307 C 
BRANCH  25  26
HETATM   26  N1  UNL     1      18.629   1.563  51.212  1.00  0.00     0.095 N 
HETATM   27  C7  UNL     1      18.577   0.085  51.228  1.00  0.00     0.298 C 
HETATM   28  C8  UNL     1      17.578  -0.280  52.304  1.00  0.00     0.198 C 
HETATM   29  O3  UNL     1      16.329   0.110  51.805  1.00  0.00    -0.388 OA
HETATM   30  C9  UNL     1      16.270   1.470  51.576  1.00  0.00     0.198 C 
HETATM   31  C10 UNL     1      17.368   1.957  50.620  1.00  0.00     0.298 C 
ENDBRANCH  25  26
ENDBRANCH  22  25
ENDBRANCH   3  22
TORSDOF 8
ENDMDL
MODEL 8
REMARK VINA RESULT:      -7.2      3.597      7.457
REMARK  8 active torsions:
REMARK  status: ('A' for Active; 'I' for Inactive)
REMARK    1  A    between atoms: O1_2  and  C2_3 
REMARK    2  A    between atoms: C4_5  and  C5_6 
REMARK    3  A    between atoms: C5_6  and  O2_7 
REMARK    4  A    between atoms: C5_6  and  C6_8 
REMARK    5  A    between atoms: C6_8  and  N1_9 
REMARK    6  A    between atoms: C11_16  and  C12_17 
REMARK    7  A    between atoms: C15_22  and  N4_23 
REMARK    8  A    between atoms: N4_23  and  C16_24 
ROOT
HETATM    1  C2  UNL     1      22.475   3.103  51.895  1.00  0.00     0.078 A 
HETATM    2  C3  UNL     1      21.472   3.817  51.413  1.00  0.00     0.043 A 
HETATM    3  C4  UNL     1      20.646   2.971  50.547  1.00  0.00     0.178 A 
HETATM    4  O4  UNL     1      21.220   1.715  50.556  1.00  0.00    -0.363 OA
HETATM    5  C11 UNL     1      22.340   1.720  51.346  1.00  0.00     0.217 A 
ENDROOT
BRANCH   5   6
HETATM    6  C12 UNL     1      22.287   0.816  52.508  1.00  0.00     0.041 A 
HETATM    7  C13 UNL     1      21.108   0.473  53.113  1.00  0.00     0.132 A 
HETATM    8  N2  UNL     1      21.010  -0.349  54.175  1.00  0.00    -0.253 NA
HETATM    9  C14 UNL     1      22.147  -0.885  54.699  1.00  0.00     0.234 A 
HETATM   10  N3  UNL     1      23.323  -0.567  54.126  1.00  0.00    -0.224 NA
HETATM   11  C15 UNL     1      23.416   0.254  53.065  1.00  0.00     0.140 A 
BRANCH  11  12
HETATM   12  N4  UNL     1      24.694   0.520  52.545  1.00  0.00    -0.339 N 
HETATM   13  H21 UNL     1      24.973   0.973  51.665  1.00  0.00     0.167 HD
BRANCH  12  14
HETATM   14  C16 UNL     1      25.888   0.164  53.230  1.00  0.00     0.061 A 
HETATM   15  C17 UNL     1      26.852  -0.732  53.373  1.00  0.00     0.099 A 
HETATM   16 CL1  UNL     1      27.204  -2.285  52.599  1.00  0.00    -0.079 Cl
HETATM   17  C18 UNL     1      27.538   0.006  54.402  1.00  0.00     0.142 A 
HETATM   18  F1  UNL     1      28.648  -0.171  55.143  1.00  0.00    -0.204 F 
HETATM   19  C19 UNL     1      26.603   0.910  54.286  1.00  0.00     0.075 A 
ENDBRANCH  12  14
ENDBRANCH  11  12
ENDBRANCH   5   6
BRANCH   1  20
HETATM   20  O1  UNL     1      23.436   3.576  52.735  1.00  0.00    -0.357 OA
HETATM   21  C1  UNL     1      23.692   4.944  52.984  1.00  0.00     0.209 C 
ENDBRANCH   1  20
BRANCH   3  22
HETATM   22  C5  UNL     1      19.220   2.805  50.990  1.00  0.00     0.179 C 
BRANCH  22  23
HETATM   23  O2  UNL     1      19.167   3.154  52.327  1.00  0.00    -0.391 OA
HETATM   24  H7  UNL     1      19.106   4.134  52.485  1.00  0.00     0.210 HD
ENDBRANCH  22  23
BRANCH  22  25
HETATM   25  C6  UNL     1      18.646   1.470  50.718  1.00  0.00     0.307 C 
BRANCH  25  26
HETATM   26  N1  UNL     1      17.737   0.930  51.667  1.00  0.00     0.095 N 
HETATM   27  C7  UNL     1      17.976  -0.528  51.714  1.00  0.00     0.298 C 
HETATM   28  C8  UNL     1      17.278  -1.020  52.963  1.00  0.00     0.198 C 
HETATM   29  O3  UNL     1      15.908  -0.896  52.702  1.00  0.00    -0.388 OA
HETATM   30  C9  UNL     1      15.547   0.416  52.468  1.00  0.00     0.198 C 
HETATM   31  C10 UNL     1      16.338   1.052  51.317  1.00  0.00     0.298 C 
ENDBRANCH  25  26
ENDBRANCH  22  25
ENDBRANCH   3  22
TORSDOF 8
ENDMDL
MODEL 9
REMARK VINA RESULT:      -7.2      4.050      7.810
REMARK  8 active torsions:
REMARK  status: ('A' for Active; 'I' for Inactive)
REMARK    1  A    between atoms: O1_2  and  C2_3 
REMARK    2  A    between atoms: C4_5  and  C5_6 
REMARK    3  A    between atoms: C5_6  and  O2_7 
REMARK    4  A    between atoms: C5_6  and  C6_8 
REMARK    5  A    between atoms: C6_8  and  N1_9 
REMARK    6  A    between atoms: C11_16  and  C12_17 
REMARK    7  A    between atoms: C15_22  and  N4_23 
REMARK    8  A    between atoms: N4_23  and  C16_24 
ROOT
HETATM    1  C2  UNL     1      23.077   1.558  52.552  1.00  0.00     0.078 A 
HETATM    2  C3  UNL     1      21.770   1.635  52.369  1.00  0.00     0.043 A 
HETATM    3  C4  UNL     1      21.369   3.043  52.311  1.00  0.00     0.178 A 
HETATM    4  O4  UNL     1      22.521   3.789  52.464  1.00  0.00    -0.363 OA
HETATM    5  C11 UNL     1      23.598   2.956  52.623  1.00  0.00     0.217 A 
ENDROOT
BRANCH   5   6
HETATM    6  C12 UNL     1      24.632   3.067  51.580  1.00  0.00     0.041 A 
HETATM    7  C13 UNL     1      24.342   3.470  50.305  1.00  0.00     0.132 A 
HETATM    8  N2  UNL     1      25.252   3.587  49.319  1.00  0.00    -0.253 NA
HETATM    9  C14 UNL     1      26.554   3.288  49.587  1.00  0.00     0.234 A 
HETATM   10  N3  UNL     1      26.872   2.889  50.833  1.00  0.00    -0.224 NA
HETATM   11  C15 UNL     1      25.959   2.775  51.815  1.00  0.00     0.140 A 
BRANCH  11  12
HETATM   12  N4  UNL     1      26.399   2.349  53.079  1.00  0.00    -0.339 N 
HETATM   13  H21 UNL     1      26.095   2.634  54.020  1.00  0.00     0.167 HD
BRANCH  12  14
HETATM   14  C16 UNL     1      27.420   1.374  53.246  1.00  0.00     0.061 A 
HETATM   15  C17 UNL     1      27.767   0.105  53.104  1.00  0.00     0.099 A 
HETATM   16 CL1  UNL     1      26.930  -1.331  52.494  1.00  0.00    -0.079 Cl
HETATM   17  C18 UNL     1      29.095   0.292  53.630  1.00  0.00     0.142 A 
HETATM   18  F1  UNL     1      30.166  -0.492  53.856  1.00  0.00    -0.204 F 
HETATM   19  C19 UNL     1      28.786   1.551  53.783  1.00  0.00     0.075 A 
ENDBRANCH  12  14
ENDBRANCH  11  12
ENDBRANCH   5   6
BRANCH   1  20
HETATM   20  O1  UNL     1      23.784   0.399  52.653  1.00  0.00    -0.357 OA
HETATM   21  C1  UNL     1      23.759  -0.469  53.768  1.00  0.00     0.209 C 
ENDBRANCH   1  20
BRANCH   3  22
HETATM   22  C5  UNL     1      20.735   3.474  51.019  1.00  0.00     0.179 C 
BRANCH  22  23
HETATM   23  O2  UNL     1      19.548   4.107  51.340  1.00  0.00    -0.391 OA
HETATM   24  H7  UNL     1      18.741   3.548  51.188  1.00  0.00     0.210 HD
ENDBRANCH  22  23
BRANCH  22  25
HETATM   25  C6  UNL     1      20.563   2.388  50.030  1.00  0.00     0.307 C 
BRANCH  25  26
HETATM   26  N1  UNL     1      20.609   2.729  48.652  1.00  0.00     0.095 N 
HETATM   27  C7  UNL     1      21.372   3.991  48.543  1.00  0.00     0.298 C 
HETATM   28  C8  UNL     1      21.721   4.136  47.078  1.00  0.00     0.198 C 
HETATM   29  O3  UNL     1      20.508   4.400  46.427  1.00  0.00    -0.388 OA
HETATM   30  C9  UNL     1      19.609   3.363  46.578  1.00  0.00     0.198 C 
HETATM   31  C10 UNL     1      19.328   3.033  48.051  1.00  0.00     0.298 C 
ENDBRANCH  25  26
ENDBRANCH  22  25
ENDBRANCH   3  22
TORSDOF 8
ENDMDL
