MODEL 1
REMARK VINA RESULT:      -7.9      0.000      0.000
REMARK  7 active torsions:
REMARK  status: ('A' for Active; 'I' for Inactive)
REMARK    1  A    between atoms: C2_2  and  N1_3 
REMARK    2  A    between atoms: C2_2  and  N2_7 
REMARK    3  A    between atoms: N1_3  and  C3_4 
REMARK    4  A    between atoms: C3_4  and  C4_5 
REMARK    5  A    between atoms: N2_7  and  C5_8 
REMARK    6  A    between atoms: C10_14  and  N4_15 
REMARK    7  A    between atoms: N4_15  and  C11_16 
ROOT
HETATM    1  C5  UNL     1      26.312   1.811  53.190  1.00  0.00     0.022 A 
HETATM    2  C6  UNL     1      27.545   2.250  53.525  1.00  0.00     0.026 A 
HETATM    3  C7  UNL     1      28.579   1.195  53.426  1.00  0.00     0.008 A 
HETATM    4  C8  UNL     1      27.929   0.105  53.024  1.00  0.00    -0.043 A 
HETATM    5  C9  UNL     1      27.732  -1.335  52.606  1.00  0.00     0.186 C 
HETATM    6  N3  UNL     1      26.688  -1.667  53.599  1.00  0.00    -0.271 NA
HETATM    7  C10 UNL     1      25.912  -0.604  53.744  1.00  0.00     0.113 C 
HETATM    8  C17 UNL     1      26.461   0.412  52.822  1.00  0.00     0.135 A 
ENDROOT
BRANCH   7   9
HETATM    9  N4  UNL     1      24.813  -0.710  54.680  1.00  0.00    -0.344 N 
HETATM   10  H15 UNL     1      25.182  -0.804  55.669  1.00  0.00     0.167 HD
BRANCH   9  11
HETATM   11  C11 UNL     1      23.465  -0.674  54.189  1.00  0.00     0.035 A 
HETATM   12  C12 UNL     1      22.412  -1.137  54.962  1.00  0.00     0.032 A 
HETATM   13  C13 UNL     1      21.097  -1.123  54.541  1.00  0.00     0.046 A 
HETATM   14  C14 UNL     1      20.793  -0.621  53.276  1.00  0.00     0.138 A 
HETATM   15  F1  UNL     1      19.516  -0.592  52.839  1.00  0.00    -0.204 F 
HETATM   16  C15 UNL     1      21.819  -0.152  52.485  1.00  0.00     0.074 A 
HETATM   17 CL2  UNL     1      21.445   0.482  50.881  1.00  0.00    -0.081 Cl
HETATM   18  C16 UNL     1      23.104  -0.192  52.953  1.00  0.00     0.056 A 
ENDBRANCH   9  11
ENDBRANCH   7   9
BRANCH   1  19
HETATM   19  N2  UNL     1      25.410   2.933  53.329  1.00  0.00    -0.372 N 
HETATM   20  H10 UNL     1      25.592   3.181  54.339  1.00  0.00     0.161 HD
BRANCH  19  21
HETATM   21  C2  UNL     1      24.677   3.243  52.119  1.00  0.00     0.172 C 
HETATM   22  C1  UNL     1      23.184   3.430  52.366  1.00  0.00     0.055 C 
BRANCH  21  23
HETATM   23  N1  UNL     1      25.247   4.214  51.266  1.00  0.00    -0.401 N 
HETATM   24  H5  UNL     1      25.596   5.085  51.678  1.00  0.00     0.155 HD
BRANCH  23  25
HETATM   25  C3  UNL     1      25.913   3.776  50.090  1.00  0.00     0.131 C 
BRANCH  25  26
HETATM   26  C4  UNL     1      26.150   4.909  49.121  1.00  0.00     0.134 C 
HETATM   27 CL1  UNL     1      27.862   4.891  48.574  1.00  0.00    -0.129 Cl
ENDBRANCH  25  26
ENDBRANCH  23  25
ENDBRANCH  21  23
ENDBRANCH  19  21
ENDBRANCH   1  19
TORSDOF 7
ENDMDL
MODEL 2
REMARK VINA RESULT:      -7.8      2.946      6.086
REMARK  7 active torsions:
REMARK  status: ('A' for Active; 'I' for Inactive)
REMARK    1  A    between atoms: C2_2  and  N1_3 
REMARK    2  A    between atoms: C2_2  and  N2_7 
REMARK    3  A    between atoms: N1_3  and  C3_4 
REMARK    4  A    between atoms: C3_4  and  C4_5 
REMARK    5  A    between atoms: N2_7  and  C5_8 
REMARK    6  A    between atoms: C10_14  and  N4_15 
REMARK    7  A    between atoms: N4_15  and  C11_16 
ROOT
HETATM    1  C5  UNL     1      24.353   0.040  53.625  1.00  0.00     0.022 A 
HETATM    2  C6  UNL     1      23.702  -0.569  54.639  1.00  0.00     0.026 A 
HETATM    3  C7  UNL     1      22.268  -0.797  54.349  1.00  0.00     0.008 A 
HETATM    4  C8  UNL     1      22.076  -0.304  53.127  1.00  0.00    -0.043 A 
HETATM    5  C9  UNL     1      21.326   0.066  51.867  1.00  0.00     0.186 C 
HETATM    6  N3  UNL     1      21.674   1.503  51.868  1.00  0.00    -0.271 NA
HETATM    7  C10 UNL     1      22.919   1.620  52.302  1.00  0.00     0.113 C 
HETATM    8  C17 UNL     1      23.373   0.238  52.568  1.00  0.00     0.135 A 
ENDROOT
BRANCH   7   9
HETATM    9  N4  UNL     1      23.469   2.956  52.385  1.00  0.00    -0.344 N 
HETATM   10  H15 UNL     1      23.062   3.469  53.218  1.00  0.00     0.167 HD
BRANCH   9  11
HETATM   11  C11 UNL     1      24.424   3.386  51.404  1.00  0.00     0.035 A 
HETATM   12  C12 UNL     1      25.629   2.721  51.242  1.00  0.00     0.032 A 
HETATM   13  C13 UNL     1      26.581   3.090  50.312  1.00  0.00     0.046 A 
HETATM   14  C14 UNL     1      26.335   4.185  49.484  1.00  0.00     0.138 A 
HETATM   15  F1  UNL     1      27.246   4.567  48.564  1.00  0.00    -0.204 F 
HETATM   16  C15 UNL     1      25.145   4.865  49.621  1.00  0.00     0.074 A 
HETATM   17 CL2  UNL     1      24.826   6.255  48.581  1.00  0.00    -0.081 Cl
HETATM   18  C16 UNL     1      24.238   4.456  50.560  1.00  0.00     0.056 A 
ENDBRANCH   9  11
ENDBRANCH   7   9
BRANCH   1  19
HETATM   19  N2  UNL     1      25.730   0.198  54.039  1.00  0.00    -0.372 N 
HETATM   20  H10 UNL     1      25.627   1.035  54.675  1.00  0.00     0.161 HD
BRANCH  19  21
HETATM   21  C2  UNL     1      26.628  -0.780  53.460  1.00  0.00     0.172 C 
HETATM   22  C1  UNL     1      26.729  -0.661  51.943  1.00  0.00     0.055 C 
BRANCH  21  23
HETATM   23  N1  UNL     1      27.869  -0.961  54.109  1.00  0.00    -0.401 N 
HETATM   24  H5  UNL     1      28.563  -1.578  53.676  1.00  0.00     0.155 HD
BRANCH  23  25
HETATM   25  C3  UNL     1      28.392   0.109  54.884  1.00  0.00     0.131 C 
BRANCH  25  26
HETATM   26  C4  UNL     1      29.323   0.984  54.081  1.00  0.00     0.134 C 
HETATM   27 CL1  UNL     1      28.470   2.488  53.590  1.00  0.00    -0.129 Cl
ENDBRANCH  25  26
ENDBRANCH  23  25
ENDBRANCH  21  23
ENDBRANCH  19  21
ENDBRANCH   1  19
TORSDOF 7
ENDMDL
MODEL 3
REMARK VINA RESULT:      -7.4      2.805      5.469
REMARK  7 active torsions:
REMARK  status: ('A' for Active; 'I' for Inactive)
REMARK    1  A    between atoms: C2_2  and  N1_3 
REMARK    2  A    between atoms: C2_2  and  N2_7 
REMARK    3  A    between atoms: N1_3  and  C3_4 
REMARK    4  A    between atoms: C3_4  and  C4_5 
REMARK    5  A    between atoms: N2_7  and  C5_8 
REMARK    6  A    between atoms: C10_14  and  N4_15 
REMARK    7  A    between atoms: N4_15  and  C11_16 
ROOT
HETATM    1  C5  UNL     1      23.675  -0.389  53.554  1.00  0.00     0.022 A 
HETATM    2  C6  UNL     1      23.943  -0.874  54.787  1.00  0.00     0.026 A 
HETATM    3  C7  UNL     1      22.771  -1.518  55.420  1.00  0.00     0.008 A 
HETATM    4  C8  UNL     1      21.787  -1.405  54.531  1.00  0.00    -0.043 A 
HETATM    5  C9  UNL     1      20.398  -1.557  53.950  1.00  0.00     0.186 C 
HETATM    6  N3  UNL     1      20.165  -0.124  53.670  1.00  0.00    -0.271 NA
HETATM    7  C10 UNL     1      21.311   0.405  53.270  1.00  0.00     0.113 C 
HETATM    8  C17 UNL     1      22.282  -0.709  53.282  1.00  0.00     0.135 A 
ENDROOT
BRANCH   7   9
HETATM    9  N4  UNL     1      21.311   1.813  52.941  1.00  0.00    -0.344 N 
HETATM   10  H15 UNL     1      20.647   2.339  53.578  1.00  0.00     0.167 HD
BRANCH   9  11
HETATM   11  C11 UNL     1      22.146   2.287  51.874  1.00  0.00     0.035 A 
HETATM   12  C12 UNL     1      23.203   3.147  52.124  1.00  0.00     0.032 A 
HETATM   13  C13 UNL     1      24.040   3.629  51.137  1.00  0.00     0.046 A 
HETATM   14  C14 UNL     1      23.824   3.243  49.814  1.00  0.00     0.138 A 
HETATM   15  F1  UNL     1      24.628   3.696  48.828  1.00  0.00    -0.204 F 
HETATM   16  C15 UNL     1      22.781   2.388  49.534  1.00  0.00     0.074 A 
HETATM   17 CL2  UNL     1      22.498   1.896  47.863  1.00  0.00    -0.081 Cl
HETATM   18  C16 UNL     1      21.984   1.942  50.553  1.00  0.00     0.056 A 
ENDBRANCH   9  11
ENDBRANCH   7   9
BRANCH   1  19
HETATM   19  N2  UNL     1      24.896   0.206  53.058  1.00  0.00    -0.372 N 
HETATM   20  H10 UNL     1      24.487   0.939  52.417  1.00  0.00     0.161 HD
BRANCH  19  21
HETATM   21  C2  UNL     1      26.098  -0.395  53.598  1.00  0.00     0.172 C 
HETATM   22  C1  UNL     1      26.812  -1.291  52.591  1.00  0.00     0.055 C 
BRANCH  21  23
HETATM   23  N1  UNL     1      26.959   0.456  54.325  1.00  0.00    -0.401 N 
HETATM   24  H5  UNL     1      26.551   1.084  55.024  1.00  0.00     0.155 HD
BRANCH  23  25
HETATM   25  C3  UNL     1      28.284   0.017  54.586  1.00  0.00     0.131 C 
BRANCH  25  26
HETATM   26  C4  UNL     1      29.310   1.046  54.176  1.00  0.00     0.134 C 
HETATM   27 CL1  UNL     1      28.481   2.517  53.561  1.00  0.00    -0.129 Cl
ENDBRANCH  25  26
ENDBRANCH  23  25
ENDBRANCH  21  23
ENDBRANCH  19  21
ENDBRANCH   1  19
TORSDOF 7
ENDMDL
MODEL 4
REMARK VINA RESULT:      -7.3      3.061      5.695
REMARK  7 active torsions:
REMARK  status: ('A' for Active; 'I' for Inactive)
REMARK    1  A    between atoms: C2_2  and  N1_3 
REMARK    2  A    between atoms: C2_2  and  N2_7 
REMARK    3  A    between atoms: N1_3  and  C3_4 
REMARK    4  A    between atoms: C3_4  and  C4_5 
REMARK    5  A    between atoms: N2_7  and  C5_8 
REMARK    6  A    between atoms: C10_14  and  N4_15 
REMARK    7  A    between atoms: N4_15  and  C11_16 
ROOT
HETATM    1  C5  UNL     1      22.376   0.965  51.721  1.00  0.00     0.022 A 
HETATM    2  C6  UNL     1      21.220   0.432  51.270  1.00  0.00     0.026 A 
HETATM    3  C7  UNL     1      20.472  -0.294  52.319  1.00  0.00     0.008 A 
HETATM    4  C8  UNL     1      21.216  -0.186  53.418  1.00  0.00    -0.043 A 
HETATM    5  C9  UNL     1      21.614  -0.372  54.865  1.00  0.00     0.186 C 
HETATM    6  N3  UNL     1      22.941  -0.970  54.609  1.00  0.00    -0.271 NA
HETATM    7  C10 UNL     1      23.461  -0.370  53.549  1.00  0.00     0.113 C 
HETATM    8  C17 UNL     1      22.457   0.632  53.135  1.00  0.00     0.135 A 
ENDROOT
BRANCH   7   9
HETATM    9  N4  UNL     1      24.770  -0.807  53.117  1.00  0.00    -0.344 N 
HETATM   10  H15 UNL     1      24.712  -1.776  52.692  1.00  0.00     0.167 HD
BRANCH   9  11
HETATM   11  C11 UNL     1      25.899   0.061  53.303  1.00  0.00     0.035 A 
HETATM   12  C12 UNL     1      25.728   1.423  53.485  1.00  0.00     0.032 A 
HETATM   13  C13 UNL     1      26.777   2.302  53.672  1.00  0.00     0.046 A 
HETATM   14  C14 UNL     1      28.082   1.811  53.681  1.00  0.00     0.138 A 
HETATM   15  F1  UNL     1      29.127   2.646  53.864  1.00  0.00    -0.204 F 
HETATM   16  C15 UNL     1      28.284   0.460  53.503  1.00  0.00     0.074 A 
HETATM   17 CL2  UNL     1      29.932  -0.171  53.509  1.00  0.00    -0.081 Cl
HETATM   18  C16 UNL     1      27.206  -0.364  53.321  1.00  0.00     0.056 A 
ENDBRANCH   9  11
ENDBRANCH   7   9
BRANCH   1  19
HETATM   19  N2  UNL     1      22.998   1.640  50.602  1.00  0.00    -0.372 N 
HETATM   20  H10 UNL     1      22.682   1.008  49.818  1.00  0.00     0.161 HD
BRANCH  19  21
HETATM   21  C2  UNL     1      23.745   2.822  50.979  1.00  0.00     0.172 C 
HETATM   22  C1  UNL     1      24.523   3.423  49.813  1.00  0.00     0.055 C 
BRANCH  21  23
HETATM   23  N1  UNL     1      23.065   3.773  51.771  1.00  0.00    -0.401 N 
HETATM   24  H5  UNL     1      23.239   3.783  52.782  1.00  0.00     0.155 HD
BRANCH  23  25
HETATM   25  C3  UNL     1      22.729   5.024  51.190  1.00  0.00     0.131 C 
BRANCH  25  26
HETATM   26  C4  UNL     1      21.256   5.121  50.873  1.00  0.00     0.134 C 
HETATM   27 CL1  UNL     1      20.347   3.909  51.840  1.00  0.00    -0.129 Cl
ENDBRANCH  25  26
ENDBRANCH  23  25
ENDBRANCH  21  23
ENDBRANCH  19  21
ENDBRANCH   1  19
TORSDOF 7
ENDMDL
MODEL 5
REMARK VINA RESULT:      -7.2      3.038      5.499
REMARK  7 active torsions:
REMARK  status: ('A' for Active; 'I' for Inactive)
REMARK    1  A    between atoms: C2_2  and  N1_3 
REMARK    2  A    between atoms: C2_2  and  N2_7 
REMARK    3  A    between atoms: N1_3  and  C3_4 
REMARK    4  A    between atoms: C3_4  and  C4_5 
REMARK    5  A    between atoms: N2_7  and  C5_8 
REMARK    6  A    between atoms: C10_14  and  N4_15 
REMARK    7  A    between atoms: N4_15  and  C11_16 
ROOT
HETATM    1  C5  UNL     1      21.673   0.775  52.732  1.00  0.00     0.022 A 
HETATM    2  C6  UNL     1      20.610  -0.058  52.723  1.00  0.00     0.026 A 
HETATM    3  C7  UNL     1      20.681  -1.095  53.775  1.00  0.00     0.008 A 
HETATM    4  C8  UNL     1      21.822  -0.863  54.419  1.00  0.00    -0.043 A 
HETATM    5  C9  UNL     1      22.919  -1.058  55.443  1.00  0.00     0.186 C 
HETATM    6  N3  UNL     1      24.041  -1.156  54.485  1.00  0.00    -0.271 NA
HETATM    7  C10 UNL     1      23.805  -0.312  53.493  1.00  0.00     0.113 C 
HETATM    8  C17 UNL     1      22.523   0.342  53.831  1.00  0.00     0.135 A 
ENDROOT
BRANCH   7   9
HETATM    9  N4  UNL     1      24.786  -0.246  52.432  1.00  0.00    -0.344 N 
HETATM   10  H15 UNL     1      24.306  -0.259  51.487  1.00  0.00     0.167 HD
BRANCH   9  11
HETATM   11  C11 UNL     1      26.180  -0.176  52.766  1.00  0.00     0.035 A 
HETATM   12  C12 UNL     1      26.965  -1.317  52.793  1.00  0.00     0.032 A 
HETATM   13  C13 UNL     1      28.311  -1.306  53.103  1.00  0.00     0.046 A 
HETATM   14  C14 UNL     1      28.928  -0.094  53.409  1.00  0.00     0.138 A 
HETATM   15  F1  UNL     1      30.243  -0.052  53.713  1.00  0.00    -0.204 F 
HETATM   16  C15 UNL     1      28.173   1.059  53.389  1.00  0.00     0.074 A 
HETATM   17 CL2  UNL     1      28.945   2.597  53.778  1.00  0.00    -0.081 Cl
HETATM   18  C16 UNL     1      26.844   0.988  53.075  1.00  0.00     0.056 A 
ENDBRANCH   9  11
ENDBRANCH   7   9
BRANCH   1  19
HETATM   19  N2  UNL     1      21.475   1.730  51.664  1.00  0.00    -0.372 N 
HETATM   20  H10 UNL     1      20.772   2.367  52.126  1.00  0.00     0.161 HD
BRANCH  19  21
HETATM   21  C2  UNL     1      22.261   1.449  50.481  1.00  0.00     0.172 C 
HETATM   22  C1  UNL     1      21.412   0.963  49.311  1.00  0.00     0.055 C 
BRANCH  21  23
HETATM   23  N1  UNL     1      23.235   2.409  50.127  1.00  0.00    -0.401 N 
HETATM   24  H5  UNL     1      23.065   3.000  49.307  1.00  0.00     0.155 HD
BRANCH  23  25
HETATM   25  C3  UNL     1      24.019   2.992  51.157  1.00  0.00     0.131 C 
BRANCH  25  26
HETATM   26  C4  UNL     1      25.091   3.901  50.606  1.00  0.00     0.134 C 
HETATM   27 CL1  UNL     1      26.478   2.918  50.024  1.00  0.00    -0.129 Cl
ENDBRANCH  25  26
ENDBRANCH  23  25
ENDBRANCH  21  23
ENDBRANCH  19  21
ENDBRANCH   1  19
TORSDOF 7
ENDMDL
MODEL 6
REMARK VINA RESULT:      -7.2      2.476      4.879
REMARK  7 active torsions:
REMARK  status: ('A' for Active; 'I' for Inactive)
REMARK    1  A    between atoms: C2_2  and  N1_3 
REMARK    2  A    between atoms: C2_2  and  N2_7 
REMARK    3  A    between atoms: N1_3  and  C3_4 
REMARK    4  A    between atoms: C3_4  and  C4_5 
REMARK    5  A    between atoms: N2_7  and  C5_8 
REMARK    6  A    between atoms: C10_14  and  N4_15 
REMARK    7  A    between atoms: N4_15  and  C11_16 
ROOT
HETATM    1  C5  UNL     1      25.703   3.885  50.587  1.00  0.00     0.022 A 
HETATM    2  C6  UNL     1      26.115   4.617  49.529  1.00  0.00     0.026 A 
HETATM    3  C7  UNL     1      25.034   5.439  48.941  1.00  0.00     0.008 A 
HETATM    4  C8  UNL     1      23.956   5.178  49.678  1.00  0.00    -0.043 A 
HETATM    5  C9  UNL     1      22.517   5.262  50.135  1.00  0.00     0.186 C 
HETATM    6  N3  UNL     1      22.221   3.816  50.060  1.00  0.00    -0.271 NA
HETATM    7  C10 UNL     1      23.304   3.158  50.445  1.00  0.00     0.113 C 
HETATM    8  C17 UNL     1      24.297   4.201  50.782  1.00  0.00     0.135 A 
ENDROOT
BRANCH   7   9
HETATM    9  N4  UNL     1      23.236   1.714  50.447  1.00  0.00    -0.344 N 
HETATM   10  H15 UNL     1      23.759   1.321  49.613  1.00  0.00     0.167 HD
BRANCH   9  11
HETATM   11  C11 UNL     1      22.525   1.044  51.498  1.00  0.00     0.035 A 
HETATM   12  C12 UNL     1      23.161   0.691  52.677  1.00  0.00     0.032 A 
HETATM   13  C13 UNL     1      22.525   0.049  53.722  1.00  0.00     0.046 A 
HETATM   14  C14 UNL     1      21.172  -0.268  53.602  1.00  0.00     0.138 A 
HETATM   15  F1  UNL     1      20.523  -0.892  54.607  1.00  0.00    -0.204 F 
HETATM   16  C15 UNL     1      20.512   0.072  52.441  1.00  0.00     0.074 A 
HETATM   17 CL2  UNL     1      18.801  -0.328  52.278  1.00  0.00    -0.081 Cl
HETATM   18  C16 UNL     1      21.194   0.706  51.438  1.00  0.00     0.056 A 
ENDBRANCH   9  11
ENDBRANCH   7   9
BRANCH   1  19
HETATM   19  N2  UNL     1      26.849   3.138  51.058  1.00  0.00    -0.372 N 
HETATM   20  H10 UNL     1      27.588   3.522  50.409  1.00  0.00     0.161 HD
BRANCH  19  21
HETATM   21  C2  UNL     1      26.545   2.233  52.147  1.00  0.00     0.172 C 
HETATM   22  C1  UNL     1      26.572   0.769  51.721  1.00  0.00     0.055 C 
BRANCH  21  23
HETATM   23  N1  UNL     1      27.188   2.488  53.378  1.00  0.00    -0.401 N 
HETATM   24  H5  UNL     1      26.671   2.316  54.246  1.00  0.00     0.155 HD
BRANCH  23  25
HETATM   25  C3  UNL     1      28.596   2.321  53.455  1.00  0.00     0.131 C 
BRANCH  25  26
HETATM   26  C4  UNL     1      28.982   1.208  54.399  1.00  0.00     0.134 C 
HETATM   27 CL1  UNL     1      29.935  -0.033  53.515  1.00  0.00    -0.129 Cl
ENDBRANCH  25  26
ENDBRANCH  23  25
ENDBRANCH  21  23
ENDBRANCH  19  21
ENDBRANCH   1  19
TORSDOF 7
ENDMDL
MODEL 7
REMARK VINA RESULT:      -7.2      3.190      5.819
REMARK  7 active torsions:
REMARK  status: ('A' for Active; 'I' for Inactive)
REMARK    1  A    between atoms: C2_2  and  N1_3 
REMARK    2  A    between atoms: C2_2  and  N2_7 
REMARK    3  A    between atoms: N1_3  and  C3_4 
REMARK    4  A    between atoms: C3_4  and  C4_5 
REMARK    5  A    between atoms: N2_7  and  C5_8 
REMARK    6  A    between atoms: C10_14  and  N4_15 
REMARK    7  A    between atoms: N4_15  and  C11_16 
ROOT
HETATM    1  C5  UNL     1      23.510   3.041  51.276  1.00  0.00     0.022 A 
HETATM    2  C6  UNL     1      23.185   4.339  51.090  1.00  0.00     0.026 A 
HETATM    3  C7  UNL     1      24.204   5.084  50.318  1.00  0.00     0.008 A 
HETATM    4  C8  UNL     1      25.156   4.193  50.045  1.00  0.00    -0.043 A 
HETATM    5  C9  UNL     1      26.452   3.656  49.481  1.00  0.00     0.186 C 
HETATM    6  N3  UNL     1      26.992   3.124  50.750  1.00  0.00    -0.271 NA
HETATM    7  C10 UNL     1      25.981   2.629  51.447  1.00  0.00     0.113 C 
HETATM    8  C17 UNL     1      24.784   2.838  50.604  1.00  0.00     0.135 A 
ENDROOT
BRANCH   7   9
HETATM    9  N4  UNL     1      26.286   2.053  52.738  1.00  0.00    -0.344 N 
HETATM   10  H15 UNL     1      26.027   2.728  53.512  1.00  0.00     0.167 HD
BRANCH   9  11
HETATM   11  C11 UNL     1      26.857   0.738  52.804  1.00  0.00     0.035 A 
HETATM   12  C12 UNL     1      26.137  -0.374  52.400  1.00  0.00     0.032 A 
HETATM   13  C13 UNL     1      26.639  -1.660  52.439  1.00  0.00     0.046 A 
HETATM   14  C14 UNL     1      27.936  -1.870  52.906  1.00  0.00     0.138 A 
HETATM   15  F1  UNL     1      28.454  -3.116  52.953  1.00  0.00    -0.204 F 
HETATM   16  C15 UNL     1      28.678  -0.783  53.314  1.00  0.00     0.074 A 
HETATM   17 CL2  UNL     1      30.319  -1.039  53.910  1.00  0.00    -0.081 Cl
HETATM   18  C16 UNL     1      28.129   0.468  53.254  1.00  0.00     0.056 A 
ENDBRANCH   9  11
ENDBRANCH   7   9
BRANCH   1  19
HETATM   19  N2  UNL     1      22.437   2.439  52.037  1.00  0.00    -0.372 N 
HETATM   20  H10 UNL     1      21.945   3.312  52.367  1.00  0.00     0.161 HD
BRANCH  19  21
HETATM   21  C2  UNL     1      22.467   0.992  52.039  1.00  0.00     0.172 C 
HETATM   22  C1  UNL     1      22.577   0.406  53.444  1.00  0.00     0.055 C 
BRANCH  21  23
HETATM   23  N1  UNL     1      21.525   0.339  51.215  1.00  0.00    -0.401 N 
HETATM   24  H5  UNL     1      21.554  -0.684  51.152  1.00  0.00     0.155 HD
BRANCH  23  25
HETATM   25  C3  UNL     1      20.246   0.932  51.045  1.00  0.00     0.131 C 
BRANCH  25  26
HETATM   26  C4  UNL     1      19.972   1.280  49.602  1.00  0.00     0.134 C 
HETATM   27 CL1  UNL     1      21.488   1.143  48.647  1.00  0.00    -0.129 Cl
ENDBRANCH  25  26
ENDBRANCH  23  25
ENDBRANCH  21  23
ENDBRANCH  19  21
ENDBRANCH   1  19
TORSDOF 7
ENDMDL
MODEL 8
REMARK VINA RESULT:      -7.2      3.235      6.180
REMARK  7 active torsions:
REMARK  status: ('A' for Active; 'I' for Inactive)
REMARK    1  A    between atoms: C2_2  and  N1_3 
REMARK    2  A    between atoms: C2_2  and  N2_7 
REMARK    3  A    between atoms: N1_3  and  C3_4 
REMARK    4  A    between atoms: C3_4  and  C4_5 
REMARK    5  A    between atoms: N2_7  and  C5_8 
REMARK    6  A    between atoms: C10_14  and  N4_15 
REMARK    7  A    between atoms: N4_15  and  C11_16 
ROOT
HETATM    1  C5  UNL     1      23.718   3.745  49.695  1.00  0.00     0.022 A 
HETATM    2  C6  UNL     1      23.513   5.042  49.378  1.00  0.00     0.026 A 
HETATM    3  C7  UNL     1      24.753   5.739  48.972  1.00  0.00     0.008 A 
HETATM    4  C8  UNL     1      25.714   4.821  49.056  1.00  0.00    -0.043 A 
HETATM    5  C9  UNL     1      27.108   4.239  48.972  1.00  0.00     0.186 C 
HETATM    6  N3  UNL     1      27.176   3.740  50.363  1.00  0.00    -0.271 NA
HETATM    7  C10 UNL     1      25.976   3.290  50.693  1.00  0.00     0.113 C 
HETATM    8  C17 UNL     1      25.136   3.493  49.493  1.00  0.00     0.135 A 
ENDROOT
BRANCH   7   9
HETATM    9  N4  UNL     1      25.815   2.751  52.026  1.00  0.00    -0.344 N 
HETATM   10  H15 UNL     1      25.020   3.242  52.526  1.00  0.00     0.167 HD
BRANCH   9  11
HETATM   11  C11 UNL     1      26.685   1.700  52.470  1.00  0.00     0.035 A 
HETATM   12  C12 UNL     1      27.831   1.982  53.196  1.00  0.00     0.032 A 
HETATM   13  C13 UNL     1      28.701   1.010  53.650  1.00  0.00     0.046 A 
HETATM   14  C14 UNL     1      28.428  -0.329  53.375  1.00  0.00     0.138 A 
HETATM   15  F1  UNL     1      29.258  -1.302  53.809  1.00  0.00    -0.204 F 
HETATM   16  C15 UNL     1      27.294  -0.641  52.656  1.00  0.00     0.074 A 
HETATM   17 CL2  UNL     1      26.942  -2.333  52.299  1.00  0.00    -0.081 Cl
HETATM   18  C16 UNL     1      26.469   0.364  52.230  1.00  0.00     0.056 A 
ENDBRANCH   9  11
ENDBRANCH   7   9
BRANCH   1  19
HETATM   19  N2  UNL     1      22.435   3.191  50.068  1.00  0.00    -0.372 N 
HETATM   20  H10 UNL     1      21.927   3.287  49.147  1.00  0.00     0.161 HD
BRANCH  19  21
HETATM   21  C2  UNL     1      22.367   2.759  51.448  1.00  0.00     0.172 C 
HETATM   22  C1  UNL     1      21.116   3.261  52.163  1.00  0.00     0.055 C 
BRANCH  21  23
HETATM   23  N1  UNL     1      22.672   1.403  51.702  1.00  0.00    -0.401 N 
HETATM   24  H5  UNL     1      23.250   0.896  51.025  1.00  0.00     0.155 HD
BRANCH  23  25
HETATM   25  C3  UNL     1      22.780   0.974  53.051  1.00  0.00     0.131 C 
BRANCH  25  26
HETATM   26  C4  UNL     1      22.271  -0.436  53.237  1.00  0.00     0.134 C 
HETATM   27 CL1  UNL     1      21.462  -0.583  54.835  1.00  0.00    -0.129 Cl
ENDBRANCH  25  26
ENDBRANCH  23  25
ENDBRANCH  21  23
ENDBRANCH  19  21
ENDBRANCH   1  19
TORSDOF 7
ENDMDL
MODEL 9
REMARK VINA RESULT:      -7.1      1.753      2.240
REMARK  7 active torsions:
REMARK  status: ('A' for Active; 'I' for Inactive)
REMARK    1  A    between atoms: C2_2  and  N1_3 
REMARK    2  A    between atoms: C2_2  and  N2_7 
REMARK    3  A    between atoms: N1_3  and  C3_4 
REMARK    4  A    between atoms: C3_4  and  C4_5 
REMARK    5  A    between atoms: N2_7  and  C5_8 
REMARK    6  A    between atoms: C10_14  and  N4_15 
REMARK    7  A    between atoms: N4_15  and  C11_16 
ROOT
HETATM    1  C5  UNL     1      26.363   1.965  52.170  1.00  0.00     0.022 A 
HETATM    2  C6  UNL     1      27.577   2.272  52.675  1.00  0.00     0.026 A 
HETATM    3  C7  UNL     1      28.334   1.081  53.121  1.00  0.00     0.008 A 
HETATM    4  C8  UNL     1      27.537   0.046  52.869  1.00  0.00    -0.043 A 
HETATM    5  C9  UNL     1      27.092  -1.399  52.809  1.00  0.00     0.186 C 
HETATM    6  N3  UNL     1      25.829  -1.228  53.559  1.00  0.00    -0.271 NA
HETATM    7  C10 UNL     1      25.310  -0.058  53.220  1.00  0.00     0.113 C 
HETATM    8  C17 UNL     1      26.248   0.516  52.231  1.00  0.00     0.135 A 
ENDROOT
BRANCH   7   9
HETATM    9  N4  UNL     1      24.060   0.317  53.843  1.00  0.00    -0.344 N 
HETATM   10  H15 UNL     1      24.215   0.551  54.864  1.00  0.00     0.167 HD
BRANCH   9  11
HETATM   11  C11 UNL     1      22.857   0.325  53.059  1.00  0.00     0.035 A 
HETATM   12  C12 UNL     1      22.837   0.880  51.790  1.00  0.00     0.032 A 
HETATM   13  C13 UNL     1      21.710   0.911  50.992  1.00  0.00     0.046 A 
HETATM   14  C14 UNL     1      20.522   0.361  51.472  1.00  0.00     0.138 A 
HETATM   15  F1  UNL     1      19.405   0.375  50.713  1.00  0.00    -0.204 F 
HETATM   16  C15 UNL     1      20.511  -0.199  52.731  1.00  0.00     0.074 A 
HETATM   17 CL2  UNL     1      19.011  -0.894  53.348  1.00  0.00    -0.081 Cl
HETATM   18  C16 UNL     1      21.658  -0.201  53.477  1.00  0.00     0.056 A 
ENDBRANCH   9  11
ENDBRANCH   7   9
BRANCH   1  19
HETATM   19  N2  UNL     1      25.739   3.209  51.777  1.00  0.00    -0.372 N 
HETATM   20  H10 UNL     1      25.332   3.502  52.705  1.00  0.00     0.161 HD
BRANCH  19  21
HETATM   21  C2  UNL     1      25.911   3.529  50.375  1.00  0.00     0.172 C 
HETATM   22  C1  UNL     1      24.666   3.231  49.545  1.00  0.00     0.055 C 
BRANCH  21  23
HETATM   23  N1  UNL     1      26.517   4.770  50.079  1.00  0.00    -0.401 N 
HETATM   24  H5  UNL     1      27.516   4.784  49.848  1.00  0.00     0.155 HD
BRANCH  23  25
HETATM   25  C3  UNL     1      25.728   5.783  49.475  1.00  0.00     0.131 C 
BRANCH  25  26
HETATM   26  C4  UNL     1      25.197   6.766  50.491  1.00  0.00     0.134 C 
HETATM   27 CL1  UNL     1      25.538   8.444  49.947  1.00  0.00    -0.129 Cl
ENDBRANCH  25  26
ENDBRANCH  23  25
ENDBRANCH  21  23
ENDBRANCH  19  21
ENDBRANCH   1  19
TORSDOF 7
ENDMDL
