MODEL 1
REMARK VINA RESULT:      -9.1      0.000      0.000
REMARK  9 active torsions:
REMARK  status: ('A' for Active; 'I' for Inactive)
REMARK    1  A    between atoms: C1_2  and  C2_3 
REMARK       I    between atoms: C1_2  and  N1_12 
REMARK    2  A    between atoms: C2_3  and  O2_4 
REMARK    3  A    between atoms: O2_4  and  C3_5 
REMARK    4  A    between atoms: N1_12  and  C9_13 
REMARK    5  A    between atoms: C11_15  and  C12_16 
REMARK    6  A    between atoms: C12_16  and  N2_17 
REMARK    7  A    between atoms: N2_17  and  C13_18 
REMARK    8  A    between atoms: C21_26  and  N4_29 
REMARK    9  A    between atoms: C22_28  and  N4_29 
ROOT
HETATM    1  C9  UNL     1      22.965   1.651  52.533  1.00  0.00     0.071 A 
HETATM    2  C10 UNL     1      24.271   1.134  52.781  1.00  0.00     0.037 A 
HETATM    3  C11 UNL     1      23.693   0.132  53.564  1.00  0.00    -0.019 A 
HETATM    4  C19 UNL     1      22.510  -0.336  54.020  1.00  0.00     0.236 A 
HETATM    5  C20 UNL     1      21.303  -0.180  54.025  1.00  0.00     0.317 A 
HETATM    6  C21 UNL     1      21.835   0.932  53.166  1.00  0.00     0.270 A 
HETATM    7  N3  UNL     1      20.594   1.643  52.767  1.00  0.00    -0.354 N 
HETATM    8  C22 UNL     1      20.154   0.554  53.600  1.00  0.00     0.341 A 
HETATM    9  N4  UNL     1      21.449   0.490  53.522  1.00  0.00     0.021 N 
HETATM   10  H18 UNL     1      20.355   2.505  52.163  1.00  0.00     0.158 HD
ENDROOT
BRANCH   1  11
HETATM   11  N1  UNL     1      22.720   2.790  51.730  1.00  0.00    -0.325 N 
HETATM   12  C1  UNL     1      23.293   4.018  52.144  1.00  0.00     0.246 C 
HETATM   13  O1  UNL     1      23.949   3.832  53.228  1.00  0.00    -0.271 OA
HETATM   14  H7  UNL     1      22.124   2.608  50.915  1.00  0.00     0.169 HD
BRANCH  12  15
HETATM   15  C2  UNL     1      23.097   5.243  51.381  1.00  0.00     0.278 C 
BRANCH  15  16
HETATM   16  O2  UNL     1      23.461   5.230  50.044  1.00  0.00    -0.342 OA
BRANCH  16  17
HETATM   17  C3  UNL     1      24.765   4.960  49.662  1.00  0.00     0.069 A 
HETATM   18  C4  UNL     1      25.292   6.105  49.054  1.00  0.00     0.040 A 
HETATM   19  C5  UNL     1      26.600   6.123  48.569  1.00  0.00     0.045 A 
HETATM   20  C6  UNL     1      27.409   5.008  48.677  1.00  0.00     0.116 A 
HETATM   21  F1  UNL     1      28.669   4.937  48.241  1.00  0.00    -0.206 F 
HETATM   22  C7  UNL     1      26.886   3.891  49.275  1.00  0.00     0.045 A 
HETATM   23  C8  UNL     1      25.599   3.841  49.764  1.00  0.00     0.040 A 
ENDBRANCH  16  17
ENDBRANCH  15  16
ENDBRANCH  12  15
ENDBRANCH   1  11
BRANCH   3  24
HETATM   24  C12 UNL     1      24.745  -0.777  54.066  1.00  0.00     0.157 C 
BRANCH  24  25
HETATM   25  N2  UNL     1      25.960  -0.570  53.339  1.00  0.00    -0.386 N 
HETATM   26  H11 UNL     1      25.701  -0.457  52.315  1.00  0.00     0.160 HD
BRANCH  25  27
HETATM   27  C13 UNL     1      27.354  -0.449  53.448  1.00  0.00     0.028 A 
HETATM   28  C14 UNL     1      28.048   0.733  53.737  1.00  0.00     0.029 A 
HETATM   29  C15 UNL     1      29.414   0.705  53.786  1.00  0.00     0.002 A 
HETATM   30  C16 UNL     1      30.141  -0.438  53.562  1.00  0.00     0.000 A 
HETATM   31  C17 UNL     1      29.481  -1.614  53.275  1.00  0.00     0.002 A 
HETATM   32  C18 UNL     1      28.083  -1.589  53.225  1.00  0.00     0.029 A 
ENDBRANCH  25  27
ENDBRANCH  24  25
ENDBRANCH   3  24
TORSDOF 9
ENDMDL
MODEL 2
REMARK VINA RESULT:      -9.1      3.250      7.239
REMARK  9 active torsions:
REMARK  status: ('A' for Active; 'I' for Inactive)
REMARK    1  A    between atoms: C1_2  and  C2_3 
REMARK       I    between atoms: C1_2  and  N1_12 
REMARK    2  A    between atoms: C2_3  and  O2_4 
REMARK    3  A    between atoms: O2_4  and  C3_5 
REMARK    4  A    between atoms: N1_12  and  C9_13 
REMARK    5  A    between atoms: C11_15  and  C12_16 
REMARK    6  A    between atoms: C12_16  and  N2_17 
REMARK    7  A    between atoms: N2_17  and  C13_18 
REMARK    8  A    between atoms: C21_26  and  N4_29 
REMARK    9  A    between atoms: C22_28  and  N4_29 
ROOT
HETATM    1  C9  UNL     1      22.307   0.321  52.240  1.00  0.00     0.071 A 
HETATM    2  C10 UNL     1      21.089   0.645  51.574  1.00  0.00     0.037 A 
HETATM    3  C11 UNL     1      20.391   0.041  52.622  1.00  0.00    -0.019 A 
HETATM    4  C19 UNL     1      20.553  -0.605  53.798  1.00  0.00     0.236 A 
HETATM    5  C20 UNL     1      21.355  -1.025  54.611  1.00  0.00     0.317 A 
HETATM    6  C21 UNL     1      22.189  -0.397  53.529  1.00  0.00     0.270 A 
HETATM    7  N3  UNL     1      23.570  -0.619  54.029  1.00  0.00    -0.354 N 
HETATM    8  C22 UNL     1      22.711  -1.201  55.026  1.00  0.00     0.341 A 
HETATM    9  N4  UNL     1      21.953  -0.714  54.091  1.00  0.00     0.021 N 
HETATM   10  H18 UNL     1      24.566  -0.389  53.681  1.00  0.00     0.158 HD
ENDROOT
BRANCH   1  11
HETATM   11  N1  UNL     1      23.584   0.651  51.727  1.00  0.00    -0.325 N 
HETATM   12  C1  UNL     1      24.152   1.885  52.130  1.00  0.00     0.246 C 
HETATM   13  O1  UNL     1      23.339   2.484  52.918  1.00  0.00    -0.271 OA
HETATM   14  H7  UNL     1      23.974  -0.051  51.087  1.00  0.00     0.169 HD
BRANCH  12  15
HETATM   15  C2  UNL     1      25.462   2.310  51.656  1.00  0.00     0.278 C 
BRANCH  15  16
HETATM   16  O2  UNL     1      26.484   2.395  52.589  1.00  0.00    -0.342 OA
BRANCH  16  17
HETATM   17  C3  UNL     1      27.284   1.300  52.873  1.00  0.00     0.069 A 
HETATM   18  C4  UNL     1      28.447   1.757  53.503  1.00  0.00     0.040 A 
HETATM   19  C5  UNL     1      29.441   0.866  53.908  1.00  0.00     0.045 A 
HETATM   20  C6  UNL     1      29.301  -0.492  53.696  1.00  0.00     0.116 A 
HETATM   21  F1  UNL     1      30.201  -1.414  54.049  1.00  0.00    -0.206 F 
HETATM   22  C7  UNL     1      28.159  -0.931  53.079  1.00  0.00     0.045 A 
HETATM   23  C8  UNL     1      27.159  -0.079  52.667  1.00  0.00     0.040 A 
ENDBRANCH  16  17
ENDBRANCH  15  16
ENDBRANCH  12  15
ENDBRANCH   1  11
BRANCH   3  24
HETATM   24  C12 UNL     1      18.936   0.166  52.390  1.00  0.00     0.157 C 
BRANCH  24  25
HETATM   25  N2  UNL     1      18.232  -0.835  53.131  1.00  0.00    -0.386 N 
HETATM   26  H11 UNL     1      18.480  -0.702  54.155  1.00  0.00     0.160 HD
BRANCH  25  27
HETATM   27  C13 UNL     1      17.340  -1.914  53.037  1.00  0.00     0.028 A 
HETATM   28  C14 UNL     1      16.098  -1.888  52.391  1.00  0.00     0.029 A 
HETATM   29  C15 UNL     1      15.321  -3.013  52.404  1.00  0.00     0.002 A 
HETATM   30  C16 UNL     1      15.707  -4.175  53.026  1.00  0.00     0.000 A 
HETATM   31  C17 UNL     1      16.925  -4.225  53.669  1.00  0.00     0.002 A 
HETATM   32  C18 UNL     1      17.723  -3.075  53.658  1.00  0.00     0.029 A 
ENDBRANCH  25  27
ENDBRANCH  24  25
ENDBRANCH   3  24
TORSDOF 9
ENDMDL
MODEL 3
REMARK VINA RESULT:      -8.9      3.611      7.478
REMARK  9 active torsions:
REMARK  status: ('A' for Active; 'I' for Inactive)
REMARK    1  A    between atoms: C1_2  and  C2_3 
REMARK       I    between atoms: C1_2  and  N1_12 
REMARK    2  A    between atoms: C2_3  and  O2_4 
REMARK    3  A    between atoms: O2_4  and  C3_5 
REMARK    4  A    between atoms: N1_12  and  C9_13 
REMARK    5  A    between atoms: C11_15  and  C12_16 
REMARK    6  A    between atoms: C12_16  and  N2_17 
REMARK    7  A    between atoms: N2_17  and  C13_18 
REMARK    8  A    between atoms: C21_26  and  N4_29 
REMARK    9  A    between atoms: C22_28  and  N4_29 
ROOT
HETATM    1  C9  UNL     1      25.875   4.431  49.826  1.00  0.00     0.071 A 
HETATM    2  C10 UNL     1      26.989   4.409  48.937  1.00  0.00     0.037 A 
HETATM    3  C11 UNL     1      26.986   5.806  48.946  1.00  0.00    -0.019 A 
HETATM    4  C19 UNL     1      26.349   6.882  49.459  1.00  0.00     0.236 A 
HETATM    5  C20 UNL     1      25.448   7.265  50.181  1.00  0.00     0.317 A 
HETATM    6  C21 UNL     1      25.375   5.764  50.232  1.00  0.00     0.270 A 
HETATM    7  N3  UNL     1      24.230   5.536  51.149  1.00  0.00    -0.354 N 
HETATM    8  C22 UNL     1      24.358   6.966  51.055  1.00  0.00     0.341 A 
HETATM    9  N4  UNL     1      25.283   6.440  50.311  1.00  0.00     0.021 N 
HETATM   10  H18 UNL     1      23.721   4.673  51.553  1.00  0.00     0.158 HD
ENDROOT
BRANCH   1  11
HETATM   11  N1  UNL     1      25.252   3.260  50.319  1.00  0.00    -0.325 N 
HETATM   12  C1  UNL     1      26.010   2.426  51.178  1.00  0.00     0.246 C 
HETATM   13  O1  UNL     1      27.176   2.935  51.335  1.00  0.00    -0.271 OA
HETATM   14  H7  UNL     1      24.291   3.123  49.983  1.00  0.00     0.169 HD
BRANCH  12  15
HETATM   15  C2  UNL     1      25.453   1.203  51.736  1.00  0.00     0.278 C 
BRANCH  15  16
HETATM   16  O2  UNL     1      25.760   0.901  53.053  1.00  0.00    -0.342 OA
BRANCH  16  17
HETATM   17  C3  UNL     1      27.031   0.483  53.411  1.00  0.00     0.069 A 
HETATM   18  C4  UNL     1      27.241  -0.793  52.877  1.00  0.00     0.040 A 
HETATM   19  C5  UNL     1      28.448  -1.466  53.078  1.00  0.00     0.045 A 
HETATM   20  C6  UNL     1      29.465  -0.887  53.812  1.00  0.00     0.116 A 
HETATM   21  F1  UNL     1      30.647  -1.458  54.054  1.00  0.00    -0.206 F 
HETATM   22  C7  UNL     1      29.251   0.363  54.332  1.00  0.00     0.045 A 
HETATM   23  C8  UNL     1      28.073   1.054  54.151  1.00  0.00     0.040 A 
ENDBRANCH  16  17
ENDBRANCH  15  16
ENDBRANCH  12  15
ENDBRANCH   1  11
BRANCH   3  24
HETATM   24  C12 UNL     1      28.099   6.312  48.116  1.00  0.00     0.157 C 
BRANCH  24  25
HETATM   25  N2  UNL     1      29.350   6.055  48.762  1.00  0.00    -0.386 N 
HETATM   26  H11 UNL     1      29.155   5.957  49.801  1.00  0.00     0.160 HD
BRANCH  25  27
HETATM   27  C13 UNL     1      30.727   5.875  48.561  1.00  0.00     0.028 A 
HETATM   28  C14 UNL     1      31.744   6.591  49.206  1.00  0.00     0.029 A 
HETATM   29  C15 UNL     1      33.046   6.324  48.890  1.00  0.00     0.002 A 
HETATM   30  C16 UNL     1      33.405   5.378  47.961  1.00  0.00     0.000 A 
HETATM   31  C17 UNL     1      32.423   4.660  47.312  1.00  0.00     0.002 A 
HETATM   32  C18 UNL     1      31.089   4.931  47.634  1.00  0.00     0.029 A 
ENDBRANCH  25  27
ENDBRANCH  24  25
ENDBRANCH   3  24
TORSDOF 9
ENDMDL
MODEL 4
REMARK VINA RESULT:      -8.7      0.959      1.603
REMARK  9 active torsions:
REMARK  status: ('A' for Active; 'I' for Inactive)
REMARK    1  A    between atoms: C1_2  and  C2_3 
REMARK       I    between atoms: C1_2  and  N1_12 
REMARK    2  A    between atoms: C2_3  and  O2_4 
REMARK    3  A    between atoms: O2_4  and  C3_5 
REMARK    4  A    between atoms: N1_12  and  C9_13 
REMARK    5  A    between atoms: C11_15  and  C12_16 
REMARK    6  A    between atoms: C12_16  and  N2_17 
REMARK    7  A    between atoms: N2_17  and  C13_18 
REMARK    8  A    between atoms: C21_26  and  N4_29 
REMARK    9  A    between atoms: C22_28  and  N4_29 
ROOT
HETATM    1  C9  UNL     1      23.655   1.332  52.046  1.00  0.00     0.071 A 
HETATM    2  C10 UNL     1      24.799   0.861  52.753  1.00  0.00     0.037 A 
HETATM    3  C11 UNL     1      23.974  -0.043  53.426  1.00  0.00    -0.019 A 
HETATM    4  C19 UNL     1      22.694  -0.462  53.536  1.00  0.00     0.236 A 
HETATM    5  C20 UNL     1      21.553  -0.318  53.140  1.00  0.00     0.317 A 
HETATM    6  C21 UNL     1      22.362   0.686  52.368  1.00  0.00     0.270 A 
HETATM    7  N3  UNL     1      21.332   1.332  51.515  1.00  0.00    -0.354 N 
HETATM    8  C22 UNL     1      20.619   0.349  52.289  1.00  0.00     0.341 A 
HETATM    9  N4  UNL     1      21.870   0.287  52.633  1.00  0.00     0.021 N 
HETATM   10  H18 UNL     1      21.322   2.112  50.769  1.00  0.00     0.158 HD
ENDROOT
BRANCH   1  11
HETATM   11  N1  UNL     1      23.710   2.362  51.077  1.00  0.00    -0.325 N 
HETATM   12  C1  UNL     1      23.813   3.696  51.544  1.00  0.00     0.246 C 
HETATM   13  O1  UNL     1      23.830   3.692  52.826  1.00  0.00    -0.271 OA
HETATM   14  H7  UNL     1      23.655   2.030  50.107  1.00  0.00     0.169 HD
BRANCH  12  15
HETATM   15  C2  UNL     1      23.877   4.821  50.623  1.00  0.00     0.278 C 
BRANCH  15  16
HETATM   16  O2  UNL     1      24.439   4.598  49.376  1.00  0.00    -0.342 OA
BRANCH  16  17
HETATM   17  C3  UNL     1      25.550   5.311  48.956  1.00  0.00     0.069 A 
HETATM   18  C4  UNL     1      26.665   4.468  49.022  1.00  0.00     0.040 A 
HETATM   19  C5  UNL     1      27.932   4.923  48.653  1.00  0.00     0.045 A 
HETATM   20  C6  UNL     1      28.116   6.219  48.214  1.00  0.00     0.116 A 
HETATM   21  F1  UNL     1      29.290   6.737  47.842  1.00  0.00    -0.206 F 
HETATM   22  C7  UNL     1      27.019   7.038  48.151  1.00  0.00     0.045 A 
HETATM   23  C8  UNL     1      25.756   6.621  48.507  1.00  0.00     0.040 A 
ENDBRANCH  16  17
ENDBRANCH  15  16
ENDBRANCH  12  15
ENDBRANCH   1  11
BRANCH   3  24
HETATM   24  C12 UNL     1      24.786  -0.874  54.339  1.00  0.00     0.157 C 
BRANCH  24  25
HETATM   25  N2  UNL     1      26.087  -0.299  54.501  1.00  0.00    -0.386 N 
HETATM   26  H11 UNL     1      25.994   0.501  55.193  1.00  0.00     0.160 HD
BRANCH  25  27
HETATM   27  C13 UNL     1      27.433  -0.382  54.111  1.00  0.00     0.028 A 
HETATM   28  C14 UNL     1      28.015  -1.451  53.420  1.00  0.00     0.029 A 
HETATM   29  C15 UNL     1      29.350  -1.405  53.130  1.00  0.00     0.002 A 
HETATM   30  C16 UNL     1      30.151  -0.349  53.489  1.00  0.00     0.000 A 
HETATM   31  C17 UNL     1      29.602   0.716  54.171  1.00  0.00     0.002 A 
HETATM   32  C18 UNL     1      28.235   0.671  54.470  1.00  0.00     0.029 A 
ENDBRANCH  25  27
ENDBRANCH  24  25
ENDBRANCH   3  24
TORSDOF 9
ENDMDL
MODEL 5
REMARK VINA RESULT:      -8.6      2.639      3.703
REMARK  9 active torsions:
REMARK  status: ('A' for Active; 'I' for Inactive)
REMARK    1  A    between atoms: C1_2  and  C2_3 
REMARK       I    between atoms: C1_2  and  N1_12 
REMARK    2  A    between atoms: C2_3  and  O2_4 
REMARK    3  A    between atoms: O2_4  and  C3_5 
REMARK    4  A    between atoms: N1_12  and  C9_13 
REMARK    5  A    between atoms: C11_15  and  C12_16 
REMARK    6  A    between atoms: C12_16  and  N2_17 
REMARK    7  A    between atoms: N2_17  and  C13_18 
REMARK    8  A    between atoms: C21_26  and  N4_29 
REMARK    9  A    between atoms: C22_28  and  N4_29 
ROOT
HETATM    1  C9  UNL     1      24.902   3.083  51.184  1.00  0.00     0.071 A 
HETATM    2  C10 UNL     1      25.383   2.469  52.377  1.00  0.00     0.037 A 
HETATM    3  C11 UNL     1      24.318   1.568  52.308  1.00  0.00    -0.019 A 
HETATM    4  C19 UNL     1      23.233   1.232  51.576  1.00  0.00     0.236 A 
HETATM    5  C20 UNL     1      22.565   1.491  50.592  1.00  0.00     0.317 A 
HETATM    6  C21 UNL     1      23.678   2.502  50.585  1.00  0.00     0.270 A 
HETATM    7  N3  UNL     1      23.375   3.294  49.366  1.00  0.00    -0.354 N 
HETATM    8  C22 UNL     1      22.339   2.297  49.435  1.00  0.00     0.341 A 
HETATM    9  N4  UNL     1      23.125   2.117  50.453  1.00  0.00     0.021 N 
HETATM   10  H18 UNL     1      23.820   4.137  48.860  1.00  0.00     0.158 HD
ENDROOT
BRANCH   1  11
HETATM   11  N1  UNL     1      25.533   4.190  50.570  1.00  0.00    -0.325 N 
HETATM   12  C1  UNL     1      26.507   3.921  49.576  1.00  0.00     0.246 C 
HETATM   13  O1  UNL     1      26.623   2.653  49.435  1.00  0.00    -0.271 OA
HETATM   14  H7  UNL     1      25.223   5.101  50.928  1.00  0.00     0.169 HD
BRANCH  12  15
HETATM   15  C2  UNL     1      27.207   4.996  48.888  1.00  0.00     0.278 C 
BRANCH  15  16
HETATM   16  O2  UNL     1      28.497   4.742  48.449  1.00  0.00    -0.342 OA
BRANCH  16  17
HETATM   17  C3  UNL     1      29.320   5.771  48.021  1.00  0.00     0.069 A 
HETATM   18  C4  UNL     1      28.516   6.867  47.686  1.00  0.00     0.040 A 
HETATM   19  C5  UNL     1      29.081   8.056  47.221  1.00  0.00     0.045 A 
HETATM   20  C6  UNL     1      30.450   8.179  47.081  1.00  0.00     0.116 A 
HETATM   21  F1  UNL     1      31.073   9.277  46.645  1.00  0.00    -0.206 F 
HETATM   22  C7  UNL     1      31.230   7.102  47.412  1.00  0.00     0.045 A 
HETATM   23  C8  UNL     1      30.705   5.916  47.874  1.00  0.00     0.040 A 
ENDBRANCH  16  17
ENDBRANCH  15  16
ENDBRANCH  12  15
ENDBRANCH   1  11
BRANCH   3  24
HETATM   24  C12 UNL     1      24.410   0.602  53.423  1.00  0.00     0.157 C 
BRANCH  24  25
HETATM   25  N2  UNL     1      25.776   0.432  53.813  1.00  0.00    -0.386 N 
HETATM   26  H11 UNL     1      26.000   1.193  54.519  1.00  0.00     0.160 HD
BRANCH  25  27
HETATM   27  C13 UNL     1      26.929  -0.348  53.638  1.00  0.00     0.028 A 
HETATM   28  C14 UNL     1      28.219   0.001  54.058  1.00  0.00     0.029 A 
HETATM   29  C15 UNL     1      29.256  -0.850  53.793  1.00  0.00     0.002 A 
HETATM   30  C16 UNL     1      29.087  -2.040  53.128  1.00  0.00     0.000 A 
HETATM   31  C17 UNL     1      27.828  -2.406  52.704  1.00  0.00     0.002 A 
HETATM   32  C18 UNL     1      26.764  -1.537  52.973  1.00  0.00     0.029 A 
ENDBRANCH  25  27
ENDBRANCH  24  25
ENDBRANCH   3  24
TORSDOF 9
ENDMDL
MODEL 6
REMARK VINA RESULT:      -8.5      3.972      7.772
REMARK  9 active torsions:
REMARK  status: ('A' for Active; 'I' for Inactive)
REMARK    1  A    between atoms: C1_2  and  C2_3 
REMARK       I    between atoms: C1_2  and  N1_12 
REMARK    2  A    between atoms: C2_3  and  O2_4 
REMARK    3  A    between atoms: O2_4  and  C3_5 
REMARK    4  A    between atoms: N1_12  and  C9_13 
REMARK    5  A    between atoms: C11_15  and  C12_16 
REMARK    6  A    between atoms: C12_16  and  N2_17 
REMARK    7  A    between atoms: N2_17  and  C13_18 
REMARK    8  A    between atoms: C21_26  and  N4_29 
REMARK    9  A    between atoms: C22_28  and  N4_29 
ROOT
HETATM    1  C9  UNL     1      25.917   4.482  49.855  1.00  0.00     0.071 A 
HETATM    2  C10 UNL     1      27.017   4.433  48.950  1.00  0.00     0.037 A 
HETATM    3  C11 UNL     1      27.026   5.830  48.931  1.00  0.00    -0.019 A 
HETATM    4  C19 UNL     1      26.405   6.921  49.432  1.00  0.00     0.236 A 
HETATM    5  C20 UNL     1      25.517   7.326  50.159  1.00  0.00     0.317 A 
HETATM    6  C21 UNL     1      25.433   5.828  50.241  1.00  0.00     0.270 A 
HETATM    7  N3  UNL     1      24.300   5.627  51.179  1.00  0.00    -0.354 N 
HETATM    8  C22 UNL     1      24.438   7.054  51.054  1.00  0.00     0.341 A 
HETATM    9  N4  UNL     1      25.348   6.506  50.307  1.00  0.00     0.021 N 
HETATM   10  H18 UNL     1      23.791   4.777  51.608  1.00  0.00     0.158 HD
ENDROOT
BRANCH   1  11
HETATM   11  N1  UNL     1      25.291   3.327  50.381  1.00  0.00    -0.325 N 
HETATM   12  C1  UNL     1      26.064   2.490  51.223  1.00  0.00     0.246 C 
HETATM   13  O1  UNL     1      27.242   2.981  51.337  1.00  0.00    -0.271 OA
HETATM   14  H7  UNL     1      24.318   3.202  50.078  1.00  0.00     0.169 HD
BRANCH  12  15
HETATM   15  C2  UNL     1      25.506   1.281  51.813  1.00  0.00     0.278 C 
BRANCH  15  16
HETATM   16  O2  UNL     1      24.144   1.068  51.668  1.00  0.00    -0.342 OA
BRANCH  16  17
HETATM   17  C3  UNL     1      23.440   0.307  52.587  1.00  0.00     0.069 A 
HETATM   18  C4  UNL     1      22.098   0.268  52.189  1.00  0.00     0.040 A 
HETATM   19  C5  UNL     1      21.149  -0.435  52.933  1.00  0.00     0.045 A 
HETATM   20  C6  UNL     1      21.512  -1.110  54.083  1.00  0.00     0.116 A 
HETATM   21  F1  UNL     1      20.671  -1.805  54.853  1.00  0.00    -0.206 F 
HETATM   22  C7  UNL     1      22.827  -1.066  54.465  1.00  0.00     0.045 A 
HETATM   23  C8  UNL     1      23.788  -0.383  53.754  1.00  0.00     0.040 A 
ENDBRANCH  16  17
ENDBRANCH  15  16
ENDBRANCH  12  15
ENDBRANCH   1  11
BRANCH   3  24
HETATM   24  C12 UNL     1      28.131   6.310  48.075  1.00  0.00     0.157 C 
BRANCH  24  25
HETATM   25  N2  UNL     1      29.390   6.007  48.682  1.00  0.00    -0.386 N 
HETATM   26  H11 UNL     1      29.249   6.038  49.735  1.00  0.00     0.160 HD
BRANCH  25  27
HETATM   27  C13 UNL     1      30.732   5.678  48.435  1.00  0.00     0.028 A 
HETATM   28  C14 UNL     1      31.178   4.710  47.526  1.00  0.00     0.029 A 
HETATM   29  C15 UNL     1      32.520   4.479  47.410  1.00  0.00     0.002 A 
HETATM   30  C16 UNL     1      33.457   5.157  48.151  1.00  0.00     0.000 A 
HETATM   31  C17 UNL     1      33.043   6.114  49.053  1.00  0.00     0.002 A 
HETATM   32  C18 UNL     1      31.670   6.353  49.174  1.00  0.00     0.029 A 
ENDBRANCH  25  27
ENDBRANCH  24  25
ENDBRANCH   3  24
TORSDOF 9
ENDMDL
MODEL 7
REMARK VINA RESULT:      -8.3      4.660      6.629
REMARK  9 active torsions:
REMARK  status: ('A' for Active; 'I' for Inactive)
REMARK    1  A    between atoms: C1_2  and  C2_3 
REMARK       I    between atoms: C1_2  and  N1_12 
REMARK    2  A    between atoms: C2_3  and  O2_4 
REMARK    3  A    between atoms: O2_4  and  C3_5 
REMARK    4  A    between atoms: N1_12  and  C9_13 
REMARK    5  A    between atoms: C11_15  and  C12_16 
REMARK    6  A    between atoms: C12_16  and  N2_17 
REMARK    7  A    between atoms: N2_17  and  C13_18 
REMARK    8  A    between atoms: C21_26  and  N4_29 
REMARK    9  A    between atoms: C22_28  and  N4_29 
ROOT
HETATM    1  C9  UNL     1      21.674   0.676  52.062  1.00  0.00     0.071 A 
HETATM    2  C10 UNL     1      22.802   1.372  51.538  1.00  0.00     0.037 A 
HETATM    3  C11 UNL     1      23.598   0.748  52.502  1.00  0.00    -0.019 A 
HETATM    4  C19 UNL     1      23.561  -0.123  53.535  1.00  0.00     0.236 A 
HETATM    5  C20 UNL     1      22.857  -0.850  54.210  1.00  0.00     0.317 A 
HETATM    6  C21 UNL     1      21.925  -0.227  53.210  1.00  0.00     0.270 A 
HETATM    7  N3  UNL     1      20.620  -0.835  53.574  1.00  0.00    -0.354 N 
HETATM    8  C22 UNL     1      21.569  -1.394  54.501  1.00  0.00     0.341 A 
HETATM    9  N4  UNL     1      22.216  -0.586  53.717  1.00  0.00     0.021 N 
HETATM   10  H18 UNL     1      19.605  -0.767  53.212  1.00  0.00     0.158 HD
ENDROOT
BRANCH   1  11
HETATM   11  N1  UNL     1      20.366   0.811  51.540  1.00  0.00    -0.325 N 
HETATM   12  C1  UNL     1      19.562   1.861  52.051  1.00  0.00     0.246 C 
HETATM   13  O1  UNL     1      20.227   2.505  52.938  1.00  0.00    -0.271 OA
HETATM   14  H7  UNL     1      20.120   0.107  50.835  1.00  0.00     0.169 HD
BRANCH  12  15
HETATM   15  C2  UNL     1      18.204   2.079  51.575  1.00  0.00     0.278 C 
BRANCH  15  16
HETATM   16  O2  UNL     1      17.630   3.316  51.821  1.00  0.00    -0.342 OA
BRANCH  16  17
HETATM   17  C3  UNL     1      16.254   3.477  51.815  1.00  0.00     0.069 A 
HETATM   18  C4  UNL     1      15.899   4.180  50.657  1.00  0.00     0.040 A 
HETATM   19  C5  UNL     1      14.565   4.486  50.384  1.00  0.00     0.045 A 
HETATM   20  C6  UNL     1      13.561   4.103  51.253  1.00  0.00     0.116 A 
HETATM   21  F1  UNL     1      12.262   4.355  51.071  1.00  0.00    -0.206 F 
HETATM   22  C7  UNL     1      13.917   3.416  52.383  1.00  0.00     0.045 A 
HETATM   23  C8  UNL     1      15.223   3.097  52.682  1.00  0.00     0.040 A 
ENDBRANCH  16  17
ENDBRANCH  15  16
ENDBRANCH  12  15
ENDBRANCH   1  11
BRANCH   3  24
HETATM   24  C12 UNL     1      25.006   1.160  52.327  1.00  0.00     0.157 C 
BRANCH  24  25
HETATM   25  N2  UNL     1      25.876   0.213  52.955  1.00  0.00    -0.386 N 
HETATM   26  H11 UNL     1      25.266  -0.464  53.500  1.00  0.00     0.160 HD
BRANCH  25  27
HETATM   27  C13 UNL     1      27.214  -0.176  53.127  1.00  0.00     0.028 A 
HETATM   28  C14 UNL     1      27.709  -1.476  52.967  1.00  0.00     0.029 A 
HETATM   29  C15 UNL     1      29.036  -1.712  53.195  1.00  0.00     0.002 A 
HETATM   30  C16 UNL     1      29.911  -0.724  53.576  1.00  0.00     0.000 A 
HETATM   31  C17 UNL     1      29.447   0.564  53.741  1.00  0.00     0.002 A 
HETATM   32  C18 UNL     1      28.089   0.809  53.509  1.00  0.00     0.029 A 
ENDBRANCH  25  27
ENDBRANCH  24  25
ENDBRANCH   3  24
TORSDOF 9
ENDMDL
MODEL 8
REMARK VINA RESULT:      -8.2      4.216      6.737
REMARK  9 active torsions:
REMARK  status: ('A' for Active; 'I' for Inactive)
REMARK    1  A    between atoms: C1_2  and  C2_3 
REMARK       I    between atoms: C1_2  and  N1_12 
REMARK    2  A    between atoms: C2_3  and  O2_4 
REMARK    3  A    between atoms: O2_4  and  C3_5 
REMARK    4  A    between atoms: N1_12  and  C9_13 
REMARK    5  A    between atoms: C11_15  and  C12_16 
REMARK    6  A    between atoms: C12_16  and  N2_17 
REMARK    7  A    between atoms: N2_17  and  C13_18 
REMARK    8  A    between atoms: C21_26  and  N4_29 
REMARK    9  A    between atoms: C22_28  and  N4_29 
ROOT
HETATM    1  C9  UNL     1      26.358   5.688  49.206  1.00  0.00     0.071 A 
HETATM    2  C10 UNL     1      26.165   4.509  49.984  1.00  0.00     0.037 A 
HETATM    3  C11 UNL     1      24.815   4.530  49.627  1.00  0.00    -0.019 A 
HETATM    4  C19 UNL     1      23.897   5.217  48.913  1.00  0.00     0.236 A 
HETATM    5  C20 UNL     1      23.699   6.175  48.190  1.00  0.00     0.317 A 
HETATM    6  C21 UNL     1      25.164   6.234  48.520  1.00  0.00     0.270 A 
HETATM    7  N3  UNL     1      25.606   7.443  47.779  1.00  0.00    -0.354 N 
HETATM    8  C22 UNL     1      24.198   7.325  47.504  1.00  0.00     0.341 A 
HETATM    9  N4  UNL     1      24.528   6.340  48.283  1.00  0.00     0.021 N 
HETATM   10  H18 UNL     1      26.538   7.970  47.643  1.00  0.00     0.158 HD
ENDROOT
BRANCH   1  11
HETATM   11  N1  UNL     1      27.610   6.333  49.069  1.00  0.00    -0.325 N 
HETATM   12  C1  UNL     1      28.680   5.579  48.526  1.00  0.00     0.246 C 
HETATM   13  O1  UNL     1      28.266   4.396  48.260  1.00  0.00    -0.271 OA
HETATM   14  H7  UNL     1      27.619   7.305  49.400  1.00  0.00     0.169 HD
BRANCH  12  15
HETATM   15  C2  UNL     1      30.003   6.158  48.346  1.00  0.00     0.278 C 
BRANCH  15  16
HETATM   16  O2  UNL     1      31.083   5.463  48.865  1.00  0.00    -0.342 OA
BRANCH  16  17
HETATM   17  C3  UNL     1      31.968   4.796  48.033  1.00  0.00     0.069 A 
HETATM   18  C4  UNL     1      33.259   5.271  48.293  1.00  0.00     0.040 A 
HETATM   19  C5  UNL     1      34.361   4.772  47.597  1.00  0.00     0.045 A 
HETATM   20  C6  UNL     1      34.204   3.795  46.633  1.00  0.00     0.116 A 
HETATM   21  F1  UNL     1      35.201   3.263  45.921  1.00  0.00    -0.206 F 
HETATM   22  C7  UNL     1      32.938   3.335  46.385  1.00  0.00     0.045 A 
HETATM   23  C8  UNL     1      31.829   3.806  47.054  1.00  0.00     0.040 A 
ENDBRANCH  16  17
ENDBRANCH  15  16
ENDBRANCH  12  15
ENDBRANCH   1  11
BRANCH   3  24
HETATM   24  C12 UNL     1      24.126   3.363  50.217  1.00  0.00     0.157 C 
BRANCH  24  25
HETATM   25  N2  UNL     1      25.002   2.680  51.120  1.00  0.00    -0.386 N 
HETATM   26  H11 UNL     1      25.803   3.341  51.343  1.00  0.00     0.160 HD
BRANCH  25  27
HETATM   27  C13 UNL     1      25.214   1.488  51.829  1.00  0.00     0.028 A 
HETATM   28  C14 UNL     1      24.244   0.799  52.569  1.00  0.00     0.029 A 
HETATM   29  C15 UNL     1      24.604  -0.340  53.233  1.00  0.00     0.002 A 
HETATM   30  C16 UNL     1      25.882  -0.843  53.208  1.00  0.00     0.000 A 
HETATM   31  C17 UNL     1      26.854  -0.182  52.487  1.00  0.00     0.002 A 
HETATM   32  C18 UNL     1      26.490   0.985  51.806  1.00  0.00     0.029 A 
ENDBRANCH  25  27
ENDBRANCH  24  25
ENDBRANCH   3  24
TORSDOF 9
ENDMDL
MODEL 9
REMARK VINA RESULT:      -8.2      2.729      3.588
REMARK  9 active torsions:
REMARK  status: ('A' for Active; 'I' for Inactive)
REMARK    1  A    between atoms: C1_2  and  C2_3 
REMARK       I    between atoms: C1_2  and  N1_12 
REMARK    2  A    between atoms: C2_3  and  O2_4 
REMARK    3  A    between atoms: O2_4  and  C3_5 
REMARK    4  A    between atoms: N1_12  and  C9_13 
REMARK    5  A    between atoms: C11_15  and  C12_16 
REMARK    6  A    between atoms: C12_16  and  N2_17 
REMARK    7  A    between atoms: N2_17  and  C13_18 
REMARK    8  A    between atoms: C21_26  and  N4_29 
REMARK    9  A    between atoms: C22_28  and  N4_29 
ROOT
HETATM    1  C9  UNL     1      23.614   2.951  52.512  1.00  0.00     0.071 A 
HETATM    2  C10 UNL     1      24.510   1.890  52.833  1.00  0.00     0.037 A 
HETATM    3  C11 UNL     1      23.410   1.038  52.956  1.00  0.00    -0.019 A 
HETATM    4  C19 UNL     1      22.062   0.993  52.868  1.00  0.00     0.236 A 
HETATM    5  C20 UNL     1      21.050   1.628  52.640  1.00  0.00     0.317 A 
HETATM    6  C21 UNL     1      22.171   2.617  52.485  1.00  0.00     0.270 A 
HETATM    7  N3  UNL     1      21.446   3.862  52.128  1.00  0.00    -0.354 N 
HETATM    8  C22 UNL     1      20.422   2.863  52.292  1.00  0.00     0.341 A 
HETATM    9  N4  UNL     1      21.567   2.292  52.516  1.00  0.00     0.021 N 
HETATM   10  H18 UNL     1      21.721   4.881  51.901  1.00  0.00     0.158 HD
ENDROOT
BRANCH   1  11
HETATM   11  N1  UNL     1      24.041   4.269  52.225  1.00  0.00    -0.325 N 
HETATM   12  C1  UNL     1      24.344   4.581  50.876  1.00  0.00     0.246 C 
HETATM   13  O1  UNL     1      24.163   3.538  50.153  1.00  0.00    -0.271 OA
HETATM   14  H7  UNL     1      24.102   4.879  53.049  1.00  0.00     0.169 HD
BRANCH  12  15
HETATM   15  C2  UNL     1      24.789   5.911  50.485  1.00  0.00     0.278 C 
BRANCH  15  16
HETATM   16  O2  UNL     1      24.169   6.996  51.083  1.00  0.00    -0.342 OA
BRANCH  16  17
HETATM   17  C3  UNL     1      23.002   7.528  50.560  1.00  0.00     0.069 A 
HETATM   18  C4  UNL     1      23.348   8.498  49.611  1.00  0.00     0.040 A 
HETATM   19  C5  UNL     1      22.366   9.204  48.915  1.00  0.00     0.045 A 
HETATM   20  C6  UNL     1      21.025   8.963  49.147  1.00  0.00     0.116 A 
HETATM   21  F1  UNL     1      20.022   9.591  48.528  1.00  0.00    -0.206 F 
HETATM   22  C7  UNL     1      20.695   8.012  50.077  1.00  0.00     0.045 A 
HETATM   23  C8  UNL     1      21.639   7.297  50.780  1.00  0.00     0.040 A 
ENDBRANCH  16  17
ENDBRANCH  15  16
ENDBRANCH  12  15
ENDBRANCH   1  11
BRANCH   3  24
HETATM   24  C12 UNL     1      23.873  -0.329  53.275  1.00  0.00     0.157 C 
BRANCH  24  25
HETATM   25  N2  UNL     1      25.108  -0.274  53.995  1.00  0.00    -0.386 N 
HETATM   26  H11 UNL     1      24.879  -0.010  54.997  1.00  0.00     0.160 HD
BRANCH  25  27
HETATM   27  C13 UNL     1      26.499  -0.439  53.898  1.00  0.00     0.028 A 
HETATM   28  C14 UNL     1      27.156  -1.296  53.007  1.00  0.00     0.029 A 
HETATM   29  C15 UNL     1      28.521  -1.373  53.045  1.00  0.00     0.002 A 
HETATM   30  C16 UNL     1      29.281  -0.642  53.926  1.00  0.00     0.000 A 
HETATM   31  C17 UNL     1      28.657   0.208  54.814  1.00  0.00     0.002 A 
HETATM   32  C18 UNL     1      27.260   0.289  54.777  1.00  0.00     0.029 A 
ENDBRANCH  25  27
ENDBRANCH  24  25
ENDBRANCH   3  24
TORSDOF 9
ENDMDL
