MODEL 1
REMARK VINA RESULT:      -7.9      0.000      0.000
REMARK  4 active torsions:
REMARK  status: ('A' for Active; 'I' for Inactive)
REMARK    1  A    between atoms: N1_2  and  S1_3 
REMARK    2  A    between atoms: S1_3  and  C2_5 
REMARK    3  A    between atoms: C5_8  and  N2_9 
REMARK    4  A    between atoms: N2_9  and  C6_10 
ROOT
HETATM    1  C2  UNL     1      25.675  -0.230  54.238  1.00  0.00     0.139 A 
HETATM    2  C3  UNL     1      24.718   0.080  53.295  1.00  0.00     0.060 A 
HETATM    3  C4  UNL     1      23.444  -0.337  53.599  1.00  0.00     0.043 A 
HETATM    4  C5  UNL     1      22.379  -0.088  52.735  1.00  0.00     0.142 A 
HETATM    5  N3  UNL     1      21.097  -0.481  52.993  1.00  0.00    -0.224 NA
HETATM    6  C12 UNL     1      20.883  -1.148  54.165  1.00  0.00     0.236 A 
HETATM    7  N4  UNL     1      21.863  -1.423  55.046  1.00  0.00    -0.240 NA
HETATM    8  C13 UNL     1      23.119  -1.017  54.752  1.00  0.00     0.089 A 
HETATM    9  C14 UNL     1      24.146  -1.294  55.659  1.00  0.00     0.150 A 
HETATM   10  N5  UNL     1      25.420  -0.890  55.380  1.00  0.00    -0.248 NA
ENDROOT
BRANCH   4  11
HETATM   11  N2  UNL     1      22.717   0.616  51.537  1.00  0.00    -0.340 N 
HETATM   12  H6  UNL     1      22.944   0.179  50.600  1.00  0.00     0.167 HD
BRANCH  11  13
HETATM   13  C6  UNL     1      22.755   2.039  51.587  1.00  0.00     0.035 A 
HETATM   14  C7  UNL     1      21.810   2.792  52.294  1.00  0.00     0.029 A 
HETATM   15  C8  UNL     1      21.912   4.183  52.294  1.00  0.00     0.004 A 
HETATM   16  C9  UNL     1      22.932   4.820  51.605  1.00  0.00     0.019 A 
HETATM   17  C10 UNL     1      23.887   4.120  50.894  1.00  0.00     0.013 A 
HETATM   18 BR1  UNL     1      25.277   4.991  49.953  1.00  0.00    -0.051 Br
HETATM   19  C11 UNL     1      23.729   2.763  50.935  1.00  0.00     0.048 A 
ENDBRANCH  11  13
ENDBRANCH   4  11
BRANCH   1  20
HETATM   20  S1  UNL     1      27.344   0.259  53.950  1.00  0.00     0.143 S 
HETATM   21  O1  UNL     1      28.225  -0.501  54.937  1.00  0.00    -0.234 OA
BRANCH  20  22
HETATM   22  N1  UNL     1      27.443   1.995  54.220  1.00  0.00    -0.241 NA
HETATM   23  C1  UNL     1      28.647   2.457  53.546  1.00  0.00     0.123 C 
HETATM   24  H4  UNL     1      27.605   2.100  55.263  1.00  0.00     0.137 HD
ENDBRANCH  20  22
ENDBRANCH   1  20
TORSDOF 4
ENDMDL
MODEL 2
REMARK VINA RESULT:      -7.7      2.613      4.717
REMARK  4 active torsions:
REMARK  status: ('A' for Active; 'I' for Inactive)
REMARK    1  A    between atoms: N1_2  and  S1_3 
REMARK    2  A    between atoms: S1_3  and  C2_5 
REMARK    3  A    between atoms: C5_8  and  N2_9 
REMARK    4  A    between atoms: N2_9  and  C6_10 
ROOT
HETATM    1  C2  UNL     1      24.256  -0.425  53.700  1.00  0.00     0.139 A 
HETATM    2  C3  UNL     1      24.821   0.370  52.725  1.00  0.00     0.060 A 
HETATM    3  C4  UNL     1      26.041   0.912  53.050  1.00  0.00     0.043 A 
HETATM    4  C5  UNL     1      26.726   1.735  52.157  1.00  0.00     0.142 A 
HETATM    5  N3  UNL     1      27.939   2.295  52.435  1.00  0.00    -0.224 NA
HETATM    6  C12 UNL     1      28.481   2.016  53.657  1.00  0.00     0.236 A 
HETATM    7  N4  UNL     1      27.877   1.231  54.568  1.00  0.00    -0.240 NA
HETATM    8  C13 UNL     1      26.675   0.695  54.254  1.00  0.00     0.089 A 
HETATM    9  C14 UNL     1      26.037  -0.123  55.191  1.00  0.00     0.150 A 
HETATM   10  N5  UNL     1      24.824  -0.675  54.891  1.00  0.00    -0.248 NA
ENDROOT
BRANCH   4  11
HETATM   11  N2  UNL     1      26.066   1.962  50.909  1.00  0.00    -0.340 N 
HETATM   12  H6  UNL     1      25.765   1.219  50.219  1.00  0.00     0.167 HD
BRANCH  11  13
HETATM   13  C6  UNL     1      25.776   3.308  50.543  1.00  0.00     0.035 A 
HETATM   14  C7  UNL     1      24.621   3.972  50.972  1.00  0.00     0.029 A 
HETATM   15  C8  UNL     1      24.406   5.290  50.569  1.00  0.00     0.004 A 
HETATM   16  C9  UNL     1      25.318   5.941  49.754  1.00  0.00     0.019 A 
HETATM   17  C10 UNL     1      26.472   5.327  49.306  1.00  0.00     0.013 A 
HETATM   18 BR1  UNL     1      27.715   6.217  48.193  1.00  0.00    -0.051 Br
HETATM   19  C11 UNL     1      26.621   4.039  49.736  1.00  0.00     0.048 A 
ENDBRANCH  11  13
ENDBRANCH   4  11
BRANCH   1  20
HETATM   20  S1  UNL     1      22.691  -1.174  53.386  1.00  0.00     0.143 S 
HETATM   21  O1  UNL     1      22.013  -0.378  52.275  1.00  0.00    -0.234 OA
BRANCH  20  22
HETATM   22  N1  UNL     1      21.759  -1.100  54.876  1.00  0.00    -0.241 NA
HETATM   23  C1  UNL     1      20.970   0.122  54.819  1.00  0.00     0.123 C 
HETATM   24  H4  UNL     1      22.480  -0.975  55.644  1.00  0.00     0.137 HD
ENDBRANCH  20  22
ENDBRANCH   1  20
TORSDOF 4
ENDMDL
MODEL 3
REMARK VINA RESULT:      -7.5      3.757      5.676
REMARK  4 active torsions:
REMARK  status: ('A' for Active; 'I' for Inactive)
REMARK    1  A    between atoms: N1_2  and  S1_3 
REMARK    2  A    between atoms: S1_3  and  C2_5 
REMARK    3  A    between atoms: C5_8  and  N2_9 
REMARK    4  A    between atoms: N2_9  and  C6_10 
ROOT
HETATM    1  C2  UNL     1      20.819   0.521  51.754  1.00  0.00     0.139 A 
HETATM    2  C3  UNL     1      22.183   0.467  51.948  1.00  0.00     0.060 A 
HETATM    3  C4  UNL     1      22.581  -0.141  53.114  1.00  0.00     0.043 A 
HETATM    4  C5  UNL     1      23.931  -0.267  53.438  1.00  0.00     0.142 A 
HETATM    5  N3  UNL     1      24.375  -0.863  54.582  1.00  0.00    -0.224 NA
HETATM    6  C12 UNL     1      23.423  -1.349  55.432  1.00  0.00     0.236 A 
HETATM    7  N4  UNL     1      22.102  -1.262  55.185  1.00  0.00    -0.240 NA
HETATM    8  C13 UNL     1      21.704  -0.664  54.039  1.00  0.00     0.089 A 
HETATM    9  C14 UNL     1      20.336  -0.569  53.770  1.00  0.00     0.150 A 
HETATM   10  N5  UNL     1      19.915   0.030  52.617  1.00  0.00    -0.248 NA
ENDROOT
BRANCH   4  11
HETATM   11  N2  UNL     1      24.841   0.278  52.479  1.00  0.00    -0.340 N 
HETATM   12  H6  UNL     1      24.649   0.422  51.448  1.00  0.00     0.167 HD
BRANCH  11  13
HETATM   13  C6  UNL     1      26.132   0.674  52.934  1.00  0.00     0.035 A 
HETATM   14  C7  UNL     1      26.426   1.989  53.311  1.00  0.00     0.029 A 
HETATM   15  C8  UNL     1      27.714   2.300  53.744  1.00  0.00     0.004 A 
HETATM   16  C9  UNL     1      28.699   1.326  53.802  1.00  0.00     0.019 A 
HETATM   17  C10 UNL     1      28.456   0.015  53.440  1.00  0.00     0.013 A 
HETATM   18 BR1  UNL     1      29.800  -1.312  53.518  1.00  0.00    -0.051 Br
HETATM   19  C11 UNL     1      27.176  -0.221  53.026  1.00  0.00     0.048 A 
ENDBRANCH  11  13
ENDBRANCH   4  11
BRANCH   1  20
HETATM   20  S1  UNL     1      20.198   1.279  50.288  1.00  0.00     0.143 S 
HETATM   21  O1  UNL     1      21.080   0.831  49.127  1.00  0.00    -0.234 OA
BRANCH  20  22
HETATM   22  N1  UNL     1      20.286   3.022  50.513  1.00  0.00    -0.241 NA
HETATM   23  C1  UNL     1      19.364   3.354  51.590  1.00  0.00     0.123 C 
HETATM   24  H4  UNL     1      19.888   3.433  49.620  1.00  0.00     0.137 HD
ENDBRANCH  20  22
ENDBRANCH   1  20
TORSDOF 4
ENDMDL
MODEL 4
REMARK VINA RESULT:      -7.4      2.307      3.572
REMARK  4 active torsions:
REMARK  status: ('A' for Active; 'I' for Inactive)
REMARK    1  A    between atoms: N1_2  and  S1_3 
REMARK    2  A    between atoms: S1_3  and  C2_5 
REMARK    3  A    between atoms: C5_8  and  N2_9 
REMARK    4  A    between atoms: N2_9  and  C6_10 
ROOT
HETATM    1  C2  UNL     1      24.347   0.110  53.524  1.00  0.00     0.139 A 
HETATM    2  C3  UNL     1      24.404   1.402  53.043  1.00  0.00     0.060 A 
HETATM    3  C4  UNL     1      23.305   1.804  52.324  1.00  0.00     0.043 A 
HETATM    4  C5  UNL     1      23.228   3.085  51.780  1.00  0.00     0.142 A 
HETATM    5  N3  UNL     1      22.158   3.530  51.060  1.00  0.00    -0.224 NA
HETATM    6  C12 UNL     1      21.128   2.651  50.880  1.00  0.00     0.236 A 
HETATM    7  N4  UNL     1      21.134   1.399  51.375  1.00  0.00    -0.240 NA
HETATM    8  C13 UNL     1      22.214   0.997  52.084  1.00  0.00     0.089 A 
HETATM    9  C14 UNL     1      22.232  -0.299  52.605  1.00  0.00     0.150 A 
HETATM   10  N5  UNL     1      23.313  -0.723  53.324  1.00  0.00    -0.248 NA
ENDROOT
BRANCH   4  11
HETATM   11  N2  UNL     1      24.362   3.921  52.027  1.00  0.00    -0.340 N 
HETATM   12  H6  UNL     1      24.659   4.308  52.966  1.00  0.00     0.167 HD
BRANCH  11  13
HETATM   13  C6  UNL     1      25.183   4.276  50.918  1.00  0.00     0.035 A 
HETATM   14  C7  UNL     1      26.154   3.415  50.395  1.00  0.00     0.029 A 
HETATM   15  C8  UNL     1      26.921   3.835  49.309  1.00  0.00     0.004 A 
HETATM   16  C9  UNL     1      26.731   5.088  48.748  1.00  0.00     0.019 A 
HETATM   17  C10 UNL     1      25.785   5.973  49.230  1.00  0.00     0.013 A 
HETATM   18 BR1  UNL     1      25.528   7.682  48.465  1.00  0.00    -0.051 Br
HETATM   19  C11 UNL     1      25.070   5.499  50.293  1.00  0.00     0.048 A 
ENDBRANCH  11  13
ENDBRANCH   4  11
BRANCH   1  20
HETATM   20  S1  UNL     1      25.705  -0.508  54.464  1.00  0.00     0.143 S 
HETATM   21  O1  UNL     1      25.136  -1.195  55.701  1.00  0.00    -0.234 OA
BRANCH  20  22
HETATM   22  N1  UNL     1      26.713   0.864  54.908  1.00  0.00    -0.241 NA
HETATM   23  C1  UNL     1      28.086   0.495  54.597  1.00  0.00     0.123 C 
HETATM   24  H4  UNL     1      26.635   0.929  55.964  1.00  0.00     0.137 HD
ENDBRANCH  20  22
ENDBRANCH   1  20
TORSDOF 4
ENDMDL
MODEL 5
REMARK VINA RESULT:      -7.2      1.973      2.912
REMARK  4 active torsions:
REMARK  status: ('A' for Active; 'I' for Inactive)
REMARK    1  A    between atoms: N1_2  and  S1_3 
REMARK    2  A    between atoms: S1_3  and  C2_5 
REMARK    3  A    between atoms: C5_8  and  N2_9 
REMARK    4  A    between atoms: N2_9  and  C6_10 
ROOT
HETATM    1  C2  UNL     1      25.378   0.933  53.467  1.00  0.00     0.139 A 
HETATM    2  C3  UNL     1      24.874   2.166  53.112  1.00  0.00     0.060 A 
HETATM    3  C4  UNL     1      23.529   2.186  52.829  1.00  0.00     0.043 A 
HETATM    4  C5  UNL     1      22.887   3.366  52.459  1.00  0.00     0.142 A 
HETATM    5  N3  UNL     1      21.556   3.436  52.169  1.00  0.00    -0.224 NA
HETATM    6  C12 UNL     1      20.845   2.273  52.256  1.00  0.00     0.236 A 
HETATM    7  N4  UNL     1      21.399   1.096  52.606  1.00  0.00    -0.240 NA
HETATM    8  C13 UNL     1      22.722   1.071  52.885  1.00  0.00     0.089 A 
HETATM    9  C14 UNL     1      23.309  -0.143  53.253  1.00  0.00     0.150 A 
HETATM   10  N5  UNL     1      24.643  -0.189  53.540  1.00  0.00    -0.248 NA
ENDROOT
BRANCH   4  11
HETATM   11  N2  UNL     1      23.726   4.523  52.398  1.00  0.00    -0.340 N 
HETATM   12  H6  UNL     1      24.133   5.043  53.225  1.00  0.00     0.167 HD
BRANCH  11  13
HETATM   13  C6  UNL     1      24.060   5.038  51.112  1.00  0.00     0.035 A 
HETATM   14  C7  UNL     1      23.152   5.764  50.334  1.00  0.00     0.029 A 
HETATM   15  C8  UNL     1      23.552   6.234  49.083  1.00  0.00     0.004 A 
HETATM   16  C9  UNL     1      24.830   5.988  48.608  1.00  0.00     0.019 A 
HETATM   17  C10 UNL     1      25.761   5.275  49.339  1.00  0.00     0.013 A 
HETATM   18 BR1  UNL     1      27.504   4.939  48.689  1.00  0.00    -0.051 Br
HETATM   19  C11 UNL     1      25.305   4.845  50.553  1.00  0.00     0.048 A 
ENDBRANCH  11  13
ENDBRANCH   4  11
BRANCH   1  20
HETATM   20  S1  UNL     1      27.093   0.794  53.853  1.00  0.00     0.143 S 
HETATM   21  O1  UNL     1      27.218  -0.087  55.093  1.00  0.00    -0.234 OA
BRANCH  20  22
HETATM   22  N1  UNL     1      27.701   2.415  54.164  1.00  0.00    -0.241 NA
HETATM   23  C1  UNL     1      29.111   2.412  53.805  1.00  0.00     0.123 C 
HETATM   24  H4  UNL     1      27.644   2.531  55.217  1.00  0.00     0.137 HD
ENDBRANCH  20  22
ENDBRANCH   1  20
TORSDOF 4
ENDMDL
MODEL 6
REMARK VINA RESULT:      -7.2      2.239      2.685
REMARK  4 active torsions:
REMARK  status: ('A' for Active; 'I' for Inactive)
REMARK    1  A    between atoms: N1_2  and  S1_3 
REMARK    2  A    between atoms: S1_3  and  C2_5 
REMARK    3  A    between atoms: C5_8  and  N2_9 
REMARK    4  A    between atoms: N2_9  and  C6_10 
ROOT
HETATM    1  C2  UNL     1      24.935  -0.194  53.476  1.00  0.00     0.139 A 
HETATM    2  C3  UNL     1      24.410   0.843  52.734  1.00  0.00     0.060 A 
HETATM    3  C4  UNL     1      23.057   1.033  52.877  1.00  0.00     0.043 A 
HETATM    4  C5  UNL     1      22.394   2.047  52.187  1.00  0.00     0.142 A 
HETATM    5  N3  UNL     1      21.053   2.276  52.297  1.00  0.00    -0.224 NA
HETATM    6  C12 UNL     1      20.355   1.453  53.133  1.00  0.00     0.236 A 
HETATM    7  N4  UNL     1      20.928   0.454  53.830  1.00  0.00    -0.240 NA
HETATM    8  C13 UNL     1      22.260   0.261  53.693  1.00  0.00     0.089 A 
HETATM    9  C14 UNL     1      22.868  -0.772  54.412  1.00  0.00     0.150 A 
HETATM   10  N5  UNL     1      24.211  -0.982  54.288  1.00  0.00    -0.248 NA
ENDROOT
BRANCH   4  11
HETATM   11  N2  UNL     1      23.221   2.848  51.338  1.00  0.00    -0.340 N 
HETATM   12  H6  UNL     1      24.092   3.373  51.630  1.00  0.00     0.167 HD
BRANCH  11  13
HETATM   13  C6  UNL     1      22.858   2.959  49.964  1.00  0.00     0.035 A 
HETATM   14  C7  UNL     1      22.456   1.856  49.202  1.00  0.00     0.029 A 
HETATM   15  C8  UNL     1      22.118   2.044  47.862  1.00  0.00     0.004 A 
HETATM   16  C9  UNL     1      22.178   3.303  47.284  1.00  0.00     0.019 A 
HETATM   17  C10 UNL     1      22.569   4.420  47.996  1.00  0.00     0.013 A 
HETATM   18 BR1  UNL     1      22.651   6.136  47.207  1.00  0.00    -0.051 Br
HETATM   19  C11 UNL     1      22.886   4.166  49.301  1.00  0.00     0.048 A 
ENDBRANCH  11  13
ENDBRANCH   4  11
BRANCH   1  20
HETATM   20  S1  UNL     1      26.664  -0.527  53.369  1.00  0.00     0.143 S 
HETATM   21  O1  UNL     1      26.830  -2.007  53.040  1.00  0.00    -0.234 OA
BRANCH  20  22
HETATM   22  N1  UNL     1      27.377  -0.141  54.930  1.00  0.00    -0.241 NA
HETATM   23  C1  UNL     1      28.764   0.221  54.681  1.00  0.00     0.123 C 
HETATM   24  H4  UNL     1      27.381  -1.057  55.463  1.00  0.00     0.137 HD
ENDBRANCH  20  22
ENDBRANCH   1  20
TORSDOF 4
ENDMDL
MODEL 7
REMARK VINA RESULT:      -7.0      7.375     10.074
REMARK  4 active torsions:
REMARK  status: ('A' for Active; 'I' for Inactive)
REMARK    1  A    between atoms: N1_2  and  S1_3 
REMARK    2  A    between atoms: S1_3  and  C2_5 
REMARK    3  A    between atoms: C5_8  and  N2_9 
REMARK    4  A    between atoms: N2_9  and  C6_10 
ROOT
HETATM    1  C2  UNL     1      32.026   5.226  47.784  1.00  0.00     0.139 A 
HETATM    2  C3  UNL     1      30.724   5.678  47.727  1.00  0.00     0.060 A 
HETATM    3  C4  UNL     1      30.506   6.901  48.313  1.00  0.00     0.043 A 
HETATM    4  C5  UNL     1      29.237   7.478  48.326  1.00  0.00     0.142 A 
HETATM    5  N3  UNL     1      28.971   8.690  48.894  1.00  0.00    -0.224 NA
HETATM    6  C12 UNL     1      30.023   9.344  49.470  1.00  0.00     0.236 A 
HETATM    7  N4  UNL     1      31.274   8.847  49.495  1.00  0.00    -0.240 NA
HETATM    8  C13 UNL     1      31.495   7.643  48.921  1.00  0.00     0.089 A 
HETATM    9  C14 UNL     1      32.790   7.116  48.938  1.00  0.00     0.150 A 
HETATM   10  N5  UNL     1      33.033   5.902  48.362  1.00  0.00    -0.248 NA
ENDROOT
BRANCH   4  11
HETATM   11  N2  UNL     1      28.210   6.707  47.697  1.00  0.00    -0.340 N 
HETATM   12  H6  UNL     1      28.055   6.607  46.655  1.00  0.00     0.167 HD
BRANCH  11  13
HETATM   13  C6  UNL     1      27.302   5.997  48.534  1.00  0.00     0.035 A 
HETATM   14  C7  UNL     1      27.402   4.618  48.754  1.00  0.00     0.029 A 
HETATM   15  C8  UNL     1      26.473   3.994  49.585  1.00  0.00     0.004 A 
HETATM   16  C9  UNL     1      25.459   4.720  50.189  1.00  0.00     0.019 A 
HETATM   17  C10 UNL     1      25.319   6.081  50.002  1.00  0.00     0.013 A 
HETATM   18 BR1  UNL     1      23.934   7.071  50.825  1.00  0.00    -0.051 Br
HETATM   19  C11 UNL     1      26.261   6.630  49.178  1.00  0.00     0.048 A 
ENDBRANCH  11  13
ENDBRANCH   4  11
BRANCH   1  20
HETATM   20  S1  UNL     1      32.419   3.667  47.060  1.00  0.00     0.143 S 
HETATM   21  O1  UNL     1      33.684   3.149  47.738  1.00  0.00    -0.234 OA
BRANCH  20  22
HETATM   22  N1  UNL     1      32.683   3.930  45.341  1.00  0.00    -0.241 NA
HETATM   23  C1  UNL     1      34.076   4.327  45.186  1.00  0.00     0.123 C 
HETATM   24  H4  UNL     1      32.087   4.773  45.099  1.00  0.00     0.137 HD
ENDBRANCH  20  22
ENDBRANCH   1  20
TORSDOF 4
ENDMDL
MODEL 8
REMARK VINA RESULT:      -7.0      3.142      3.692
REMARK  4 active torsions:
REMARK  status: ('A' for Active; 'I' for Inactive)
REMARK    1  A    between atoms: N1_2  and  S1_3 
REMARK    2  A    between atoms: S1_3  and  C2_5 
REMARK    3  A    between atoms: C5_8  and  N2_9 
REMARK    4  A    between atoms: N2_9  and  C6_10 
ROOT
HETATM    1  C2  UNL     1      25.566   1.194  52.441  1.00  0.00     0.139 A 
HETATM    2  C3  UNL     1      24.240   1.571  52.397  1.00  0.00     0.060 A 
HETATM    3  C4  UNL     1      23.388   0.786  53.136  1.00  0.00     0.043 A 
HETATM    4  C5  UNL     1      22.020   1.053  53.184  1.00  0.00     0.142 A 
HETATM    5  N3  UNL     1      21.135   0.303  53.904  1.00  0.00    -0.224 NA
HETATM    6  C12 UNL     1      21.648  -0.754  54.600  1.00  0.00     0.236 A 
HETATM    7  N4  UNL     1      22.956  -1.071  54.600  1.00  0.00    -0.240 NA
HETATM    8  C13 UNL     1      23.800  -0.302  53.874  1.00  0.00     0.089 A 
HETATM    9  C14 UNL     1      25.161  -0.619  53.866  1.00  0.00     0.150 A 
HETATM   10  N5  UNL     1      26.029   0.145  53.140  1.00  0.00    -0.248 NA
ENDROOT
BRANCH   4  11
HETATM   11  N2  UNL     1      21.593   2.181  52.417  1.00  0.00    -0.340 N 
HETATM   12  H6  UNL     1      22.081   3.118  52.358  1.00  0.00     0.167 HD
BRANCH  11  13
HETATM   13  C6  UNL     1      20.399   2.052  51.649  1.00  0.00     0.035 A 
HETATM   14  C7  UNL     1      20.269   1.120  50.612  1.00  0.00     0.029 A 
HETATM   15  C8  UNL     1      19.069   1.055  49.904  1.00  0.00     0.004 A 
HETATM   16  C9  UNL     1      18.014   1.899  50.215  1.00  0.00     0.019 A 
HETATM   17  C10 UNL     1      18.096   2.834  51.229  1.00  0.00     0.013 A 
HETATM   18 BR1  UNL     1      16.657   3.984  51.651  1.00  0.00    -0.051 Br
HETATM   19  C11 UNL     1      19.296   2.845  51.881  1.00  0.00     0.048 A 
ENDBRANCH  11  13
ENDBRANCH   4  11
BRANCH   1  20
HETATM   20  S1  UNL     1      26.747   2.134  51.529  1.00  0.00     0.143 S 
HETATM   21  O1  UNL     1      27.957   2.356  52.432  1.00  0.00    -0.234 OA
BRANCH  20  22
HETATM   22  N1  UNL     1      25.991   3.662  51.097  1.00  0.00    -0.241 NA
HETATM   23  C1  UNL     1      26.342   3.928  49.709  1.00  0.00     0.123 C 
HETATM   24  H4  UNL     1      26.483   4.389  51.692  1.00  0.00     0.137 HD
ENDBRANCH  20  22
ENDBRANCH   1  20
TORSDOF 4
ENDMDL
MODEL 9
REMARK VINA RESULT:      -7.0      3.208      5.034
REMARK  4 active torsions:
REMARK  status: ('A' for Active; 'I' for Inactive)
REMARK    1  A    between atoms: N1_2  and  S1_3 
REMARK    2  A    between atoms: S1_3  and  C2_5 
REMARK    3  A    between atoms: C5_8  and  N2_9 
REMARK    4  A    between atoms: N2_9  and  C6_10 
ROOT
HETATM    1  C2  UNL     1      26.249   2.332  52.337  1.00  0.00     0.139 A 
HETATM    2  C3  UNL     1      24.905   2.632  52.424  1.00  0.00     0.060 A 
HETATM    3  C4  UNL     1      24.354   3.168  51.285  1.00  0.00     0.043 A 
HETATM    4  C5  UNL     1      23.005   3.516  51.232  1.00  0.00     0.142 A 
HETATM    5  N3  UNL     1      22.412   4.050  50.124  1.00  0.00    -0.224 NA
HETATM    6  C12 UNL     1      23.209   4.240  49.031  1.00  0.00     0.236 A 
HETATM    7  N4  UNL     1      24.518   3.928  49.011  1.00  0.00    -0.240 NA
HETATM    8  C13 UNL     1      25.067   3.401  50.129  1.00  0.00     0.089 A 
HETATM    9  C14 UNL     1      26.425   3.070  50.121  1.00  0.00     0.150 A 
HETATM   10  N5  UNL     1      26.997   2.536  51.240  1.00  0.00    -0.248 NA
ENDROOT
BRANCH   4  11
HETATM   11  N2  UNL     1      22.266   3.277  52.432  1.00  0.00    -0.340 N 
HETATM   12  H6  UNL     1      22.310   3.854  53.318  1.00  0.00     0.167 HD
BRANCH  11  13
HETATM   13  C6  UNL     1      21.379   2.162  52.458  1.00  0.00     0.035 A 
HETATM   14  C7  UNL     1      20.156   2.158  51.778  1.00  0.00     0.029 A 
HETATM   15  C8  UNL     1      19.340   1.030  51.854  1.00  0.00     0.004 A 
HETATM   16  C9  UNL     1      19.727  -0.078  52.592  1.00  0.00     0.019 A 
HETATM   17  C10 UNL     1      20.924  -0.120  53.280  1.00  0.00     0.013 A 
HETATM   18 BR1  UNL     1      21.449  -1.631  54.288  1.00  0.00    -0.051 Br
HETATM   19  C11 UNL     1      21.674   1.016  53.164  1.00  0.00     0.048 A 
ENDBRANCH  11  13
ENDBRANCH   4  11
BRANCH   1  20
HETATM   20  S1  UNL     1      27.058   1.638  53.742  1.00  0.00     0.143 S 
HETATM   21  O1  UNL     1      28.099   2.645  54.220  1.00  0.00    -0.234 OA
BRANCH  20  22
HETATM   22  N1  UNL     1      27.817   0.137  53.229  1.00  0.00    -0.241 NA
HETATM   23  C1  UNL     1      29.084   0.042  53.939  1.00  0.00     0.123 C 
HETATM   24  H4  UNL     1      28.042   0.281  52.202  1.00  0.00     0.137 HD
ENDBRANCH  20  22
ENDBRANCH   1  20
TORSDOF 4
ENDMDL
