MODEL 1
REMARK VINA RESULT:      -9.1      0.000      0.000
REMARK  6 active torsions:
REMARK  status: ('A' for Active; 'I' for Inactive)
REMARK    1  A    between atoms: C3_3  and  C4_4 
REMARK    2  A    between atoms: C4_4  and  C5_5 
REMARK    3  A    between atoms: C15_19  and  N3_20 
REMARK    4  A    between atoms: N3_20  and  C16_21 
REMARK    5  A    between atoms: C16_21  and  C17_22 
REMARK    6  A    between atoms: C17_22  and  N4_23 
ROOT
HETATM    1  C1  UNL     1      26.511  -0.909  52.338  1.00  0.00     0.046 C 
HETATM    2  C2  UNL     1      26.072   0.495  52.554  1.00  0.00    -0.055 C 
HETATM    3  C3  UNL     1      24.824   0.746  53.007  1.00  0.00     0.031 C 
HETATM    4  N2  UNL     1      24.588   2.165  53.181  1.00  0.00    -0.383 N 
HETATM    5  C13 UNL     1      24.810   3.133  52.090  1.00  0.00     0.100 C 
HETATM    6  C14 UNL     1      23.557   3.254  51.291  1.00  0.00     0.034 C 
HETATM    7  C15 UNL     1      26.008   2.640  51.365  1.00  0.00     0.102 C 
HETATM    8  C20 UNL     1      26.828   1.789  52.317  1.00  0.00     0.062 C 
HETATM    9  H9  UNL     1      24.253   2.477  54.145  1.00  0.00     0.160 HD
ENDROOT
BRANCH   3  10
HETATM   10  C4  UNL     1      23.837  -0.251  53.312  1.00  0.00     0.047 C 
BRANCH  10  11
HETATM   11  C5  UNL     1      22.584  -0.530  53.502  1.00  0.00     0.047 A 
HETATM   12  C6  UNL     1      22.329  -1.300  54.728  1.00  0.00     0.257 A 
HETATM   13  O1  UNL     1      22.717  -1.865  55.754  1.00  0.00    -0.267 OA
HETATM   14  N1  UNL     1      20.894  -1.463  54.684  1.00  0.00    -0.322 N 
HETATM   15  C7  UNL     1      20.364  -0.827  53.511  1.00  0.00     0.046 A 
HETATM   16  H5  UNL     1      20.145  -1.914  55.272  1.00  0.00     0.169 HD
HETATM   17  C8  UNL     1      19.127  -0.633  52.921  1.00  0.00     0.033 A 
HETATM   18  C12 UNL     1      21.369  -0.256  52.780  1.00  0.00     0.009 A 
HETATM   19  C9  UNL     1      18.910   0.045  51.750  1.00  0.00     0.044 A 
HETATM   20  C10 UNL     1      19.954   0.590  51.071  1.00  0.00     0.117 A 
HETATM   21  F1  UNL     1      19.813   1.272  49.912  1.00  0.00    -0.206 F 
HETATM   22  C11 UNL     1      21.203   0.432  51.601  1.00  0.00     0.057 A 
ENDBRANCH  10  11
ENDBRANCH   3  10
BRANCH   7  23
HETATM   23  N3  UNL     1      26.803   3.558  50.655  1.00  0.00    -0.413 N 
HETATM   24  H15 UNL     1      27.210   4.352  51.145  1.00  0.00     0.153 HD
BRANCH  23  25
HETATM   25  C16 UNL     1      26.526   3.703  49.271  1.00  0.00     0.135 C 
BRANCH  25  26
HETATM   26  C17 UNL     1      27.257   4.906  48.725  1.00  0.00     0.165 C 
BRANCH  26  27
HETATM   27  N4  UNL     1      26.686   6.148  49.269  1.00  0.00    -0.282 N 
HETATM   28  C18 UNL     1      27.129   7.426  49.083  1.00  0.00     0.128 A 
HETATM   29  C19 UNL     1      26.205   8.194  49.804  1.00  0.00     0.154 A 
HETATM   30  N5  UNL     1      25.288   7.393  50.370  1.00  0.00    -0.171 NA
HETATM   31  N6  UNL     1      25.594   6.152  50.037  1.00  0.00     0.004 NA
ENDBRANCH  26  27
ENDBRANCH  25  26
ENDBRANCH  23  25
ENDBRANCH   7  23
TORSDOF 6
ENDMDL
MODEL 2
REMARK VINA RESULT:      -8.8      4.038      7.783
REMARK  6 active torsions:
REMARK  status: ('A' for Active; 'I' for Inactive)
REMARK    1  A    between atoms: C3_3  and  C4_4 
REMARK    2  A    between atoms: C4_4  and  C5_5 
REMARK    3  A    between atoms: C15_19  and  N3_20 
REMARK    4  A    between atoms: N3_20  and  C16_21 
REMARK    5  A    between atoms: C16_21  and  C17_22 
REMARK    6  A    between atoms: C17_22  and  N4_23 
ROOT
HETATM    1  C1  UNL     1      22.283  -0.871  54.596  1.00  0.00     0.046 C 
HETATM    2  C2  UNL     1      22.094  -0.157  53.305  1.00  0.00    -0.055 C 
HETATM    3  C3  UNL     1      23.170   0.301  52.627  1.00  0.00     0.031 C 
HETATM    4  N2  UNL     1      22.792   0.943  51.385  1.00  0.00    -0.383 N 
HETATM    5  C13 UNL     1      21.806   2.040  51.341  1.00  0.00     0.100 C 
HETATM    6  C14 UNL     1      22.518   3.336  51.530  1.00  0.00     0.034 C 
HETATM    7  C15 UNL     1      20.788   1.694  52.364  1.00  0.00     0.102 C 
HETATM    8  C20 UNL     1      20.811   0.191  52.574  1.00  0.00     0.062 C 
HETATM    9  H9  UNL     1      23.257   0.575  50.498  1.00  0.00     0.160 HD
ENDROOT
BRANCH   3  10
HETATM   10  C4  UNL     1      24.535   0.162  53.048  1.00  0.00     0.047 C 
BRANCH  10  11
HETATM   11  C5  UNL     1      25.665   0.743  53.312  1.00  0.00     0.047 A 
HETATM   12  C6  UNL     1      25.540   2.181  53.595  1.00  0.00     0.257 A 
HETATM   13  O1  UNL     1      24.865   3.205  53.723  1.00  0.00    -0.267 OA
HETATM   14  N1  UNL     1      26.913   2.555  53.847  1.00  0.00    -0.322 N 
HETATM   15  C7  UNL     1      27.765   1.407  53.717  1.00  0.00     0.046 A 
HETATM   16  H5  UNL     1      27.446   3.428  54.097  1.00  0.00     0.169 HD
HETATM   17  C8  UNL     1      29.114   1.115  53.831  1.00  0.00     0.033 A 
HETATM   18  C12 UNL     1      27.033   0.300  53.393  1.00  0.00     0.009 A 
HETATM   19  C9  UNL     1      29.670  -0.124  53.646  1.00  0.00     0.044 A 
HETATM   20  C10 UNL     1      28.885  -1.185  53.325  1.00  0.00     0.117 A 
HETATM   21  F1  UNL     1      29.365  -2.435  53.130  1.00  0.00    -0.206 F 
HETATM   22  C11 UNL     1      27.543  -0.963  53.197  1.00  0.00     0.057 A 
ENDBRANCH  10  11
ENDBRANCH   3  10
BRANCH   7  23
HETATM   23  N3  UNL     1      19.478   2.188  52.220  1.00  0.00    -0.413 N 
HETATM   24  H15 UNL     1      19.149   2.923  52.841  1.00  0.00     0.153 HD
BRANCH  23  25
HETATM   25  C16 UNL     1      18.517   1.295  51.681  1.00  0.00     0.135 C 
BRANCH  25  26
HETATM   26  C17 UNL     1      17.531   2.056  50.828  1.00  0.00     0.165 C 
BRANCH  26  27
HETATM   27  N4  UNL     1      16.594   2.813  51.672  1.00  0.00    -0.282 N 
HETATM   28  C18 UNL     1      15.344   2.444  52.077  1.00  0.00     0.128 A 
HETATM   29  C19 UNL     1      14.930   3.523  52.868  1.00  0.00     0.154 A 
HETATM   30  N5  UNL     1      15.895   4.456  52.907  1.00  0.00    -0.171 NA
HETATM   31  N6  UNL     1      16.900   4.011  52.176  1.00  0.00     0.004 NA
ENDBRANCH  26  27
ENDBRANCH  25  26
ENDBRANCH  23  25
ENDBRANCH   7  23
TORSDOF 6
ENDMDL
MODEL 3
REMARK VINA RESULT:      -8.5      3.960      7.913
REMARK  6 active torsions:
REMARK  status: ('A' for Active; 'I' for Inactive)
REMARK    1  A    between atoms: C3_3  and  C4_4 
REMARK    2  A    between atoms: C4_4  and  C5_5 
REMARK    3  A    between atoms: C15_19  and  N3_20 
REMARK    4  A    between atoms: N3_20  and  C16_21 
REMARK    5  A    between atoms: C16_21  and  C17_22 
REMARK    6  A    between atoms: C17_22  and  N4_23 
ROOT
HETATM    1  C1  UNL     1      22.489   1.513  50.342  1.00  0.00     0.046 C 
HETATM    2  C2  UNL     1      21.802   1.256  51.636  1.00  0.00    -0.055 C 
HETATM    3  C3  UNL     1      22.509   0.792  52.690  1.00  0.00     0.031 C 
HETATM    4  N2  UNL     1      21.678   0.629  53.867  1.00  0.00    -0.383 N 
HETATM    5  C13 UNL     1      20.439  -0.172  53.842  1.00  0.00     0.100 C 
HETATM    6  C14 UNL     1      20.775  -1.589  54.162  1.00  0.00     0.034 C 
HETATM    7  C15 UNL     1      19.837   0.077  52.509  1.00  0.00     0.102 C 
HETATM    8  C20 UNL     1      20.337   1.415  51.998  1.00  0.00     0.062 C 
HETATM    9  H9  UNL     1      22.004   1.127  54.752  1.00  0.00     0.160 HD
ENDROOT
BRANCH   3  10
HETATM   10  C4  UNL     1      23.916   0.509  52.686  1.00  0.00     0.047 C 
BRANCH  10  11
HETATM   11  C5  UNL     1      25.108   0.872  53.048  1.00  0.00     0.047 A 
HETATM   12  C6  UNL     1      25.200   2.282  53.453  1.00  0.00     0.257 A 
HETATM   13  O1  UNL     1      24.693   3.390  53.643  1.00  0.00    -0.267 OA
HETATM   14  N1  UNL     1      26.598   2.403  53.795  1.00  0.00    -0.322 N 
HETATM   15  C7  UNL     1      27.261   1.144  53.600  1.00  0.00     0.046 A 
HETATM   16  H5  UNL     1      27.251   3.152  54.145  1.00  0.00     0.169 HD
HETATM   17  C8  UNL     1      28.537   0.624  53.744  1.00  0.00     0.033 A 
HETATM   18  C12 UNL     1      26.379   0.203  53.148  1.00  0.00     0.009 A 
HETATM   19  C9  UNL     1      28.895  -0.669  53.473  1.00  0.00     0.044 A 
HETATM   20  C10 UNL     1      27.968  -1.557  53.025  1.00  0.00     0.117 A 
HETATM   21  F1  UNL     1      28.251  -2.849  52.741  1.00  0.00    -0.206 F 
HETATM   22  C11 UNL     1      26.689  -1.107  52.862  1.00  0.00     0.057 A 
ENDBRANCH  10  11
ENDBRANCH   3  10
BRANCH   7  23
HETATM   23  N3  UNL     1      18.446  -0.064  52.350  1.00  0.00    -0.413 N 
HETATM   24  H15 UNL     1      17.933  -0.695  52.961  1.00  0.00     0.153 HD
BRANCH  23  25
HETATM   25  C16 UNL     1      17.928   0.166  51.049  1.00  0.00     0.135 C 
BRANCH  25  26
HETATM   26  C17 UNL     1      16.458   0.504  51.135  1.00  0.00     0.165 C 
BRANCH  26  27
HETATM   27  N4  UNL     1      16.271   1.871  51.644  1.00  0.00    -0.282 N 
HETATM   28  C18 UNL     1      15.186   2.383  52.294  1.00  0.00     0.128 A 
HETATM   29  C19 UNL     1      15.564   3.706  52.560  1.00  0.00     0.154 A 
HETATM   30  N5  UNL     1      16.799   3.931  52.083  1.00  0.00    -0.171 NA
HETATM   31  N6  UNL     1      17.216   2.808  51.529  1.00  0.00     0.004 NA
ENDBRANCH  26  27
ENDBRANCH  25  26
ENDBRANCH  23  25
ENDBRANCH   7  23
TORSDOF 6
ENDMDL
MODEL 4
REMARK VINA RESULT:      -8.4      3.689      7.278
REMARK  6 active torsions:
REMARK  status: ('A' for Active; 'I' for Inactive)
REMARK    1  A    between atoms: C3_3  and  C4_4 
REMARK    2  A    between atoms: C4_4  and  C5_5 
REMARK    3  A    between atoms: C15_19  and  N3_20 
REMARK    4  A    between atoms: N3_20  and  C16_21 
REMARK    5  A    between atoms: C16_21  and  C17_22 
REMARK    6  A    between atoms: C17_22  and  N4_23 
ROOT
HETATM    1  C1  UNL     1      20.875  -1.282  54.171  1.00  0.00     0.046 C 
HETATM    2  C2  UNL     1      21.072  -0.354  53.026  1.00  0.00    -0.055 C 
HETATM    3  C3  UNL     1      22.322   0.014  52.668  1.00  0.00     0.031 C 
HETATM    4  N2  UNL     1      22.316   0.897  51.519  1.00  0.00    -0.383 N 
HETATM    5  C13 UNL     1      21.519   2.139  51.494  1.00  0.00     0.100 C 
HETATM    6  C14 UNL     1      22.340   3.249  52.057  1.00  0.00     0.034 C 
HETATM    7  C15 UNL     1      20.264   1.816  52.217  1.00  0.00     0.102 C 
HETATM    8  C20 UNL     1      20.039   0.318  52.141  1.00  0.00     0.062 C 
HETATM    9  H9  UNL     1      22.911   0.598  50.686  1.00  0.00     0.160 HD
ENDROOT
BRANCH   3  10
HETATM   10  C4  UNL     1      23.530  -0.419  53.310  1.00  0.00     0.047 C 
BRANCH  10  11
HETATM   11  C5  UNL     1      24.720  -0.113  53.728  1.00  0.00     0.047 A 
HETATM   12  C6  UNL     1      25.103  -0.792  54.975  1.00  0.00     0.257 A 
HETATM   13  O1  UNL     1      24.862  -1.565  55.906  1.00  0.00    -0.267 OA
HETATM   14  N1  UNL     1      26.434  -0.278  55.197  1.00  0.00    -0.322 N 
HETATM   15  C7  UNL     1      26.789   0.634  54.146  1.00  0.00     0.046 A 
HETATM   16  H5  UNL     1      27.202  -0.391  55.909  1.00  0.00     0.169 HD
HETATM   17  C8  UNL     1      27.874   1.421  53.795  1.00  0.00     0.033 A 
HETATM   18  C12 UNL     1      25.767   0.750  53.246  1.00  0.00     0.009 A 
HETATM   19  C9  UNL     1      27.937   2.224  52.687  1.00  0.00     0.044 A 
HETATM   20  C10 UNL     1      26.885   2.295  51.831  1.00  0.00     0.117 A 
HETATM   21  F1  UNL     1      26.880   3.064  50.719  1.00  0.00    -0.206 F 
HETATM   22  C11 UNL     1      25.783   1.542  52.121  1.00  0.00     0.057 A 
ENDBRANCH  10  11
ENDBRANCH   3  10
BRANCH   7  23
HETATM   23  N3  UNL     1      19.097   2.543  51.918  1.00  0.00    -0.413 N 
HETATM   24  H15 UNL     1      18.581   2.992  52.671  1.00  0.00     0.153 HD
BRANCH  23  25
HETATM   25  C16 UNL     1      18.374   2.139  50.766  1.00  0.00     0.135 C 
BRANCH  25  26
HETATM   26  C17 UNL     1      17.364   3.200  50.397  1.00  0.00     0.165 C 
BRANCH  26  27
HETATM   27  N4  UNL     1      16.381   3.374  51.477  1.00  0.00    -0.282 N 
HETATM   28  C18 UNL     1      15.257   2.637  51.716  1.00  0.00     0.128 A 
HETATM   29  C19 UNL     1      14.724   3.227  52.869  1.00  0.00     0.154 A 
HETATM   30  N5  UNL     1      15.504   4.247  53.262  1.00  0.00    -0.171 NA
HETATM   31  N6  UNL     1      16.506   4.325  52.406  1.00  0.00     0.004 NA
ENDBRANCH  26  27
ENDBRANCH  25  26
ENDBRANCH  23  25
ENDBRANCH   7  23
TORSDOF 6
ENDMDL
MODEL 5
REMARK VINA RESULT:      -8.3      3.810      5.606
REMARK  6 active torsions:
REMARK  status: ('A' for Active; 'I' for Inactive)
REMARK    1  A    between atoms: C3_3  and  C4_4 
REMARK    2  A    between atoms: C4_4  and  C5_5 
REMARK    3  A    between atoms: C15_19  and  N3_20 
REMARK    4  A    between atoms: N3_20  and  C16_21 
REMARK    5  A    between atoms: C16_21  and  C17_22 
REMARK    6  A    between atoms: C17_22  and  N4_23 
ROOT
HETATM    1  C1  UNL     1      21.929  -1.627  54.540  1.00  0.00     0.046 C 
HETATM    2  C2  UNL     1      21.827  -0.327  53.824  1.00  0.00    -0.055 C 
HETATM    3  C3  UNL     1      20.638   0.069  53.320  1.00  0.00     0.031 C 
HETATM    4  N2  UNL     1      20.727   1.368  52.684  1.00  0.00    -0.383 N 
HETATM    5  C13 UNL     1      21.716   1.653  51.627  1.00  0.00     0.100 C 
HETATM    6  C14 UNL     1      21.123   1.300  50.305  1.00  0.00     0.034 C 
HETATM    7  C15 UNL     1      22.938   0.908  52.020  1.00  0.00     0.102 C 
HETATM    8  C20 UNL     1      22.907   0.694  53.522  1.00  0.00     0.062 C 
HETATM    9  H9  UNL     1      20.046   2.114  53.027  1.00  0.00     0.160 HD
ENDROOT
BRANCH   3  10
HETATM   10  C4  UNL     1      19.411  -0.671  53.408  1.00  0.00     0.047 C 
BRANCH  10  11
HETATM   11  C5  UNL     1      18.240  -0.916  52.905  1.00  0.00     0.047 A 
HETATM   12  C6  UNL     1      17.701   0.188  52.096  1.00  0.00     0.257 A 
HETATM   13  O1  UNL     1      17.789   1.317  51.607  1.00  0.00    -0.267 OA
HETATM   14  N1  UNL     1      16.426  -0.347  51.676  1.00  0.00    -0.322 N 
HETATM   15  C7  UNL     1      16.249  -1.668  52.209  1.00  0.00     0.046 A 
HETATM   16  H5  UNL     1      15.606  -0.033  51.094  1.00  0.00     0.169 HD
HETATM   17  C8  UNL     1      15.291  -2.668  52.173  1.00  0.00     0.033 A 
HETATM   18  C12 UNL     1      17.334  -2.033  52.956  1.00  0.00     0.009 A 
HETATM   19  C9  UNL     1      15.395  -3.881  52.801  1.00  0.00     0.044 A 
HETATM   20  C10 UNL     1      16.502  -4.182  53.530  1.00  0.00     0.117 A 
HETATM   21  F1  UNL     1      16.672  -5.360  54.173  1.00  0.00    -0.206 F 
HETATM   22  C11 UNL     1      17.485  -3.237  53.605  1.00  0.00     0.057 A 
ENDBRANCH  10  11
ENDBRANCH   3  10
BRANCH   7  23
HETATM   23  N3  UNL     1      24.192   1.367  51.576  1.00  0.00    -0.413 N 
HETATM   24  H15 UNL     1      24.301   1.671  50.611  1.00  0.00     0.153 HD
BRANCH  23  25
HETATM   25  C16 UNL     1      25.332   0.846  52.241  1.00  0.00     0.135 C 
BRANCH  25  26
HETATM   26  C17 UNL     1      26.331   1.950  52.487  1.00  0.00     0.165 C 
BRANCH  26  27
HETATM   27  N4  UNL     1      27.347   1.520  53.460  1.00  0.00    -0.282 N 
HETATM   28  C18 UNL     1      27.547   0.268  53.965  1.00  0.00     0.128 A 
HETATM   29  C19 UNL     1      28.646   0.437  54.817  1.00  0.00     0.154 A 
HETATM   30  N5  UNL     1      29.046   1.719  54.797  1.00  0.00    -0.171 NA
HETATM   31  N6  UNL     1      28.247   2.365  53.968  1.00  0.00     0.004 NA
ENDBRANCH  26  27
ENDBRANCH  25  26
ENDBRANCH  23  25
ENDBRANCH   7  23
TORSDOF 6
ENDMDL
MODEL 6
REMARK VINA RESULT:      -8.3      4.223      8.409
REMARK  6 active torsions:
REMARK  status: ('A' for Active; 'I' for Inactive)
REMARK    1  A    between atoms: C3_3  and  C4_4 
REMARK    2  A    between atoms: C4_4  and  C5_5 
REMARK    3  A    between atoms: C15_19  and  N3_20 
REMARK    4  A    between atoms: N3_20  and  C16_21 
REMARK    5  A    between atoms: C16_21  and  C17_22 
REMARK    6  A    between atoms: C17_22  and  N4_23 
ROOT
HETATM    1  C1  UNL     1      26.697   3.240  49.459  1.00  0.00     0.046 C 
HETATM    2  C2  UNL     1      25.365   3.241  50.121  1.00  0.00    -0.055 C 
HETATM    3  C3  UNL     1      24.610   4.362  50.107  1.00  0.00     0.031 C 
HETATM    4  N2  UNL     1      23.339   4.165  50.775  1.00  0.00    -0.383 N 
HETATM    5  C13 UNL     1      23.255   3.654  52.157  1.00  0.00     0.100 C 
HETATM    6  C14 UNL     1      23.315   4.807  53.101  1.00  0.00     0.034 C 
HETATM    7  C15 UNL     1      24.343   2.652  52.272  1.00  0.00     0.102 C 
HETATM    8  C20 UNL     1      24.665   2.132  50.883  1.00  0.00     0.062 C 
HETATM    9  H9  UNL     1      22.464   4.400  50.212  1.00  0.00     0.160 HD
ENDROOT
BRANCH   3  10
HETATM   10  C4  UNL     1      24.981   5.604  49.491  1.00  0.00     0.047 C 
BRANCH  10  11
HETATM   11  C5  UNL     1      25.612   6.733  49.594  1.00  0.00     0.047 A 
HETATM   12  C6  UNL     1      24.897   7.741  50.389  1.00  0.00     0.257 A 
HETATM   13  O1  UNL     1      23.930   8.102  51.066  1.00  0.00    -0.267 OA
HETATM   14  N1  UNL     1      25.807   8.863  50.337  1.00  0.00    -0.322 N 
HETATM   15  C7  UNL     1      26.965   8.517  49.563  1.00  0.00     0.046 A 
HETATM   16  H5  UNL     1      25.848   9.847  50.708  1.00  0.00     0.169 HD
HETATM   17  C8  UNL     1      28.145   9.120  49.159  1.00  0.00     0.033 A 
HETATM   18  C12 UNL     1      26.870   7.234  49.103  1.00  0.00     0.009 A 
HETATM   19  C9  UNL     1      29.112   8.525  48.393  1.00  0.00     0.044 A 
HETATM   20  C10 UNL     1      28.955   7.244  47.967  1.00  0.00     0.117 A 
HETATM   21  F1  UNL     1      29.869   6.594  47.211  1.00  0.00    -0.206 F 
HETATM   22  C11 UNL     1      27.812   6.592  48.332  1.00  0.00     0.057 A 
ENDBRANCH  10  11
ENDBRANCH   3  10
BRANCH   7  23
HETATM   23  N3  UNL     1      24.218   1.612  53.212  1.00  0.00    -0.413 N 
HETATM   24  H15 UNL     1      23.913   1.826  54.158  1.00  0.00     0.153 HD
BRANCH  23  25
HETATM   25  C16 UNL     1      25.055   0.481  53.023  1.00  0.00     0.135 C 
BRANCH  25  26
HETATM   26  C17 UNL     1      25.807   0.183  54.298  1.00  0.00     0.165 C 
BRANCH  26  27
HETATM   27  N4  UNL     1      27.114   0.857  54.296  1.00  0.00    -0.282 N 
HETATM   28  C18 UNL     1      28.348   0.295  54.456  1.00  0.00     0.128 A 
HETATM   29  C19 UNL     1      29.217   1.388  54.344  1.00  0.00     0.154 A 
HETATM   30  N5  UNL     1      28.511   2.511  54.133  1.00  0.00    -0.171 NA
HETATM   31  N6  UNL     1      27.236   2.173  54.107  1.00  0.00     0.004 NA
ENDBRANCH  26  27
ENDBRANCH  25  26
ENDBRANCH  23  25
ENDBRANCH   7  23
TORSDOF 6
ENDMDL
MODEL 7
REMARK VINA RESULT:      -8.1      4.375      6.222
REMARK  6 active torsions:
REMARK  status: ('A' for Active; 'I' for Inactive)
REMARK    1  A    between atoms: C3_3  and  C4_4 
REMARK    2  A    between atoms: C4_4  and  C5_5 
REMARK    3  A    between atoms: C15_19  and  N3_20 
REMARK    4  A    between atoms: N3_20  and  C16_21 
REMARK    5  A    between atoms: C16_21  and  C17_22 
REMARK    6  A    between atoms: C17_22  and  N4_23 
ROOT
HETATM    1  C1  UNL     1      27.130   4.179  49.043  1.00  0.00     0.046 C 
HETATM    2  C2  UNL     1      25.742   4.231  49.575  1.00  0.00    -0.055 C 
HETATM    3  C3  UNL     1      25.415   3.506  50.668  1.00  0.00     0.031 C 
HETATM    4  N2  UNL     1      24.032   3.705  51.054  1.00  0.00    -0.383 N 
HETATM    5  C13 UNL     1      22.921   3.504  50.104  1.00  0.00     0.100 C 
HETATM    6  C14 UNL     1      22.494   2.076  50.157  1.00  0.00     0.034 C 
HETATM    7  C15 UNL     1      23.428   3.990  48.797  1.00  0.00     0.102 C 
HETATM    8  C20 UNL     1      24.537   4.993  49.056  1.00  0.00     0.062 C 
HETATM    9  H9  UNL     1      23.858   4.013  52.060  1.00  0.00     0.160 HD
ENDROOT
BRANCH   3  10
HETATM   10  C4  UNL     1      26.311   2.654  51.397  1.00  0.00     0.047 C 
BRANCH  10  11
HETATM   11  C5  UNL     1      26.525   1.942  52.461  1.00  0.00     0.047 A 
HETATM   12  C6  UNL     1      27.826   2.201  53.095  1.00  0.00     0.257 A 
HETATM   13  O1  UNL     1      28.908   2.791  53.146  1.00  0.00    -0.267 OA
HETATM   14  N1  UNL     1      27.794   1.296  54.221  1.00  0.00    -0.322 N 
HETATM   15  C7  UNL     1      26.556   0.570  54.230  1.00  0.00     0.046 A 
HETATM   16  H5  UNL     1      28.423   1.033  55.023  1.00  0.00     0.169 HD
HETATM   17  C8  UNL     1      25.940  -0.396  55.009  1.00  0.00     0.033 A 
HETATM   18  C12 UNL     1      25.772   0.943  53.174  1.00  0.00     0.009 A 
HETATM   19  C9  UNL     1      24.700  -0.927  54.770  1.00  0.00     0.044 A 
HETATM   20  C10 UNL     1      23.971  -0.512  53.701  1.00  0.00     0.117 A 
HETATM   21  F1  UNL     1      22.741  -0.991  53.407  1.00  0.00    -0.206 F 
HETATM   22  C11 UNL     1      24.523   0.440  52.892  1.00  0.00     0.057 A 
ENDBRANCH  10  11
ENDBRANCH   3  10
BRANCH   7  23
HETATM   23  N3  UNL     1      22.510   4.453  47.836  1.00  0.00    -0.413 N 
HETATM   24  H15 UNL     1      21.875   5.210  48.074  1.00  0.00     0.153 HD
BRANCH  23  25
HETATM   25  C16 UNL     1      22.088   3.516  46.858  1.00  0.00     0.135 C 
BRANCH  25  26
HETATM   26  C17 UNL     1      20.598   3.634  46.644  1.00  0.00     0.165 C 
BRANCH  26  27
HETATM   27  N4  UNL     1      20.281   3.645  45.208  1.00  0.00    -0.282 N 
HETATM   28  C18 UNL     1      19.049   3.664  44.621  1.00  0.00     0.128 A 
HETATM   29  C19 UNL     1      19.345   3.691  43.252  1.00  0.00     0.154 A 
HETATM   30  N5  UNL     1      20.676   3.685  43.073  1.00  0.00    -0.171 NA
HETATM   31  N6  UNL     1      21.231   3.657  44.270  1.00  0.00     0.004 NA
ENDBRANCH  26  27
ENDBRANCH  25  26
ENDBRANCH  23  25
ENDBRANCH   7  23
TORSDOF 6
ENDMDL
MODEL 8
REMARK VINA RESULT:      -8.0      3.694      6.618
REMARK  6 active torsions:
REMARK  status: ('A' for Active; 'I' for Inactive)
REMARK    1  A    between atoms: C3_3  and  C4_4 
REMARK    2  A    between atoms: C4_4  and  C5_5 
REMARK    3  A    between atoms: C15_19  and  N3_20 
REMARK    4  A    between atoms: N3_20  and  C16_21 
REMARK    5  A    between atoms: C16_21  and  C17_22 
REMARK    6  A    between atoms: C17_22  and  N4_23 
ROOT
HETATM    1  C1  UNL     1      26.649   3.035  50.264  1.00  0.00     0.046 C 
HETATM    2  C2  UNL     1      25.418   2.925  51.092  1.00  0.00    -0.055 C 
HETATM    3  C3  UNL     1      25.511   2.537  52.383  1.00  0.00     0.031 C 
HETATM    4  N2  UNL     1      24.216   2.515  53.034  1.00  0.00    -0.383 N 
HETATM    5  C13 UNL     1      23.077   1.759  52.479  1.00  0.00     0.100 C 
HETATM    6  C14 UNL     1      23.116   0.367  53.013  1.00  0.00     0.034 C 
HETATM    7  C15 UNL     1      23.190   1.902  51.006  1.00  0.00     0.102 C 
HETATM    8  C20 UNL     1      23.971   3.168  50.706  1.00  0.00     0.062 C 
HETATM    9  H9  UNL     1      24.126   3.082  53.933  1.00  0.00     0.160 HD
ENDROOT
BRANCH   3  10
HETATM   10  C4  UNL     1      26.730   2.206  53.064  1.00  0.00     0.047 C 
BRANCH  10  11
HETATM   11  C5  UNL     1      27.651   1.321  53.294  1.00  0.00     0.047 A 
HETATM   12  C6  UNL     1      28.848   1.870  53.950  1.00  0.00     0.257 A 
HETATM   13  O1  UNL     1      29.483   2.809  54.434  1.00  0.00    -0.267 OA
HETATM   14  N1  UNL     1      29.681   0.696  54.079  1.00  0.00    -0.322 N 
HETATM   15  C7  UNL     1      29.004  -0.447  53.535  1.00  0.00     0.046 A 
HETATM   16  H5  UNL     1      30.633   0.458  54.460  1.00  0.00     0.169 HD
HETATM   17  C8  UNL     1      29.251  -1.799  53.366  1.00  0.00     0.033 A 
HETATM   18  C12 UNL     1      27.775  -0.093  53.054  1.00  0.00     0.009 A 
HETATM   19  C9  UNL     1      28.385  -2.692  52.791  1.00  0.00     0.044 A 
HETATM   20  C10 UNL     1      27.176  -2.275  52.332  1.00  0.00     0.117 A 
HETATM   21  F1  UNL     1      26.273  -3.100  51.756  1.00  0.00    -0.206 F 
HETATM   22  C11 UNL     1      26.872  -0.950  52.468  1.00  0.00     0.057 A 
ENDBRANCH  10  11
ENDBRANCH   3  10
BRANCH   7  23
HETATM   23  N3  UNL     1      22.030   1.796  50.217  1.00  0.00    -0.413 N 
HETATM   24  H15 UNL     1      21.460   0.956  50.274  1.00  0.00     0.153 HD
BRANCH  23  25
HETATM   25  C16 UNL     1      22.021   2.523  48.999  1.00  0.00     0.135 C 
BRANCH  25  26
HETATM   26  C17 UNL     1      20.836   3.458  48.968  1.00  0.00     0.165 C 
BRANCH  26  27
HETATM   27  N4  UNL     1      19.957   3.217  50.122  1.00  0.00    -0.282 N 
HETATM   28  C18 UNL     1      18.867   2.398  50.190  1.00  0.00     0.128 A 
HETATM   29  C19 UNL     1      18.439   2.540  51.516  1.00  0.00     0.154 A 
HETATM   30  N5  UNL     1      19.245   3.396  52.166  1.00  0.00    -0.171 NA
HETATM   31  N6  UNL     1      20.162   3.799  51.306  1.00  0.00     0.004 NA
ENDBRANCH  26  27
ENDBRANCH  25  26
ENDBRANCH  23  25
ENDBRANCH   7  23
TORSDOF 6
ENDMDL
MODEL 9
REMARK VINA RESULT:      -8.0      3.734      7.906
REMARK  6 active torsions:
REMARK  status: ('A' for Active; 'I' for Inactive)
REMARK    1  A    between atoms: C3_3  and  C4_4 
REMARK    2  A    between atoms: C4_4  and  C5_5 
REMARK    3  A    between atoms: C15_19  and  N3_20 
REMARK    4  A    between atoms: N3_20  and  C16_21 
REMARK    5  A    between atoms: C16_21  and  C17_22 
REMARK    6  A    between atoms: C17_22  and  N4_23 
ROOT
HETATM    1  C1  UNL     1      21.383   3.279  51.143  1.00  0.00     0.046 C 
HETATM    2  C2  UNL     1      22.736   3.135  51.744  1.00  0.00    -0.055 C 
HETATM    3  C3  UNL     1      23.709   4.018  51.428  1.00  0.00     0.031 C 
HETATM    4  N2  UNL     1      24.944   3.734  52.129  1.00  0.00    -0.383 N 
HETATM    5  C13 UNL     1      25.587   2.407  52.071  1.00  0.00     0.100 C 
HETATM    6  C14 UNL     1      26.508   2.368  50.899  1.00  0.00     0.034 C 
HETATM    7  C15 UNL     1      24.470   1.430  52.062  1.00  0.00     0.102 C 
HETATM    8  C20 UNL     1      23.258   2.081  52.702  1.00  0.00     0.062 C 
HETATM    9  H9  UNL     1      25.363   4.533  52.699  1.00  0.00     0.160 HD
ENDROOT
BRANCH   3  10
HETATM   10  C4  UNL     1      23.561   5.129  50.531  1.00  0.00     0.047 C 
BRANCH  10  11
HETATM   11  C5  UNL     1      24.129   6.106  49.892  1.00  0.00     0.047 A 
HETATM   12  C6  UNL     1      23.313   7.327  49.832  1.00  0.00     0.257 A 
HETATM   13  O1  UNL     1      22.286   7.959  50.094  1.00  0.00    -0.267 OA
HETATM   14  N1  UNL     1      24.169   8.220  49.086  1.00  0.00    -0.322 N 
HETATM   15  C7  UNL     1      25.393   7.554  48.744  1.00  0.00     0.046 A 
HETATM   16  H5  UNL     1      24.137   9.212  48.733  1.00  0.00     0.169 HD
HETATM   17  C8  UNL     1      26.567   7.848  48.070  1.00  0.00     0.033 A 
HETATM   18  C12 UNL     1      25.391   6.272  49.220  1.00  0.00     0.009 A 
HETATM   19  C9  UNL     1      27.611   6.980  47.891  1.00  0.00     0.044 A 
HETATM   20  C10 UNL     1      27.546   5.718  48.391  1.00  0.00     0.117 A 
HETATM   21  F1  UNL     1      28.540   4.810  48.254  1.00  0.00    -0.206 F 
HETATM   22  C11 UNL     1      26.413   5.364  49.067  1.00  0.00     0.057 A 
ENDBRANCH  10  11
ENDBRANCH   3  10
BRANCH   7  23
HETATM   23  N3  UNL     1      24.695   0.130  52.554  1.00  0.00    -0.413 N 
HETATM   24  H15 UNL     1      24.552  -0.669  51.941  1.00  0.00     0.153 HD
BRANCH  23  25
HETATM   25  C16 UNL     1      24.513  -0.062  53.948  1.00  0.00     0.135 C 
BRANCH  25  26
HETATM   26  C17 UNL     1      25.703  -0.792  54.523  1.00  0.00     0.165 C 
BRANCH  26  27
HETATM   27  N4  UNL     1      26.931  -0.005  54.337  1.00  0.00    -0.282 N 
HETATM   28  C18 UNL     1      28.074  -0.374  53.688  1.00  0.00     0.128 A 
HETATM   29  C19 UNL     1      28.889   0.760  53.801  1.00  0.00     0.154 A 
HETATM   30  N5  UNL     1      28.242   1.721  54.481  1.00  0.00    -0.171 NA
HETATM   31  N6  UNL     1      27.054   1.242  54.800  1.00  0.00     0.004 NA
ENDBRANCH  26  27
ENDBRANCH  25  26
ENDBRANCH  23  25
ENDBRANCH   7  23
TORSDOF 6
ENDMDL
