MODEL 1
REMARK VINA RESULT:      -6.3      0.000      0.000
REMARK  5 active torsions:
REMARK  status: ('A' for Active; 'I' for Inactive)
REMARK    1  A    between atoms: O1_2  and  C2_3 
REMARK    2  A    between atoms: C2_3  and  C3_4 
REMARK    3  A    between atoms: C3_4  and  C4_5 
REMARK    4  A    between atoms: C7_10  and  C8_11 
REMARK    5  A    between atoms: C16_21  and  O3_22 
ROOT
HETATM    1  C8  UNL     1      23.929   2.732  50.886  1.00  0.00     0.126 C 
HETATM    2  C9  UNL     1      23.310   3.825  51.649  1.00  0.00     0.096 C 
HETATM    3  O2  UNL     1      23.097   3.321  52.866  1.00  0.00    -0.199 OA
HETATM    4  C10 UNL     1      22.933   5.289  51.245  1.00  0.00     0.060 A 
HETATM    5  C11 UNL     1      23.904   6.280  51.424  1.00  0.00    -0.012 A 
HETATM    6  C12 UNL     1      23.700   6.015  49.894  1.00  0.00     0.074 A 
HETATM    7  S1  UNL     1      22.541   4.840  49.720  1.00  0.00    -0.226 SA
HETATM    8  C13 UNL     1      20.934   5.282  50.633  1.00  0.00     0.009 A 
HETATM    9  C14 UNL     1      21.736   6.224  50.829  1.00  0.00     0.081 A 
HETATM   10  C15 UNL     1      22.677   3.277  48.790  1.00  0.00     0.085 C 
HETATM   11  C16 UNL     1      23.185   2.162  49.719  1.00  0.00     0.144 C 
ENDROOT
BRANCH   1  12
HETATM   12  C7  UNL     1      23.956   1.531  51.799  1.00  0.00     0.060 A 
HETATM   13  C4  UNL     1      25.187   1.095  52.106  1.00  0.00     0.009 A 
HETATM   14  C5  UNL     1      25.249   0.001  52.924  1.00  0.00     0.131 A 
HETATM   15  N1  UNL     1      24.142  -0.591  53.385  1.00  0.00    -0.253 NA
HETATM   16  C6  UNL     1      22.915  -0.152  53.076  1.00  0.00     0.232 A 
HETATM   17  N2  UNL     1      22.870   0.912  52.281  1.00  0.00    -0.245 NA
BRANCH  13  18
HETATM   18  C3  UNL     1      26.379   1.717  51.608  1.00  0.00     0.039 C 
BRANCH  18  19
HETATM   19  C2  UNL     1      27.440   2.128  52.229  1.00  0.00     0.135 C 
BRANCH  19  20
HETATM   20  O1  UNL     1      28.513   2.481  52.981  1.00  0.00    -0.368 OA
HETATM   21  C1  UNL     1      28.985   1.664  54.052  1.00  0.00     0.208 C 
ENDBRANCH  19  20
ENDBRANCH  18  19
ENDBRANCH  13  18
ENDBRANCH   1  12
BRANCH  11  22
HETATM   22  O3  UNL     1      22.049   1.539  50.245  1.00  0.00    -0.389 OA
HETATM   23  C17 UNL     1      21.191   1.115  49.228  1.00  0.00     0.202 C 
ENDBRANCH  11  22
TORSDOF 5
ENDMDL
MODEL 2
REMARK VINA RESULT:      -6.2      1.885      2.342
REMARK  5 active torsions:
REMARK  status: ('A' for Active; 'I' for Inactive)
REMARK    1  A    between atoms: O1_2  and  C2_3 
REMARK    2  A    between atoms: C2_3  and  C3_4 
REMARK    3  A    between atoms: C3_4  and  C4_5 
REMARK    4  A    between atoms: C7_10  and  C8_11 
REMARK    5  A    between atoms: C16_21  and  O3_22 
ROOT
HETATM    1  C8  UNL     1      23.006   1.068  51.566  1.00  0.00     0.126 C 
HETATM    2  C9  UNL     1      23.173   2.504  51.832  1.00  0.00     0.096 C 
HETATM    3  O2  UNL     1      22.926   2.646  53.135  1.00  0.00    -0.199 OA
HETATM    4  C10 UNL     1      23.550   3.696  50.891  1.00  0.00     0.060 A 
HETATM    5  C11 UNL     1      24.907   3.997  50.741  1.00  0.00    -0.012 A 
HETATM    6  C12 UNL     1      24.355   3.381  49.412  1.00  0.00     0.074 A 
HETATM    7  S1  UNL     1      22.746   3.042  49.625  1.00  0.00    -0.226 SA
HETATM    8  C13 UNL     1      21.768   4.560  50.219  1.00  0.00     0.009 A 
HETATM    9  C14 UNL     1      22.962   4.919  50.093  1.00  0.00     0.081 A 
HETATM   10  C15 UNL     1      21.902   1.447  49.353  1.00  0.00     0.085 C 
HETATM   11  C16 UNL     1      21.900   0.632  50.656  1.00  0.00     0.144 C 
ENDROOT
BRANCH   1  12
HETATM   12  C7  UNL     1      22.552   0.441  52.861  1.00  0.00     0.060 A 
HETATM   13  C4  UNL     1      23.479  -0.318  53.465  1.00  0.00     0.009 A 
HETATM   14  C5  UNL     1      23.099  -0.912  54.637  1.00  0.00     0.131 A 
HETATM   15  N1  UNL     1      21.872  -0.739  55.142  1.00  0.00    -0.253 NA
HETATM   16  C6  UNL     1      20.950   0.020  54.535  1.00  0.00     0.232 A 
HETATM   17  N2  UNL     1      21.334   0.590  53.398  1.00  0.00    -0.245 NA
BRANCH  13  18
HETATM   18  C3  UNL     1      24.793  -0.518  52.925  1.00  0.00     0.039 C 
BRANCH  18  19
HETATM   19  C2  UNL     1      25.927  -0.721  53.518  1.00  0.00     0.135 C 
BRANCH  19  20
HETATM   20  O1  UNL     1      27.054  -0.900  54.253  1.00  0.00    -0.368 OA
HETATM   21  C1  UNL     1      27.874   0.197  54.656  1.00  0.00     0.208 C 
ENDBRANCH  19  20
ENDBRANCH  18  19
ENDBRANCH  13  18
ENDBRANCH   1  12
BRANCH  11  22
HETATM   22  O3  UNL     1      20.706   0.943  51.315  1.00  0.00    -0.389 OA
HETATM   23  C17 UNL     1      19.642   1.026  50.414  1.00  0.00     0.202 C 
ENDBRANCH  11  22
TORSDOF 5
ENDMDL
MODEL 3
REMARK VINA RESULT:      -6.0      2.334      3.932
REMARK  5 active torsions:
REMARK  status: ('A' for Active; 'I' for Inactive)
REMARK    1  A    between atoms: O1_2  and  C2_3 
REMARK    2  A    between atoms: C2_3  and  C3_4 
REMARK    3  A    between atoms: C3_4  and  C4_5 
REMARK    4  A    between atoms: C7_10  and  C8_11 
REMARK    5  A    between atoms: C16_21  and  O3_22 
ROOT
HETATM    1  C8  UNL     1      23.032   2.741  51.777  1.00  0.00     0.126 C 
HETATM    2  C9  UNL     1      22.224   2.062  50.754  1.00  0.00     0.096 C 
HETATM    3  O2  UNL     1      23.070   1.815  49.752  1.00  0.00    -0.199 OA
HETATM    4  C10 UNL     1      20.711   1.663  50.723  1.00  0.00     0.060 A 
HETATM    5  C11 UNL     1      20.364   0.407  51.227  1.00  0.00    -0.012 A 
HETATM    6  C12 UNL     1      19.846   1.523  52.195  1.00  0.00     0.074 A 
HETATM    7  S1  UNL     1      20.272   2.997  51.564  1.00  0.00    -0.226 SA
HETATM    8  C13 UNL     1      19.669   3.208  49.774  1.00  0.00     0.009 A 
HETATM    9  C14 UNL     1      19.302   2.072  50.152  1.00  0.00     0.081 A 
HETATM   10  C15 UNL     1      21.201   4.331  52.391  1.00  0.00     0.085 C 
HETATM   11  C16 UNL     1      22.705   4.161  52.123  1.00  0.00     0.144 C 
ENDROOT
BRANCH   1  12
HETATM   12  C7  UNL     1      24.410   2.919  51.188  1.00  0.00     0.060 A 
HETATM   13  C4  UNL     1      25.392   2.326  51.885  1.00  0.00     0.009 A 
HETATM   14  C5  UNL     1      26.657   2.476  51.387  1.00  0.00     0.131 A 
HETATM   15  N1  UNL     1      26.889   3.174  50.269  1.00  0.00    -0.253 NA
HETATM   16  C6  UNL     1      25.906   3.764  49.577  1.00  0.00     0.232 A 
HETATM   17  N2  UNL     1      24.683   3.610  50.074  1.00  0.00    -0.245 NA
BRANCH  13  18
HETATM   18  C3  UNL     1      25.153   1.585  53.090  1.00  0.00     0.039 C 
BRANCH  18  19
HETATM   19  C2  UNL     1      25.956   1.254  54.051  1.00  0.00     0.135 C 
BRANCH  19  20
HETATM   20  O1  UNL     1      26.892   0.977  54.994  1.00  0.00    -0.368 OA
HETATM   21  C1  UNL     1      28.060   0.212  54.695  1.00  0.00     0.208 C 
ENDBRANCH  19  20
ENDBRANCH  18  19
ENDBRANCH  13  18
ENDBRANCH   1  12
BRANCH  11  22
HETATM   22  O3  UNL     1      22.990   4.917  50.981  1.00  0.00    -0.389 OA
HETATM   23  C17 UNL     1      22.305   6.134  51.001  1.00  0.00     0.202 C 
ENDBRANCH  11  22
TORSDOF 5
ENDMDL
MODEL 4
REMARK VINA RESULT:      -5.9      2.782      5.755
REMARK  5 active torsions:
REMARK  status: ('A' for Active; 'I' for Inactive)
REMARK    1  A    between atoms: O1_2  and  C2_3 
REMARK    2  A    between atoms: C2_3  and  C3_4 
REMARK    3  A    between atoms: C3_4  and  C4_5 
REMARK    4  A    between atoms: C7_10  and  C8_11 
REMARK    5  A    between atoms: C16_21  and  O3_22 
ROOT
HETATM    1  C8  UNL     1      24.642   1.896  52.212  1.00  0.00     0.126 C 
HETATM    2  C9  UNL     1      25.401   2.089  53.457  1.00  0.00     0.096 C 
HETATM    3  O2  UNL     1      24.816   3.124  54.062  1.00  0.00    -0.199 OA
HETATM    4  C10 UNL     1      26.630   1.325  54.052  1.00  0.00     0.060 A 
HETATM    5  C11 UNL     1      26.371   0.225  54.876  1.00  0.00    -0.012 A 
HETATM    6  C12 UNL     1      26.973  -0.267  53.517  1.00  0.00     0.074 A 
HETATM    7  S1  UNL     1      27.270   1.061  52.568  1.00  0.00    -0.226 SA
HETATM    8  C13 UNL     1      28.356   2.344  53.456  1.00  0.00     0.009 A 
HETATM    9  C14 UNL     1      28.190   1.391  54.252  1.00  0.00     0.081 A 
HETATM   10  C15 UNL     1      26.683   1.364  50.867  1.00  0.00     0.085 C 
HETATM   11  C16 UNL     1      25.342   2.113  50.907  1.00  0.00     0.144 C 
ENDROOT
BRANCH   1  12
HETATM   12  C7  UNL     1      23.619   3.004  52.156  1.00  0.00     0.060 A 
HETATM   13  C4  UNL     1      22.345   2.584  52.175  1.00  0.00     0.009 A 
HETATM   14  C5  UNL     1      21.390   3.561  52.114  1.00  0.00     0.131 A 
HETATM   15  N1  UNL     1      21.719   4.856  52.042  1.00  0.00    -0.253 NA
HETATM   16  C6  UNL     1      22.993   5.270  52.023  1.00  0.00     0.232 A 
HETATM   17  N2  UNL     1      23.909   4.310  52.083  1.00  0.00    -0.245 NA
BRANCH  13  18
HETATM   18  C3  UNL     1      21.984   1.198  52.242  1.00  0.00     0.039 C 
BRANCH  18  19
HETATM   19  C2  UNL     1      21.574   0.480  53.240  1.00  0.00     0.135 C 
BRANCH  19  20
HETATM   20  O1  UNL     1      21.090  -0.161  54.334  1.00  0.00    -0.368 OA
HETATM   21  C1  UNL     1      21.327  -1.551  54.560  1.00  0.00     0.208 C 
ENDBRANCH  19  20
ENDBRANCH  18  19
ENDBRANCH  13  18
ENDBRANCH   1  12
BRANCH  11  22
HETATM   22  O3  UNL     1      25.649   3.476  50.849  1.00  0.00    -0.389 OA
HETATM   23  C17 UNL     1      26.493   3.756  49.772  1.00  0.00     0.202 C 
ENDBRANCH  11  22
TORSDOF 5
ENDMDL
MODEL 5
REMARK VINA RESULT:      -5.9      8.470     10.732
REMARK  5 active torsions:
REMARK  status: ('A' for Active; 'I' for Inactive)
REMARK    1  A    between atoms: O1_2  and  C2_3 
REMARK    2  A    between atoms: C2_3  and  C3_4 
REMARK    3  A    between atoms: C3_4  and  C4_5 
REMARK    4  A    between atoms: C7_10  and  C8_11 
REMARK    5  A    between atoms: C16_21  and  O3_22 
ROOT
HETATM    1  C8  UNL     1      31.261   7.491  47.622  1.00  0.00     0.126 C 
HETATM    2  C9  UNL     1      32.363   7.511  48.594  1.00  0.00     0.096 C 
HETATM    3  O2  UNL     1      31.863   8.116  49.673  1.00  0.00    -0.199 OA
HETATM    4  C10 UNL     1      33.833   6.981  48.507  1.00  0.00     0.060 A 
HETATM    5  C11 UNL     1      34.069   5.661  48.904  1.00  0.00    -0.012 A 
HETATM    6  C12 UNL     1      34.229   5.780  47.351  1.00  0.00     0.074 A 
HETATM    7  S1  UNL     1      33.947   7.356  46.918  1.00  0.00    -0.226 SA
HETATM    8  C13 UNL     1      35.043   8.570  47.887  1.00  0.00     0.009 A 
HETATM    9  C14 UNL     1      35.330   7.418  48.288  1.00  0.00     0.081 A 
HETATM   10  C15 UNL     1      32.759   7.972  45.677  1.00  0.00     0.085 C 
HETATM   11  C16 UNL     1      31.411   8.270  46.353  1.00  0.00     0.144 C 
ENDROOT
BRANCH   1  12
HETATM   12  C7  UNL     1      30.112   8.235  48.259  1.00  0.00     0.060 A 
HETATM   13  C4  UNL     1      28.983   7.519  48.373  1.00  0.00     0.009 A 
HETATM   14  C5  UNL     1      27.917   8.165  48.936  1.00  0.00     0.131 A 
HETATM   15  N1  UNL     1      28.007   9.435  49.346  1.00  0.00    -0.253 NA
HETATM   16  C6  UNL     1      29.137  10.145  49.230  1.00  0.00     0.232 A 
HETATM   17  N2  UNL     1      30.164   9.505  48.681  1.00  0.00    -0.245 NA
BRANCH  13  18
HETATM   18  C3  UNL     1      28.875   6.160  47.927  1.00  0.00     0.039 C 
BRANCH  18  19
HETATM   19  C2  UNL     1      28.253   5.148  48.445  1.00  0.00     0.135 C 
BRANCH  19  20
HETATM   20  O1  UNL     1      27.490   4.136  48.930  1.00  0.00    -0.368 OA
HETATM   21  C1  UNL     1      26.207   4.371  49.511  1.00  0.00     0.208 C 
ENDBRANCH  19  20
ENDBRANCH  18  19
ENDBRANCH  13  18
ENDBRANCH   1  12
BRANCH  11  22
HETATM   22  O3  UNL     1      31.444   9.619  46.722  1.00  0.00    -0.389 OA
HETATM   23  C17 UNL     1      31.987  10.405  45.704  1.00  0.00     0.202 C 
ENDBRANCH  11  22
TORSDOF 5
ENDMDL
MODEL 6
REMARK VINA RESULT:      -5.9      2.351      2.973
REMARK  5 active torsions:
REMARK  status: ('A' for Active; 'I' for Inactive)
REMARK    1  A    between atoms: O1_2  and  C2_3 
REMARK    2  A    between atoms: C2_3  and  C3_4 
REMARK    3  A    between atoms: C3_4  and  C4_5 
REMARK    4  A    between atoms: C7_10  and  C8_11 
REMARK    5  A    between atoms: C16_21  and  O3_22 
ROOT
HETATM    1  C8  UNL     1      23.816   2.724  50.767  1.00  0.00     0.126 C 
HETATM    2  C9  UNL     1      23.070   3.894  51.253  1.00  0.00     0.096 C 
HETATM    3  O2  UNL     1      23.754   4.325  52.314  1.00  0.00    -0.199 OA
HETATM    4  C10 UNL     1      21.762   4.579  50.734  1.00  0.00     0.060 A 
HETATM    5  C11 UNL     1      21.897   5.590  49.777  1.00  0.00    -0.012 A 
HETATM    6  C12 UNL     1      21.260   4.321  49.116  1.00  0.00     0.074 A 
HETATM    7  S1  UNL     1      21.111   3.148  50.279  1.00  0.00    -0.226 SA
HETATM    8  C13 UNL     1      20.158   3.767  51.802  1.00  0.00     0.009 A 
HETATM    9  C14 UNL     1      20.216   4.722  50.993  1.00  0.00     0.081 A 
HETATM   10  C15 UNL     1      21.742   1.437  50.216  1.00  0.00     0.085 C 
HETATM   11  C16 UNL     1      23.154   1.381  50.820  1.00  0.00     0.144 C 
ENDROOT
BRANCH   1  12
HETATM   12  C7  UNL     1      24.949   2.503  51.739  1.00  0.00     0.060 A 
HETATM   13  C4  UNL     1      26.172   2.629  51.202  1.00  0.00     0.009 A 
HETATM   14  C5  UNL     1      27.225   2.425  52.051  1.00  0.00     0.131 A 
HETATM   15  N1  UNL     1      27.034   2.119  53.339  1.00  0.00    -0.253 NA
HETATM   16  C6  UNL     1      25.810   1.993  53.870  1.00  0.00     0.232 A 
HETATM   17  N2  UNL     1      24.798   2.194  53.033  1.00  0.00    -0.245 NA
BRANCH  13  18
HETATM   18  C3  UNL     1      26.386   2.948  49.820  1.00  0.00     0.039 C 
BRANCH  18  19
HETATM   19  C2  UNL     1      26.850   4.022  49.263  1.00  0.00     0.135 C 
BRANCH  19  20
HETATM   20  O1  UNL     1      27.236   5.137  48.592  1.00  0.00    -0.368 OA
HETATM   21  C1  UNL     1      28.612   5.437  48.357  1.00  0.00     0.208 C 
ENDBRANCH  19  20
ENDBRANCH  18  19
ENDBRANCH  13  18
ENDBRANCH   1  12
BRANCH  11  22
HETATM   22  O3  UNL     1      22.992   1.078  52.176  1.00  0.00    -0.389 OA
HETATM   23  C17 UNL     1      21.978   0.136  52.362  1.00  0.00     0.202 C 
ENDBRANCH  11  22
TORSDOF 5
ENDMDL
MODEL 7
REMARK VINA RESULT:      -5.8      1.659      1.896
REMARK  5 active torsions:
REMARK  status: ('A' for Active; 'I' for Inactive)
REMARK    1  A    between atoms: O1_2  and  C2_3 
REMARK    2  A    between atoms: C2_3  and  C3_4 
REMARK    3  A    between atoms: C3_4  and  C4_5 
REMARK    4  A    between atoms: C7_10  and  C8_11 
REMARK    5  A    between atoms: C16_21  and  O3_22 
ROOT
HETATM    1  C8  UNL     1      23.071   2.313  51.424  1.00  0.00     0.126 C 
HETATM    2  C9  UNL     1      22.449   3.599  51.772  1.00  0.00     0.096 C 
HETATM    3  O2  UNL     1      21.539   3.303  52.701  1.00  0.00    -0.199 OA
HETATM    4  C10 UNL     1      22.704   5.050  51.246  1.00  0.00     0.060 A 
HETATM    5  C11 UNL     1      23.667   5.818  51.908  1.00  0.00    -0.012 A 
HETATM    6  C12 UNL     1      24.195   5.423  50.488  1.00  0.00     0.074 A 
HETATM    7  S1  UNL     1      23.028   4.519  49.732  1.00  0.00    -0.226 SA
HETATM    8  C13 UNL     1      21.349   5.408  49.694  1.00  0.00     0.009 A 
HETATM    9  C14 UNL     1      22.152   6.168  50.284  1.00  0.00     0.081 A 
HETATM   10  C15 UNL     1      23.215   2.863  48.988  1.00  0.00     0.085 C 
HETATM   11  C16 UNL     1      22.894   1.784  50.035  1.00  0.00     0.144 C 
ENDROOT
BRANCH   1  12
HETATM   12  C7  UNL     1      22.337   1.254  52.210  1.00  0.00     0.060 A 
HETATM   13  C4  UNL     1      23.121   0.511  53.006  1.00  0.00     0.009 A 
HETATM   14  C5  UNL     1      22.491  -0.467  53.725  1.00  0.00     0.131 A 
HETATM   15  N1  UNL     1      21.170  -0.661  53.633  1.00  0.00    -0.253 NA
HETATM   16  C6  UNL     1      20.392   0.083  52.836  1.00  0.00     0.232 A 
HETATM   17  N2  UNL     1      21.018   1.029  52.144  1.00  0.00    -0.245 NA
BRANCH  13  18
HETATM   18  C3  UNL     1      24.538   0.706  53.103  1.00  0.00     0.039 C 
BRANCH  18  19
HETATM   19  C2  UNL     1      25.433   0.066  53.788  1.00  0.00     0.135 C 
BRANCH  19  20
HETATM   20  O1  UNL     1      26.423  -0.486  54.535  1.00  0.00    -0.368 OA
HETATM   21  C1  UNL     1      27.661   0.188  54.762  1.00  0.00     0.208 C 
ENDBRANCH  19  20
ENDBRANCH  18  19
ENDBRANCH  13  18
ENDBRANCH   1  12
BRANCH  11  22
HETATM   22  O3  UNL     1      21.533   1.493  49.897  1.00  0.00    -0.389 OA
HETATM   23  C17 UNL     1      21.164   1.442  48.551  1.00  0.00     0.202 C 
ENDBRANCH  11  22
TORSDOF 5
ENDMDL
MODEL 8
REMARK VINA RESULT:      -5.6      2.187      4.194
REMARK  5 active torsions:
REMARK  status: ('A' for Active; 'I' for Inactive)
REMARK    1  A    between atoms: O1_2  and  C2_3 
REMARK    2  A    between atoms: C2_3  and  C3_4 
REMARK    3  A    between atoms: C3_4  and  C4_5 
REMARK    4  A    between atoms: C7_10  and  C8_11 
REMARK    5  A    between atoms: C16_21  and  O3_22 
ROOT
HETATM    1  C8  UNL     1      22.818   3.346  51.215  1.00  0.00     0.126 C 
HETATM    2  C9  UNL     1      22.384   3.241  49.814  1.00  0.00     0.096 C 
HETATM    3  O2  UNL     1      23.377   2.605  49.191  1.00  0.00    -0.199 OA
HETATM    4  C10 UNL     1      21.082   3.723  49.093  1.00  0.00     0.060 A 
HETATM    5  C11 UNL     1      19.999   2.838  49.054  1.00  0.00    -0.012 A 
HETATM    6  C12 UNL     1      19.670   4.029  50.016  1.00  0.00     0.074 A 
HETATM    7  S1  UNL     1      20.972   5.057  50.034  1.00  0.00    -0.226 SA
HETATM    8  C13 UNL     1      21.468   5.612  48.286  1.00  0.00     0.009 A 
HETATM    9  C14 UNL     1      20.487   4.843  48.161  1.00  0.00     0.081 A 
HETATM   10  C15 UNL     1      21.894   5.654  51.491  1.00  0.00     0.085 C 
HETATM   11  C16 UNL     1      23.067   4.707  51.787  1.00  0.00     0.144 C 
ENDROOT
BRANCH   1  12
HETATM   12  C7  UNL     1      24.211   2.769  51.278  1.00  0.00     0.060 A 
HETATM   13  C4  UNL     1      24.336   1.711  52.094  1.00  0.00     0.009 A 
HETATM   14  C5  UNL     1      25.588   1.168  52.184  1.00  0.00     0.131 A 
HETATM   15  N1  UNL     1      26.619   1.670  51.495  1.00  0.00    -0.253 NA
HETATM   16  C6  UNL     1      26.488   2.726  50.682  1.00  0.00     0.232 A 
HETATM   17  N2  UNL     1      25.267   3.243  50.604  1.00  0.00    -0.245 NA
BRANCH  13  18
HETATM   18  C3  UNL     1      23.239   1.173  52.845  1.00  0.00     0.039 C 
BRANCH  18  19
HETATM   19  C2  UNL     1      22.978  -0.045  53.203  1.00  0.00     0.135 C 
BRANCH  19  20
HETATM   20  O1  UNL     1      22.578  -1.281  53.594  1.00  0.00    -0.368 OA
HETATM   21  C1  UNL     1      21.392  -1.482  54.363  1.00  0.00     0.208 C 
ENDBRANCH  19  20
ENDBRANCH  18  19
ENDBRANCH  13  18
ENDBRANCH   1  12
BRANCH  11  22
HETATM   22  O3  UNL     1      24.173   5.222  51.103  1.00  0.00    -0.389 OA
HETATM   23  C17 UNL     1      24.223   6.614  51.204  1.00  0.00     0.202 C 
ENDBRANCH  11  22
TORSDOF 5
ENDMDL
MODEL 9
REMARK VINA RESULT:      -5.6      6.885      8.298
REMARK  5 active torsions:
REMARK  status: ('A' for Active; 'I' for Inactive)
REMARK    1  A    between atoms: O1_2  and  C2_3 
REMARK    2  A    between atoms: C2_3  and  C3_4 
REMARK    3  A    between atoms: C3_4  and  C4_5 
REMARK    4  A    between atoms: C7_10  and  C8_11 
REMARK    5  A    between atoms: C16_21  and  O3_22 
ROOT
HETATM    1  C8  UNL     1      28.513   8.464  47.606  1.00  0.00     0.126 C 
HETATM    2  C9  UNL     1      28.565   9.443  48.702  1.00  0.00     0.096 C 
HETATM    3  O2  UNL     1      27.945   8.852  49.724  1.00  0.00    -0.199 OA
HETATM    4  C10 UNL     1      29.178  10.881  48.780  1.00  0.00     0.060 A 
HETATM    5  C11 UNL     1      30.513  10.994  49.178  1.00  0.00    -0.012 A 
HETATM    6  C12 UNL     1      30.387  11.344  47.657  1.00  0.00     0.074 A 
HETATM    7  S1  UNL     1      28.793  11.204  47.222  1.00  0.00    -0.226 SA
HETATM    8  C13 UNL     1      27.654  12.242  48.334  1.00  0.00     0.009 A 
HETATM    9  C14 UNL     1      28.825  12.415  48.746  1.00  0.00     0.081 A 
HETATM   10  C15 UNL     1      28.098  10.207  45.860  1.00  0.00     0.085 C 
HETATM   11  C16 UNL     1      27.730   8.807  46.376  1.00  0.00     0.144 C 
ENDROOT
BRANCH   1  12
HETATM   12  C7  UNL     1      27.712   7.291  48.116  1.00  0.00     0.060 A 
HETATM   13  C4  UNL     1      28.390   6.135  48.162  1.00  0.00     0.009 A 
HETATM   14  C5  UNL     1      27.692   5.047  48.609  1.00  0.00     0.131 A 
HETATM   15  N1  UNL     1      26.409   5.143  48.976  1.00  0.00    -0.253 NA
HETATM   16  C6  UNL     1      25.736   6.300  48.927  1.00  0.00     0.232 A 
HETATM   17  N2  UNL     1      26.427   7.347  48.491  1.00  0.00    -0.245 NA
BRANCH  13  18
HETATM   18  C3  UNL     1      29.762   6.021  47.762  1.00  0.00     0.039 C 
BRANCH  18  19
HETATM   19  C2  UNL     1      30.808   5.646  48.429  1.00  0.00     0.135 C 
BRANCH  19  20
HETATM   20  O1  UNL     1      31.929   5.168  49.028  1.00  0.00    -0.368 OA
HETATM   21  C1  UNL     1      33.226   5.671  48.710  1.00  0.00     0.208 C 
ENDBRANCH  19  20
ENDBRANCH  18  19
ENDBRANCH  13  18
ENDBRANCH   1  12
BRANCH  11  22
HETATM   22  O3  UNL     1      26.390   8.871  46.770  1.00  0.00    -0.389 OA
HETATM   23  C17 UNL     1      25.623   9.566  45.833  1.00  0.00     0.202 C 
ENDBRANCH  11  22
TORSDOF 5
ENDMDL
