MODEL 1
REMARK VINA RESULT:      -9.0      0.000      0.000
REMARK  1 active torsions:
REMARK  status: ('A' for Active; 'I' for Inactive)
REMARK    1  A    between atoms: C8_10  and  O1_11 
ROOT
HETATM    1  C1  UNL     1      17.837  -0.446  51.696  1.00  0.00     0.048 C 
HETATM    2  C2  UNL     1      18.996  -0.458  52.634  1.00  0.00    -0.065 C 
HETATM    3  C3  UNL     1      19.373  -1.556  53.324  1.00  0.00    -0.014 C 
HETATM    4  C4  UNL     1      20.573  -1.865  54.161  1.00  0.00     0.082 C 
HETATM    5  C5  UNL     1      21.453  -0.699  54.369  1.00  0.00     0.015 C 
HETATM    6  N1  UNL     1      22.705  -0.690  54.116  1.00  0.00    -0.281 NA
HETATM    7  C6  UNL     1      23.468   0.411  53.597  1.00  0.00     0.182 C 
HETATM    8  S1  UNL     1      25.050  -0.354  53.103  1.00  0.00    -0.109 SA
HETATM    9  C7  UNL     1      26.315   0.762  53.776  1.00  0.00     0.102 C 
HETATM   10  C8  UNL     1      26.508   2.017  53.352  1.00  0.00     0.146 C 
HETATM   11  N2  UNL     1      25.938   2.914  52.368  1.00  0.00    -0.336 N 
HETATM   12  C9  UNL     1      24.856   2.665  51.446  1.00  0.00     0.040 A 
HETATM   13  C10 UNL     1      25.246   3.353  50.289  1.00  0.00     0.030 A 
HETATM   14  C11 UNL     1      24.400   3.291  49.203  1.00  0.00     0.002 A 
HETATM   15  C12 UNL     1      23.224   2.578  49.273  1.00  0.00     0.001 A 
HETATM   16  C13 UNL     1      22.883   1.922  50.424  1.00  0.00     0.010 A 
HETATM   17  C14 UNL     1      23.680   1.926  51.583  1.00  0.00    -0.024 A 
HETATM   18  C15 UNL     1      22.878   1.122  52.475  1.00  0.00     0.060 C 
HETATM   19  C16 UNL     1      21.677   2.041  52.841  1.00  0.00     0.047 C 
HETATM   20  C17 UNL     1      20.612   1.188  53.430  1.00  0.00    -0.073 C 
HETATM   21  C18 UNL     1      19.603   0.899  52.631  1.00  0.00     0.009 C 
HETATM   22  C19 UNL     1      20.798   0.614  54.845  1.00  0.00     0.088 C 
HETATM   23  H10 UNL     1      26.303   3.879  52.241  1.00  0.00     0.168 HD
ENDROOT
BRANCH  10  24
HETATM   24  O1  UNL     1      27.531   2.717  53.996  1.00  0.00    -0.346 OA
HETATM   25  H9  UNL     1      27.435   3.701  54.234  1.00  0.00     0.219 HD
ENDBRANCH  10  24
TORSDOF 1
ENDMDL
MODEL 2
REMARK VINA RESULT:      -8.8      2.807      5.820
REMARK  1 active torsions:
REMARK  status: ('A' for Active; 'I' for Inactive)
REMARK    1  A    between atoms: C8_10  and  O1_11 
ROOT
HETATM    1  C1  UNL     1      29.022   2.482  53.828  1.00  0.00     0.048 C 
HETATM    2  C2  UNL     1      27.966   1.440  53.675  1.00  0.00    -0.065 C 
HETATM    3  C3  UNL     1      27.812   0.415  54.541  1.00  0.00    -0.014 C 
HETATM    4  C4  UNL     1      26.749  -0.624  54.704  1.00  0.00     0.082 C 
HETATM    5  C5  UNL     1      25.736  -0.593  53.631  1.00  0.00     0.015 C 
HETATM    6  N1  UNL     1      24.478  -0.512  53.834  1.00  0.00    -0.281 NA
HETATM    7  C6  UNL     1      23.523   0.203  53.035  1.00  0.00     0.182 C 
HETATM    8  S1  UNL     1      22.026   0.241  54.079  1.00  0.00    -0.109 SA
HETATM    9  C7  UNL     1      20.683  -0.232  52.952  1.00  0.00     0.102 C 
HETATM   10  C8  UNL     1      20.278   0.512  51.917  1.00  0.00     0.146 C 
HETATM   11  N2  UNL     1      20.623   1.782  51.311  1.00  0.00    -0.336 N 
HETATM   12  C9  UNL     1      21.640   2.722  51.714  1.00  0.00     0.040 A 
HETATM   13  C10 UNL     1      21.053   3.970  51.461  1.00  0.00     0.030 A 
HETATM   14  C11 UNL     1      21.797   5.089  51.763  1.00  0.00     0.002 A 
HETATM   15  C12 UNL     1      23.063   4.966  52.290  1.00  0.00     0.001 A 
HETATM   16  C13 UNL     1      23.597   3.728  52.520  1.00  0.00     0.010 A 
HETATM   17  C14 UNL     1      22.917   2.528  52.245  1.00  0.00    -0.024 A 
HETATM   18  C15 UNL     1      23.902   1.551  52.645  1.00  0.00     0.060 C 
HETATM   19  C16 UNL     1      24.989   1.630  51.535  1.00  0.00     0.047 C 
HETATM   20  C17 UNL     1      26.214   0.960  52.047  1.00  0.00    -0.073 C 
HETATM   21  C18 UNL     1      27.176   1.762  52.458  1.00  0.00     0.009 C 
HETATM   22  C19 UNL     1      26.240  -0.573  52.174  1.00  0.00     0.088 C 
HETATM   23  H10 UNL     1      20.115   2.138  50.476  1.00  0.00     0.168 HD
ENDROOT
BRANCH  10  24
HETATM   24  O1  UNL     1      19.229  -0.024  51.166  1.00  0.00    -0.346 OA
HETATM   25  H9  UNL     1      18.846  -0.945  51.368  1.00  0.00     0.219 HD
ENDBRANCH  10  24
TORSDOF 1
ENDMDL
MODEL 3
REMARK VINA RESULT:      -8.7      2.726      5.736
REMARK  1 active torsions:
REMARK  status: ('A' for Active; 'I' for Inactive)
REMARK    1  A    between atoms: C8_10  and  O1_11 
ROOT
HETATM    1  C1  UNL     1      25.148   6.086  48.833  1.00  0.00     0.048 C 
HETATM    2  C2  UNL     1      23.967   5.479  49.512  1.00  0.00    -0.065 C 
HETATM    3  C3  UNL     1      22.754   5.377  48.928  1.00  0.00    -0.014 C 
HETATM    4  C4  UNL     1      21.497   4.666  49.318  1.00  0.00     0.082 C 
HETATM    5  C5  UNL     1      21.565   4.061  50.662  1.00  0.00     0.015 C 
HETATM    6  N1  UNL     1      21.311   2.835  50.911  1.00  0.00    -0.281 NA
HETATM    7  C6  UNL     1      21.970   2.001  51.877  1.00  0.00     0.182 C 
HETATM    8  S1  UNL     1      21.418   0.316  51.443  1.00  0.00    -0.109 SA
HETATM    9  C7  UNL     1      20.949  -0.424  53.034  1.00  0.00     0.102 C 
HETATM   10  C8  UNL     1      21.815  -0.697  54.017  1.00  0.00     0.146 C 
HETATM   11  N2  UNL     1      23.238  -0.572  54.255  1.00  0.00    -0.336 N 
HETATM   12  C9  UNL     1      24.253  -0.044  53.375  1.00  0.00     0.040 A 
HETATM   13  C10 UNL     1      25.362  -0.865  53.624  1.00  0.00     0.030 A 
HETATM   14  C11 UNL     1      26.510  -0.608  52.907  1.00  0.00     0.002 A 
HETATM   15  C12 UNL     1      26.546   0.418  51.989  1.00  0.00     0.001 A 
HETATM   16  C13 UNL     1      25.439   1.195  51.778  1.00  0.00     0.010 A 
HETATM   17  C14 UNL     1      24.223   1.011  52.461  1.00  0.00    -0.024 A 
HETATM   18  C15 UNL     1      23.422   2.069  51.893  1.00  0.00     0.060 C 
HETATM   19  C16 UNL     1      24.010   3.368  52.516  1.00  0.00     0.047 C 
HETATM   20  C17 UNL     1      23.524   4.520  51.711  1.00  0.00    -0.073 C 
HETATM   21  C18 UNL     1      24.394   5.035  50.865  1.00  0.00     0.009 C 
HETATM   22  C19 UNL     1      22.051   4.953  51.823  1.00  0.00     0.088 C 
HETATM   23  H10 UNL     1      23.666  -0.884  55.149  1.00  0.00     0.168 HD
ENDROOT
BRANCH  10  24
HETATM   24  O1  UNL     1      21.260  -1.266  55.165  1.00  0.00    -0.346 OA
HETATM   25  H9  UNL     1      21.782  -1.325  56.036  1.00  0.00     0.219 HD
ENDBRANCH  10  24
TORSDOF 1
ENDMDL
MODEL 4
REMARK VINA RESULT:      -8.5      2.024      5.194
REMARK  1 active torsions:
REMARK  status: ('A' for Active; 'I' for Inactive)
REMARK    1  A    between atoms: C8_10  and  O1_11 
ROOT
HETATM    1  C1  UNL     1      19.812   5.240  49.833  1.00  0.00     0.048 C 
HETATM    2  C2  UNL     1      21.238   4.811  49.907  1.00  0.00    -0.065 C 
HETATM    3  C3  UNL     1      22.267   5.683  49.968  1.00  0.00    -0.014 C 
HETATM    4  C4  UNL     1      23.730   5.509  50.225  1.00  0.00     0.082 C 
HETATM    5  C5  UNL     1      24.142   4.094  50.307  1.00  0.00     0.015 C 
HETATM    6  N1  UNL     1      24.790   3.591  51.286  1.00  0.00    -0.281 NA
HETATM    7  C6  UNL     1      24.634   2.272  51.831  1.00  0.00     0.182 C 
HETATM    8  S1  UNL     1      25.541   2.346  53.413  1.00  0.00    -0.109 SA
HETATM    9  C7  UNL     1      26.546   0.834  53.423  1.00  0.00     0.102 C 
HETATM   10  C8  UNL     1      26.038  -0.402  53.492  1.00  0.00     0.146 C 
HETATM   11  N2  UNL     1      24.730  -1.019  53.576  1.00  0.00    -0.336 N 
HETATM   12  C9  UNL     1      23.437  -0.379  53.613  1.00  0.00     0.040 A 
HETATM   13  C10 UNL     1      22.699  -1.183  54.494  1.00  0.00     0.030 A 
HETATM   14  C11 UNL     1      21.396  -0.810  54.746  1.00  0.00     0.002 A 
HETATM   15  C12 UNL     1      20.861   0.308  54.147  1.00  0.00     0.001 A 
HETATM   16  C13 UNL     1      21.618   1.063  53.294  1.00  0.00     0.010 A 
HETATM   17  C14 UNL     1      22.955   0.764  52.974  1.00  0.00    -0.024 A 
HETATM   18  C15 UNL     1      23.266   1.832  52.053  1.00  0.00     0.060 C 
HETATM   19  C16 UNL     1      22.479   1.463  50.763  1.00  0.00     0.047 C 
HETATM   20  C17 UNL     1      22.418   2.675  49.904  1.00  0.00    -0.073 C 
HETATM   21  C18 UNL     1      21.270   3.324  49.911  1.00  0.00     0.009 C 
HETATM   22  C19 UNL     1      23.687   3.151  49.175  1.00  0.00     0.088 C 
HETATM   23  H10 UNL     1      24.621  -2.051  53.625  1.00  0.00     0.168 HD
ENDROOT
BRANCH  10  24
HETATM   24  O1  UNL     1      26.975  -1.438  53.488  1.00  0.00    -0.346 OA
HETATM   25  H9  UNL     1      27.601  -1.587  52.699  1.00  0.00     0.219 HD
ENDBRANCH  10  24
TORSDOF 1
ENDMDL
MODEL 5
REMARK VINA RESULT:      -8.3      3.004      6.667
REMARK  1 active torsions:
REMARK  status: ('A' for Active; 'I' for Inactive)
REMARK    1  A    between atoms: C8_10  and  O1_11 
ROOT
HETATM    1  C1  UNL     1      27.767   1.930  52.990  1.00  0.00     0.048 C 
HETATM    2  C2  UNL     1      26.636   2.420  52.150  1.00  0.00    -0.065 C 
HETATM    3  C3  UNL     1      26.757   2.677  50.830  1.00  0.00    -0.014 C 
HETATM    4  C4  UNL     1      25.759   2.992  49.762  1.00  0.00     0.082 C 
HETATM    5  C5  UNL     1      24.390   3.174  50.282  1.00  0.00     0.015 C 
HETATM    6  N1  UNL     1      23.367   2.545  49.847  1.00  0.00    -0.281 NA
HETATM    7  C6  UNL     1      22.251   2.082  50.623  1.00  0.00     0.182 C 
HETATM    8  S1  UNL     1      21.379   0.946  49.492  1.00  0.00    -0.109 SA
HETATM    9  C7  UNL     1      19.632   1.421  49.639  1.00  0.00     0.102 C 
HETATM   10  C8  UNL     1      18.905   1.263  50.751  1.00  0.00     0.146 C 
HETATM   11  N2  UNL     1      19.097   0.750  52.092  1.00  0.00    -0.336 N 
HETATM   12  C9  UNL     1      20.291   0.189  52.677  1.00  0.00     0.040 A 
HETATM   13  C10 UNL     1      19.805  -0.837  53.497  1.00  0.00     0.030 A 
HETATM   14  C11 UNL     1      20.732  -1.579  54.196  1.00  0.00     0.002 A 
HETATM   15  C12 UNL     1      22.077  -1.307  54.078  1.00  0.00     0.001 A 
HETATM   16  C13 UNL     1      22.507  -0.294  53.265  1.00  0.00     0.010 A 
HETATM   17  C14 UNL     1      21.639   0.518  52.514  1.00  0.00    -0.024 A 
HETATM   18  C15 UNL     1      22.576   1.405  51.867  1.00  0.00     0.060 C 
HETATM   19  C16 UNL     1      23.068   2.338  53.011  1.00  0.00     0.047 C 
HETATM   20  C17 UNL     1      24.304   3.020  52.544  1.00  0.00    -0.073 C 
HETATM   21  C18 UNL     1      25.437   2.540  53.020  1.00  0.00     0.009 C 
HETATM   22  C19 UNL     1      24.203   4.127  51.480  1.00  0.00     0.088 C 
HETATM   23  H10 UNL     1      18.321   0.742  52.784  1.00  0.00     0.168 HD
ENDROOT
BRANCH  10  24
HETATM   24  O1  UNL     1      17.578   1.691  50.666  1.00  0.00    -0.346 OA
HETATM   25  H9  UNL     1      16.853   1.300  51.263  1.00  0.00     0.219 HD
ENDBRANCH  10  24
TORSDOF 1
ENDMDL
MODEL 6
REMARK VINA RESULT:      -8.2      9.628     12.413
REMARK  1 active torsions:
REMARK  status: ('A' for Active; 'I' for Inactive)
REMARK    1  A    between atoms: C8_10  and  O1_11 
ROOT
HETATM    1  C1  UNL     1      32.046   2.344  46.432  1.00  0.00     0.048 C 
HETATM    2  C2  UNL     1      32.569   3.730  46.605  1.00  0.00    -0.065 C 
HETATM    3  C3  UNL     1      33.362   4.337  45.697  1.00  0.00    -0.014 C 
HETATM    4  C4  UNL     1      33.853   5.743  45.556  1.00  0.00     0.082 C 
HETATM    5  C5  UNL     1      33.495   6.600  46.702  1.00  0.00     0.015 C 
HETATM    6  N1  UNL     1      32.886   7.718  46.600  1.00  0.00    -0.281 NA
HETATM    7  C6  UNL     1      31.910   8.250  47.509  1.00  0.00     0.182 C 
HETATM    8  S1  UNL     1      31.171   9.640  46.585  1.00  0.00    -0.109 SA
HETATM    9  C7  UNL     1      31.139  11.006  47.782  1.00  0.00     0.102 C 
HETATM   10  C8  UNL     1      30.382  11.017  48.885  1.00  0.00     0.146 C 
HETATM   11  N2  UNL     1      29.424  10.147  49.534  1.00  0.00    -0.336 N 
HETATM   12  C9  UNL     1      28.957   8.849  49.109  1.00  0.00     0.040 A 
HETATM   13  C10 UNL     1      27.604   8.850  49.476  1.00  0.00     0.030 A 
HETATM   14  C11 UNL     1      26.871   7.721  49.183  1.00  0.00     0.002 A 
HETATM   15  C12 UNL     1      27.461   6.647  48.555  1.00  0.00     0.001 A 
HETATM   16  C13 UNL     1      28.786   6.689  48.215  1.00  0.00     0.010 A 
HETATM   17  C14 UNL     1      29.616   7.795  48.473  1.00  0.00    -0.024 A 
HETATM   18  C15 UNL     1      30.875   7.327  47.945  1.00  0.00     0.060 C 
HETATM   19  C16 UNL     1      31.345   6.256  48.972  1.00  0.00     0.047 C 
HETATM   20  C17 UNL     1      32.416   5.448  48.332  1.00  0.00    -0.073 C 
HETATM   21  C18 UNL     1      32.051   4.258  47.895  1.00  0.00     0.009 C 
HETATM   22  C19 UNL     1      33.807   6.069  48.116  1.00  0.00     0.088 C 
HETATM   23  H10 UNL     1      28.960  10.421  50.423  1.00  0.00     0.168 HD
ENDROOT
BRANCH  10  24
HETATM   24  O1  UNL     1      30.498  12.159  49.681  1.00  0.00    -0.346 OA
HETATM   25  H9  UNL     1      30.695  12.096  50.677  1.00  0.00     0.219 HD
ENDBRANCH  10  24
TORSDOF 1
ENDMDL
MODEL 7
REMARK VINA RESULT:      -7.4      8.123     12.181
REMARK  1 active torsions:
REMARK  status: ('A' for Active; 'I' for Inactive)
REMARK    1  A    between atoms: C8_10  and  O1_11 
ROOT
HETATM    1  C1  UNL     1      27.071  13.299  48.214  1.00  0.00     0.048 C 
HETATM    2  C2  UNL     1      28.358  12.567  48.034  1.00  0.00    -0.065 C 
HETATM    3  C3  UNL     1      29.523  12.984  48.574  1.00  0.00    -0.014 C 
HETATM    4  C4  UNL     1      30.873  12.349  48.689  1.00  0.00     0.082 C 
HETATM    5  C5  UNL     1      30.976  11.069  47.963  1.00  0.00     0.015 C 
HETATM    6  N1  UNL     1      31.370   9.975  48.490  1.00  0.00    -0.281 NA
HETATM    7  C6  UNL     1      30.880   8.657  48.200  1.00  0.00     0.182 C 
HETATM    8  S1  UNL     1      31.560   7.635  49.551  1.00  0.00    -0.109 SA
HETATM    9  C7  UNL     1      32.229   6.171  48.711  1.00  0.00     0.102 C 
HETATM   10  C8  UNL     1      31.478   5.264  48.074  1.00  0.00     0.146 C 
HETATM   11  N2  UNL     1      30.074   5.042  47.798  1.00  0.00    -0.336 N 
HETATM   12  C9  UNL     1      28.943   5.848  48.188  1.00  0.00     0.040 A 
HETATM   13  C10 UNL     1      27.945   4.903  48.466  1.00  0.00     0.030 A 
HETATM   14  C11 UNL     1      26.723   5.381  48.884  1.00  0.00     0.002 A 
HETATM   15  C12 UNL     1      26.510   6.735  49.016  1.00  0.00     0.001 A 
HETATM   16  C13 UNL     1      27.512   7.622  48.734  1.00  0.00     0.010 A 
HETATM   17  C14 UNL     1      28.792   7.232  48.301  1.00  0.00    -0.024 A 
HETATM   18  C15 UNL     1      29.434   8.514  48.138  1.00  0.00     0.060 C 
HETATM   19  C16 UNL     1      28.772   9.112  46.863  1.00  0.00     0.047 C 
HETATM   20  C17 UNL     1      29.073  10.568  46.832  1.00  0.00    -0.073 C 
HETATM   21  C18 UNL     1      28.090  11.364  47.204  1.00  0.00     0.009 C 
HETATM   22  C19 UNL     1      30.499  11.039  46.496  1.00  0.00     0.088 C 
HETATM   23  H10 UNL     1      29.754   4.212  47.260  1.00  0.00     0.168 HD
ENDROOT
BRANCH  10  24
HETATM   24  O1  UNL     1      32.179   4.208  47.489  1.00  0.00    -0.346 OA
HETATM   25  H9  UNL     1      33.168   4.057  47.675  1.00  0.00     0.219 HD
ENDBRANCH  10  24
TORSDOF 1
ENDMDL
MODEL 8
REMARK VINA RESULT:      -7.3      3.267      6.507
REMARK  1 active torsions:
REMARK  status: ('A' for Active; 'I' for Inactive)
REMARK    1  A    between atoms: C8_10  and  O1_11 
ROOT
HETATM    1  C1  UNL     1      25.927   7.657  50.029  1.00  0.00     0.048 C 
HETATM    2  C2  UNL     1      24.613   6.952  50.011  1.00  0.00    -0.065 C 
HETATM    3  C3  UNL     1      23.816   6.907  48.922  1.00  0.00    -0.014 C 
HETATM    4  C4  UNL     1      22.575   6.135  48.605  1.00  0.00     0.082 C 
HETATM    5  C5  UNL     1      22.058   5.367  49.753  1.00  0.00     0.015 C 
HETATM    6  N1  UNL     1      21.807   4.115  49.726  1.00  0.00    -0.281 NA
HETATM    7  C6  UNL     1      22.004   3.176  50.793  1.00  0.00     0.182 C 
HETATM    8  S1  UNL     1      21.836   1.551  49.978  1.00  0.00    -0.109 SA
HETATM    9  C7  UNL     1      20.741   0.610  51.079  1.00  0.00     0.102 C 
HETATM   10  C8  UNL     1      21.073   0.228  52.318  1.00  0.00     0.146 C 
HETATM   11  N2  UNL     1      22.214   0.342  53.204  1.00  0.00    -0.336 N 
HETATM   12  C9  UNL     1      23.479   0.991  52.959  1.00  0.00     0.040 A 
HETATM   13  C10 UNL     1      24.404   0.161  53.608  1.00  0.00     0.030 A 
HETATM   14  C11 UNL     1      25.732   0.523  53.540  1.00  0.00     0.002 A 
HETATM   15  C12 UNL     1      26.113   1.657  52.858  1.00  0.00     0.001 A 
HETATM   16  C13 UNL     1      25.176   2.438  52.239  1.00  0.00     0.010 A 
HETATM   17  C14 UNL     1      23.799   2.152  52.252  1.00  0.00    -0.024 A 
HETATM   18  C15 UNL     1      23.277   3.262  51.491  1.00  0.00     0.060 C 
HETATM   19  C16 UNL     1      23.417   4.480  52.448  1.00  0.00     0.047 C 
HETATM   20  C17 UNL     1      23.276   5.718  51.636  1.00  0.00    -0.073 C 
HETATM   21  C18 UNL     1      24.399   6.347  51.352  1.00  0.00     0.009 C 
HETATM   22  C19 UNL     1      21.891   6.112  51.093  1.00  0.00     0.088 C 
HETATM   23  H10 UNL     1      22.202  -0.074  54.156  1.00  0.00     0.168 HD
ENDROOT
BRANCH  10  24
HETATM   24  O1  UNL     1      20.093  -0.489  53.008  1.00  0.00    -0.346 OA
HETATM   25  H9  UNL     1      19.826  -1.430  52.729  1.00  0.00     0.219 HD
ENDBRANCH  10  24
TORSDOF 1
ENDMDL
MODEL 9
REMARK VINA RESULT:      -7.2      3.758      5.462
REMARK  1 active torsions:
REMARK  status: ('A' for Active; 'I' for Inactive)
REMARK    1  A    between atoms: C8_10  and  O1_11 
ROOT
HETATM    1  C1  UNL     1      18.414   1.478  49.691  1.00  0.00     0.048 C 
HETATM    2  C2  UNL     1      19.281   2.571  49.165  1.00  0.00    -0.065 C 
HETATM    3  C3  UNL     1      18.881   3.859  49.094  1.00  0.00    -0.014 C 
HETATM    4  C4  UNL     1      19.606   5.130  48.786  1.00  0.00     0.082 C 
HETATM    5  C5  UNL     1      21.001   4.915  48.358  1.00  0.00     0.015 C 
HETATM    6  N1  UNL     1      22.012   5.481  48.895  1.00  0.00    -0.281 NA
HETATM    7  C6  UNL     1      23.310   4.904  49.102  1.00  0.00     0.182 C 
HETATM    8  S1  UNL     1      24.126   6.070  50.245  1.00  0.00    -0.109 SA
HETATM    9  C7  UNL     1      25.774   6.322  49.526  1.00  0.00     0.102 C 
HETATM   10  C8  UNL     1      26.709   5.367  49.444  1.00  0.00     0.146 C 
HETATM   11  N2  UNL     1      26.848   3.972  49.805  1.00  0.00    -0.336 N 
HETATM   12  C9  UNL     1      25.883   3.108  50.442  1.00  0.00     0.040 A 
HETATM   13  C10 UNL     1      26.666   2.305  51.283  1.00  0.00     0.030 A 
HETATM   14  C11 UNL     1      26.009   1.366  52.048  1.00  0.00     0.002 A 
HETATM   15  C12 UNL     1      24.640   1.238  51.975  1.00  0.00     0.001 A 
HETATM   16  C13 UNL     1      23.915   2.044  51.140  1.00  0.00     0.010 A 
HETATM   17  C14 UNL     1      24.495   3.029  50.320  1.00  0.00    -0.024 A 
HETATM   18  C15 UNL     1      23.328   3.559  49.655  1.00  0.00     0.060 C 
HETATM   19  C16 UNL     1      22.915   2.437  48.659  1.00  0.00     0.047 C 
HETATM   20  C17 UNL     1      21.523   2.711  48.214  1.00  0.00    -0.073 C 
HETATM   21  C18 UNL     1      20.586   1.974  48.776  1.00  0.00     0.009 C 
HETATM   22  C19 UNL     1      21.255   3.877  47.246  1.00  0.00     0.088 C 
HETATM   23  H10 UNL     1      27.729   3.452  49.622  1.00  0.00     0.168 HD
ENDROOT
BRANCH  10  24
HETATM   24  O1  UNL     1      27.914   5.757  48.856  1.00  0.00    -0.346 OA
HETATM   25  H9  UNL     1      28.134   5.529  47.889  1.00  0.00     0.219 HD
ENDBRANCH  10  24
TORSDOF 1
ENDMDL
