MODEL 1
REMARK VINA RESULT:      -8.1      0.000      0.000
REMARK  3 active torsions:
REMARK  status: ('A' for Active; 'I' for Inactive)
REMARK    1  A    between atoms: C3_3  and  N1_4 
REMARK    2  A    between atoms: N2_9  and  C8_10 
REMARK    3  A    between atoms: C8_10  and  C9_11 
ROOT
HETATM    1  N1  UNL     1      26.405   0.845  52.250  1.00  0.00    -0.294 N 
HETATM    2  C4  UNL     1      25.052   0.719  52.772  1.00  0.00     0.149 C 
HETATM    3  C5  UNL     1      24.406   2.033  53.070  1.00  0.00     0.029 C 
HETATM    4  C6  UNL     1      24.777   3.153  52.156  1.00  0.00     0.081 C 
HETATM    5  C7  UNL     1      25.571   2.730  50.970  1.00  0.00     0.113 C 
HETATM    6  N2  UNL     1      25.422   3.201  49.777  1.00  0.00    -0.271 NA
HETATM    7  N3  UNL     1      26.565   1.734  51.179  1.00  0.00    -0.285 N 
HETATM    8  H14 UNL     1      27.400   1.646  50.564  1.00  0.00     0.188 HD
ENDROOT
BRANCH   6   9
HETATM    9  C8  UNL     1      24.470   4.203  49.409  1.00  0.00     0.190 C 
BRANCH   9  10
HETATM   10  C9  UNL     1      25.178   5.428  49.023  1.00  0.00    -0.026 C 
HETATM   11  C10 UNL     1      25.005   6.688  48.702  1.00  0.00    -0.016 C 
HETATM   12  C11 UNL     1      25.952   7.207  47.951  1.00  0.00     0.032 C 
HETATM   13  C12 UNL     1      27.129   6.391  48.281  1.00  0.00     0.012 C 
HETATM   14 BR1  UNL     1      28.928   6.829  47.848  1.00  0.00    -0.051 Br
HETATM   15  C13 UNL     1      26.649   5.322  48.927  1.00  0.00     0.029 C 
ENDBRANCH   9  10
ENDBRANCH   6   9
BRANCH   1  16
HETATM   16  C3  UNL     1      27.525   0.108  52.793  1.00  0.00     0.034 A 
HETATM   17  C2  UNL     1      28.435   0.852  53.389  1.00  0.00    -0.038 A 
HETATM   18  C1  UNL     1      28.349   2.302  53.510  1.00  0.00     0.050 C 
HETATM   19  C17 UNL     1      29.551   0.088  53.930  1.00  0.00     0.005 A 
HETATM   20  C16 UNL     1      29.437  -1.211  53.717  1.00  0.00    -0.026 A 
HETATM   21  C15 UNL     1      28.463  -2.110  53.066  1.00  0.00     0.033 A 
HETATM   22  C14 UNL     1      27.307  -1.326  52.502  1.00  0.00     0.063 A 
ENDBRANCH   1  16
TORSDOF 3
ENDMDL
MODEL 2
REMARK VINA RESULT:      -7.7      2.503      3.094
REMARK  3 active torsions:
REMARK  status: ('A' for Active; 'I' for Inactive)
REMARK    1  A    between atoms: C3_3  and  N1_4 
REMARK    2  A    between atoms: N2_9  and  C8_10 
REMARK    3  A    between atoms: C8_10  and  C9_11 
ROOT
HETATM    1  N1  UNL     1      26.486   0.621  52.407  1.00  0.00    -0.294 N 
HETATM    2  C4  UNL     1      25.160   0.279  52.902  1.00  0.00     0.149 C 
HETATM    3  C5  UNL     1      24.370   1.464  53.350  1.00  0.00     0.029 C 
HETATM    4  C6  UNL     1      24.602   2.720  52.578  1.00  0.00     0.081 C 
HETATM    5  C7  UNL     1      25.430   2.537  51.356  1.00  0.00     0.113 C 
HETATM    6  N2  UNL     1      25.218   3.126  50.226  1.00  0.00    -0.271 NA
HETATM    7  N3  UNL     1      26.534   1.644  51.450  1.00  0.00    -0.285 N 
HETATM    8  H14 UNL     1      27.369   1.727  50.835  1.00  0.00     0.188 HD
ENDROOT
BRANCH   6   9
HETATM    9  C8  UNL     1      24.154   4.049  49.975  1.00  0.00     0.190 C 
BRANCH   9  10
HETATM   10  C9  UNL     1      23.182   3.432  49.067  1.00  0.00    -0.026 C 
HETATM   11  C10 UNL     1      22.504   2.333  48.839  1.00  0.00    -0.016 C 
HETATM   12  C11 UNL     1      22.151   2.146  47.586  1.00  0.00     0.032 C 
HETATM   13  C12 UNL     1      22.093   3.511  47.044  1.00  0.00     0.012 C 
HETATM   14 BR1  UNL     1      21.282   4.008  45.397  1.00  0.00    -0.051 Br
HETATM   15  C13 UNL     1      22.717   4.277  47.946  1.00  0.00     0.029 C 
ENDBRANCH   9  10
ENDBRANCH   6   9
BRANCH   1  16
HETATM   16  C3  UNL     1      27.687  -0.042  52.865  1.00  0.00     0.034 A 
HETATM   17  C2  UNL     1      28.585   0.760  53.402  1.00  0.00    -0.038 A 
HETATM   18  C1  UNL     1      28.412   2.200  53.540  1.00  0.00     0.050 C 
HETATM   19  C17 UNL     1      29.784   0.070  53.858  1.00  0.00     0.005 A 
HETATM   20  C16 UNL     1      29.742  -1.233  53.643  1.00  0.00    -0.026 A 
HETATM   21  C15 UNL     1      28.786  -2.193  53.054  1.00  0.00     0.033 A 
HETATM   22  C14 UNL     1      27.545  -1.486  52.578  1.00  0.00     0.063 A 
ENDBRANCH   1  16
TORSDOF 3
ENDMDL
MODEL 3
REMARK VINA RESULT:      -7.7      3.460      4.583
REMARK  3 active torsions:
REMARK  status: ('A' for Active; 'I' for Inactive)
REMARK    1  A    between atoms: C3_3  and  N1_4 
REMARK    2  A    between atoms: N2_9  and  C8_10 
REMARK    3  A    between atoms: C8_10  and  C9_11 
ROOT
HETATM    1  N1  UNL     1      22.865   1.836  51.818  1.00  0.00    -0.294 N 
HETATM    2  C4  UNL     1      22.738   1.513  50.404  1.00  0.00     0.149 C 
HETATM    3  C5  UNL     1      22.172   2.630  49.589  1.00  0.00     0.029 C 
HETATM    4  C6  UNL     1      22.548   4.005  50.034  1.00  0.00     0.081 C 
HETATM    5  C7  UNL     1      23.593   4.035  51.093  1.00  0.00     0.113 C 
HETATM    6  N2  UNL     1      24.559   4.889  51.152  1.00  0.00    -0.271 NA
HETATM    7  N3  UNL     1      23.510   3.045  52.112  1.00  0.00    -0.285 N 
HETATM    8  H14 UNL     1      23.911   3.190  53.061  1.00  0.00     0.188 HD
ENDROOT
BRANCH   6   9
HETATM    9  C8  UNL     1      24.776   5.941  50.206  1.00  0.00     0.190 C 
BRANCH   9  10
HETATM   10  C9  UNL     1      25.939   5.614  49.375  1.00  0.00    -0.026 C 
HETATM   11  C10 UNL     1      26.721   4.631  48.997  1.00  0.00    -0.016 C 
HETATM   12  C11 UNL     1      27.930   4.992  48.627  1.00  0.00     0.032 C 
HETATM   13  C12 UNL     1      27.745   6.379  48.177  1.00  0.00     0.012 C 
HETATM   14 BR1  UNL     1      29.000   7.383  47.160  1.00  0.00    -0.051 Br
HETATM   15  C13 UNL     1      26.541   6.743  48.633  1.00  0.00     0.029 C 
ENDBRANCH   9  10
ENDBRANCH   6   9
BRANCH   1  16
HETATM   16  C3  UNL     1      22.362   0.974  52.865  1.00  0.00     0.034 A 
HETATM   17  C2  UNL     1      21.126   1.234  53.243  1.00  0.00    -0.038 A 
HETATM   18  C1  UNL     1      20.307   2.295  52.672  1.00  0.00     0.050 C 
HETATM   19  C17 UNL     1      20.640   0.352  54.295  1.00  0.00     0.005 A 
HETATM   20  C16 UNL     1      21.536  -0.542  54.672  1.00  0.00    -0.026 A 
HETATM   21  C15 UNL     1      22.923  -0.893  54.303  1.00  0.00     0.033 A 
HETATM   22  C14 UNL     1      23.433   0.016  53.217  1.00  0.00     0.063 A 
ENDBRANCH   1  16
TORSDOF 3
ENDMDL
MODEL 4
REMARK VINA RESULT:      -7.5      2.757      3.622
REMARK  3 active torsions:
REMARK  status: ('A' for Active; 'I' for Inactive)
REMARK    1  A    between atoms: C3_3  and  N1_4 
REMARK    2  A    between atoms: N2_9  and  C8_10 
REMARK    3  A    between atoms: C8_10  and  C9_11 
ROOT
HETATM    1  N1  UNL     1      26.524   2.437  52.308  1.00  0.00    -0.294 N 
HETATM    2  C4  UNL     1      26.699   2.923  50.948  1.00  0.00     0.149 C 
HETATM    3  C5  UNL     1      25.495   2.720  50.086  1.00  0.00     0.029 C 
HETATM    4  C6  UNL     1      24.180   2.836  50.781  1.00  0.00     0.081 C 
HETATM    5  C7  UNL     1      24.275   3.339  52.179  1.00  0.00     0.113 C 
HETATM    6  N2  UNL     1      23.447   4.168  52.722  1.00  0.00    -0.271 NA
HETATM    7  N3  UNL     1      25.362   2.864  52.965  1.00  0.00    -0.285 N 
HETATM    8  H14 UNL     1      25.321   2.827  54.004  1.00  0.00     0.188 HD
ENDROOT
BRANCH   6   9
HETATM    9  C8  UNL     1      22.308   4.731  52.064  1.00  0.00     0.190 C 
BRANCH   9  10
HETATM   10  C9  UNL     1      22.724   5.911  51.299  1.00  0.00    -0.026 C 
HETATM   11  C10 UNL     1      23.760   6.652  50.986  1.00  0.00    -0.016 C 
HETATM   12  C11 UNL     1      23.479   7.896  50.666  1.00  0.00     0.032 C 
HETATM   13  C12 UNL     1      22.097   7.813  50.171  1.00  0.00     0.012 C 
HETATM   14 BR1  UNL     1      21.196   9.171  49.190  1.00  0.00    -0.051 Br
HETATM   15  C13 UNL     1      21.653   6.612  50.558  1.00  0.00     0.029 C 
ENDBRANCH   9  10
ENDBRANCH   6   9
BRANCH   1  16
HETATM   16  C3  UNL     1      27.480   1.565  52.957  1.00  0.00     0.034 A 
HETATM   17  C2  UNL     1      27.234   0.278  52.813  1.00  0.00    -0.038 A 
HETATM   18  C1  UNL     1      26.101  -0.256  52.067  1.00  0.00     0.050 C 
HETATM   19  C17 UNL     1      28.210  -0.579  53.471  1.00  0.00     0.005 A 
HETATM   20  C16 UNL     1      29.158   0.101  54.090  1.00  0.00    -0.026 A 
HETATM   21  C15 UNL     1      29.499   1.523  54.294  1.00  0.00     0.033 A 
HETATM   22  C14 UNL     1      28.492   2.416  53.619  1.00  0.00     0.063 A 
ENDBRANCH   1  16
TORSDOF 3
ENDMDL
MODEL 5
REMARK VINA RESULT:      -7.4      2.901      7.230
REMARK  3 active torsions:
REMARK  status: ('A' for Active; 'I' for Inactive)
REMARK    1  A    between atoms: C3_3  and  N1_4 
REMARK    2  A    between atoms: N2_9  and  C8_10 
REMARK    3  A    between atoms: C8_10  and  C9_11 
ROOT
HETATM    1  N1  UNL     1      24.861   5.431  49.751  1.00  0.00    -0.294 N 
HETATM    2  C4  UNL     1      23.655   5.048  49.033  1.00  0.00     0.149 C 
HETATM    3  C5  UNL     1      23.479   3.569  48.913  1.00  0.00     0.029 C 
HETATM    4  C6  UNL     1      23.972   2.768  50.072  1.00  0.00     0.081 C 
HETATM    5  C7  UNL     1      24.371   3.587  51.249  1.00  0.00     0.113 C 
HETATM    6  N2  UNL     1      24.137   3.271  52.480  1.00  0.00    -0.271 NA
HETATM    7  N3  UNL     1      25.060   4.803  50.988  1.00  0.00    -0.285 N 
HETATM    8  H14 UNL     1      25.702   5.238  51.682  1.00  0.00     0.188 HD
ENDROOT
BRANCH   6   9
HETATM    9  C8  UNL     1      23.458   2.085  52.902  1.00  0.00     0.190 C 
BRANCH   9  10
HETATM   10  C9  UNL     1      24.442   1.029  53.162  1.00  0.00    -0.026 C 
HETATM   11  C10 UNL     1      24.601  -0.272  53.212  1.00  0.00    -0.016 C 
HETATM   12  C11 UNL     1      25.577  -0.684  53.993  1.00  0.00     0.032 C 
HETATM   13  C12 UNL     1      26.501   0.459  54.009  1.00  0.00     0.012 C 
HETATM   14 BR1  UNL     1      28.298   0.411  54.630  1.00  0.00    -0.051 Br
HETATM   15  C13 UNL     1      25.806   1.485  53.505  1.00  0.00     0.029 C 
ENDBRANCH   9  10
ENDBRANCH   6   9
BRANCH   1  16
HETATM   16  C3  UNL     1      25.807   6.396  49.233  1.00  0.00     0.034 A 
HETATM   17  C2  UNL     1      26.939   5.878  48.801  1.00  0.00    -0.038 A 
HETATM   18  C1  UNL     1      27.244   4.454  48.828  1.00  0.00     0.050 C 
HETATM   19  C17 UNL     1      27.873   6.868  48.282  1.00  0.00     0.005 A 
HETATM   20  C16 UNL     1      27.405   8.101  48.346  1.00  0.00    -0.026 A 
HETATM   21  C15 UNL     1      26.164   8.755  48.810  1.00  0.00     0.033 A 
HETATM   22  C14 UNL     1      25.194   7.738  49.350  1.00  0.00     0.063 A 
ENDBRANCH   1  16
TORSDOF 3
ENDMDL
MODEL 6
REMARK VINA RESULT:      -7.2      5.487      7.820
REMARK  3 active torsions:
REMARK  status: ('A' for Active; 'I' for Inactive)
REMARK    1  A    between atoms: C3_3  and  N1_4 
REMARK    2  A    between atoms: N2_9  and  C8_10 
REMARK    3  A    between atoms: C8_10  and  C9_11 
ROOT
HETATM    1  N1  UNL     1      32.128   5.240  47.686  1.00  0.00    -0.294 N 
HETATM    2  C4  UNL     1      32.314   6.255  48.712  1.00  0.00     0.149 C 
HETATM    3  C5  UNL     1      31.374   7.409  48.582  1.00  0.00     0.029 C 
HETATM    4  C6  UNL     1      30.014   7.075  48.068  1.00  0.00     0.081 C 
HETATM    5  C7  UNL     1      29.747   5.614  47.964  1.00  0.00     0.113 C 
HETATM    6  N2  UNL     1      28.626   5.047  48.261  1.00  0.00    -0.271 NA
HETATM    7  N3  UNL     1      30.813   4.794  47.501  1.00  0.00    -0.285 N 
HETATM    8  H14 UNL     1      30.647   3.879  47.034  1.00  0.00     0.188 HD
ENDROOT
BRANCH   6   9
HETATM    9  C8  UNL     1      27.465   5.734  48.736  1.00  0.00     0.190 C 
BRANCH   9  10
HETATM   10  C9  UNL     1      26.540   4.767  49.337  1.00  0.00    -0.026 C 
HETATM   11  C10 UNL     1      26.326   3.485  49.514  1.00  0.00    -0.016 C 
HETATM   12  C11 UNL     1      25.067   3.151  49.698  1.00  0.00     0.032 C 
HETATM   13  C12 UNL     1      24.473   4.372  50.261  1.00  0.00     0.012 C 
HETATM   14 BR1  UNL     1      22.776   4.479  51.113  1.00  0.00    -0.051 Br
HETATM   15  C13 UNL     1      25.371   5.339  50.037  1.00  0.00     0.029 C 
ENDBRANCH   9  10
ENDBRANCH   6   9
BRANCH   1  16
HETATM   16  C3  UNL     1      33.222   4.715  46.898  1.00  0.00     0.034 A 
HETATM   17  C2  UNL     1      33.367   5.280  45.716  1.00  0.00    -0.038 A 
HETATM   18  C1  UNL     1      32.514   6.350  45.215  1.00  0.00     0.050 C 
HETATM   19  C17 UNL     1      34.476   4.738  44.942  1.00  0.00     0.005 A 
HETATM   20  C16 UNL     1      35.124   3.777  45.575  1.00  0.00    -0.026 A 
HETATM   21  C15 UNL     1      35.025   3.097  46.883  1.00  0.00     0.033 A 
HETATM   22  C14 UNL     1      33.879   3.650  47.687  1.00  0.00     0.063 A 
ENDBRANCH   1  16
TORSDOF 3
ENDMDL
MODEL 7
REMARK VINA RESULT:      -7.1      1.637      1.870
REMARK  3 active torsions:
REMARK  status: ('A' for Active; 'I' for Inactive)
REMARK    1  A    between atoms: C3_3  and  N1_4 
REMARK    2  A    between atoms: N2_9  and  C8_10 
REMARK    3  A    between atoms: C8_10  and  C9_11 
ROOT
HETATM    1  N1  UNL     1      26.205   0.141  52.545  1.00  0.00    -0.294 N 
HETATM    2  C4  UNL     1      24.963  -0.345  53.127  1.00  0.00     0.149 C 
HETATM    3  C5  UNL     1      24.072   0.747  53.622  1.00  0.00     0.029 C 
HETATM    4  C6  UNL     1      24.108   2.013  52.832  1.00  0.00     0.081 C 
HETATM    5  C7  UNL     1      24.871   1.911  51.558  1.00  0.00     0.113 C 
HETATM    6  N2  UNL     1      24.520   2.460  50.443  1.00  0.00    -0.271 NA
HETATM    7  N3  UNL     1      26.073   1.152  51.583  1.00  0.00    -0.285 N 
HETATM    8  H14 UNL     1      26.851   1.322  50.914  1.00  0.00     0.188 HD
ENDROOT
BRANCH   6   9
HETATM    9  C8  UNL     1      23.343   3.252  50.259  1.00  0.00     0.190 C 
BRANCH   9  10
HETATM   10  C9  UNL     1      23.720   4.665  50.153  1.00  0.00    -0.026 C 
HETATM   11  C10 UNL     1      23.910   5.759  50.852  1.00  0.00    -0.016 C 
HETATM   12  C11 UNL     1      23.753   6.881  50.184  1.00  0.00     0.032 C 
HETATM   13  C12 UNL     1      24.047   6.492  48.797  1.00  0.00     0.012 C 
HETATM   14 BR1  UNL     1      24.380   7.696  47.364  1.00  0.00    -0.051 Br
HETATM   15  C13 UNL     1      24.025   5.154  48.792  1.00  0.00     0.029 C 
ENDBRANCH   9  10
ENDBRANCH   6   9
BRANCH   1  16
HETATM   16  C3  UNL     1      27.502  -0.375  52.925  1.00  0.00     0.034 A 
HETATM   17  C2  UNL     1      28.342   0.533  53.381  1.00  0.00    -0.038 A 
HETATM   18  C1  UNL     1      28.021   1.949  53.504  1.00  0.00     0.050 C 
HETATM   19  C17 UNL     1      29.639  -0.010  53.760  1.00  0.00     0.005 A 
HETATM   20  C16 UNL     1      29.726  -1.315  53.572  1.00  0.00    -0.026 A 
HETATM   21  C15 UNL     1      28.842  -2.388  53.073  1.00  0.00     0.033 A 
HETATM   22  C14 UNL     1      27.500  -1.833  52.677  1.00  0.00     0.063 A 
ENDBRANCH   1  16
TORSDOF 3
ENDMDL
MODEL 8
REMARK VINA RESULT:      -7.1      4.286      7.188
REMARK  3 active torsions:
REMARK  status: ('A' for Active; 'I' for Inactive)
REMARK    1  A    between atoms: C3_3  and  N1_4 
REMARK    2  A    between atoms: N2_9  and  C8_10 
REMARK    3  A    between atoms: C8_10  and  C9_11 
ROOT
HETATM    1  N1  UNL     1      24.088   4.217  49.904  1.00  0.00    -0.294 N 
HETATM    2  C4  UNL     1      23.563   4.545  51.221  1.00  0.00     0.149 C 
HETATM    3  C5  UNL     1      22.101   4.850  51.218  1.00  0.00     0.029 C 
HETATM    4  C6  UNL     1      21.285   4.077  50.236  1.00  0.00     0.081 C 
HETATM    5  C7  UNL     1      22.029   2.979  49.561  1.00  0.00     0.113 C 
HETATM    6  N2  UNL     1      21.541   1.814  49.292  1.00  0.00    -0.271 NA
HETATM    7  N3  UNL     1      23.377   3.244  49.189  1.00  0.00    -0.285 N 
HETATM    8  H14 UNL     1      23.847   2.740  48.409  1.00  0.00     0.188 HD
ENDROOT
BRANCH   6   9
HETATM    9  C8  UNL     1      20.208   1.398  49.600  1.00  0.00     0.190 C 
BRANCH   9  10
HETATM   10  C9  UNL     1      20.210   0.661  50.869  1.00  0.00    -0.026 C 
HETATM   11  C10 UNL     1      19.431   0.172  51.803  1.00  0.00    -0.016 C 
HETATM   12  C11 UNL     1      19.993   0.041  52.985  1.00  0.00     0.032 C 
HETATM   13  C12 UNL     1      21.420  -0.108  52.665  1.00  0.00     0.012 C 
HETATM   14 BR1  UNL     1      22.760  -0.716  53.870  1.00  0.00    -0.051 Br
HETATM   15  C13 UNL     1      21.538   0.269  51.387  1.00  0.00     0.029 C 
ENDBRANCH   9  10
ENDBRANCH   6   9
BRANCH   1  16
HETATM   16  C3  UNL     1      25.267   4.847  49.353  1.00  0.00     0.034 A 
HETATM   17  C2  UNL     1      26.371   4.134  49.457  1.00  0.00    -0.038 A 
HETATM   18  C1  UNL     1      26.431   2.814  50.072  1.00  0.00     0.050 C 
HETATM   19  C17 UNL     1      27.544   4.787  48.893  1.00  0.00     0.005 A 
HETATM   20  C16 UNL     1      27.276   5.975  48.383  1.00  0.00    -0.026 A 
HETATM   21  C15 UNL     1      26.083   6.833  48.229  1.00  0.00     0.033 A 
HETATM   22  C14 UNL     1      24.867   6.165  48.813  1.00  0.00     0.063 A 
ENDBRANCH   1  16
TORSDOF 3
ENDMDL
MODEL 9
REMARK VINA RESULT:      -7.0      4.858      7.774
REMARK  3 active torsions:
REMARK  status: ('A' for Active; 'I' for Inactive)
REMARK    1  A    between atoms: C3_3  and  N1_4 
REMARK    2  A    between atoms: N2_9  and  C8_10 
REMARK    3  A    between atoms: C8_10  and  C9_11 
ROOT
HETATM    1  N1  UNL     1      20.645   1.267  51.477  1.00  0.00    -0.294 N 
HETATM    2  C4  UNL     1      20.689   2.712  51.310  1.00  0.00     0.149 C 
HETATM    3  C5  UNL     1      21.565   3.398  52.308  1.00  0.00     0.029 C 
HETATM    4  C6  UNL     1      22.775   2.634  52.733  1.00  0.00     0.081 C 
HETATM    5  C7  UNL     1      23.023   1.401  51.939  1.00  0.00     0.113 C 
HETATM    6  N2  UNL     1      24.188   0.989  51.561  1.00  0.00    -0.271 NA
HETATM    7  N3  UNL     1      21.887   0.625  51.575  1.00  0.00    -0.285 N 
HETATM    8  H14 UNL     1      21.950  -0.395  51.381  1.00  0.00     0.188 HD
ENDROOT
BRANCH   6   9
HETATM    9  C8  UNL     1      25.420   1.654  51.848  1.00  0.00     0.190 C 
BRANCH   9  10
HETATM   10  C9  UNL     1      26.140   0.917  52.892  1.00  0.00    -0.026 C 
HETATM   11  C10 UNL     1      26.102   0.579  54.159  1.00  0.00    -0.016 C 
HETATM   12  C11 UNL     1      27.272   0.325  54.703  1.00  0.00     0.032 C 
HETATM   13  C12 UNL     1      28.092  -0.097  53.559  1.00  0.00     0.012 C 
HETATM   14 BR1  UNL     1      29.776  -0.972  53.675  1.00  0.00    -0.051 Br
HETATM   15  C13 UNL     1      27.398   0.264  52.473  1.00  0.00     0.029 C 
ENDBRANCH   9  10
ENDBRANCH   6   9
BRANCH   1  16
HETATM   16  C3  UNL     1      19.405   0.524  51.541  1.00  0.00     0.034 A 
HETATM   17  C2  UNL     1      19.206  -0.117  52.675  1.00  0.00    -0.038 A 
HETATM   18  C1  UNL     1      20.140  -0.099  53.794  1.00  0.00     0.050 C 
HETATM   19  C17 UNL     1      17.951  -0.854  52.717  1.00  0.00     0.005 A 
HETATM   20  C16 UNL     1      17.249  -0.739  51.604  1.00  0.00    -0.026 A 
HETATM   21  C15 UNL     1      17.400  -0.049  50.307  1.00  0.00     0.033 A 
HETATM   22  C14 UNL     1      18.698   0.713  50.255  1.00  0.00     0.063 A 
ENDBRANCH   1  16
TORSDOF 3
ENDMDL
