MODEL 1
REMARK VINA RESULT:      -7.1      0.000      0.000
REMARK  6 active torsions:
REMARK  status: ('A' for Active; 'I' for Inactive)
REMARK    1  A    between atoms: C5_7  and  C6_8 
REMARK    2  A    between atoms: C8_10  and  O1_11 
REMARK    3  A    between atoms: C10_13  and  N3_14 
REMARK       I    between atoms: N3_14  and  C11_15 
REMARK    4  A    between atoms: C11_15  and  C12_17 
REMARK    5  A    between atoms: C12_17  and  N4_18 
REMARK       I    between atoms: N4_18  and  C13_19 
REMARK    6  A    between atoms: C13_19  and  O4_21 
ROOT
HETATM    1  C6  UNL     1      24.756   0.667  53.383  1.00  0.00     0.067 A 
HETATM    2  C7  UNL     1      23.369   0.184  53.728  1.00  0.00     0.026 A 
HETATM    3  C8  UNL     1      22.119   0.228  53.263  1.00  0.00     0.092 A 
HETATM    4  C10 UNL     1      21.883   0.961  52.019  1.00  0.00     0.068 A 
HETATM    5  C15 UNL     1      22.832   1.571  51.343  1.00  0.00     0.037 A 
HETATM    6  P1  UNL     1      24.597   1.644  51.786  1.00  0.00    -0.092 P 
HETATM    7  H19 UNL     1      24.984   3.033  51.980  1.00  0.00     0.062 HD
ENDROOT
BRANCH   4   8
HETATM    8  N3  UNL     1      20.619   1.109  51.369  1.00  0.00    -0.323 N 
HETATM    9  C11 UNL     1      19.747   2.190  51.668  1.00  0.00     0.240 C 
HETATM   10  O2  UNL     1      19.685   3.207  52.412  1.00  0.00    -0.271 OA
HETATM   11  H11 UNL     1      20.238   0.465  50.651  1.00  0.00     0.169 HD
BRANCH   9  12
HETATM   12  C12 UNL     1      18.430   2.363  50.994  1.00  0.00     0.227 C 
BRANCH  12  13
HETATM   13  N4  UNL     1      17.610   3.355  51.638  1.00  0.00    -0.328 N 
HETATM   14  C13 UNL     1      16.220   3.260  51.910  1.00  0.00     0.360 C 
HETATM   15  O3  UNL     1      15.546   2.230  51.585  1.00  0.00    -0.239 OA
HETATM   16  H14 UNL     1      18.121   4.248  51.926  1.00  0.00     0.165 HD
BRANCH  14  17
HETATM   17  O4  UNL     1      15.639   4.322  52.529  1.00  0.00    -0.309 OA
HETATM   18  C14 UNL     1      14.676   4.297  53.558  1.00  0.00     0.215 C 
ENDBRANCH  14  17
ENDBRANCH  12  13
ENDBRANCH   9  12
ENDBRANCH   4   8
BRANCH   3  19
HETATM   19  O1  UNL     1      20.924  -0.310  53.750  1.00  0.00    -0.354 OA
HETATM   20  C9  UNL     1      20.846  -1.608  54.276  1.00  0.00     0.210 C 
ENDBRANCH   3  19
BRANCH   1  21
HETATM   21  C5  UNL     1      25.641  -0.458  53.143  1.00  0.00     0.037 C 
HETATM   22  C4  UNL     1      26.763  -1.117  53.098  1.00  0.00     0.127 A 
HETATM   23  N2  UNL     1      27.851  -1.867  53.015  1.00  0.00    -0.227 NA
HETATM   24  N5  UNL     1      27.418   0.111  53.668  1.00  0.00    -0.328 N 
HETATM   25  C3  UNL     1      29.040  -1.910  53.212  1.00  0.00     0.211 A 
HETATM   26  N1  UNL     1      29.718  -0.794  53.746  1.00  0.00    -0.338 N 
HETATM   27  C2  UNL     1      28.837   0.322  54.001  1.00  0.00     0.097 A 
HETATM   28  H3  UNL     1      30.736  -0.895  53.891  1.00  0.00     0.168 HD
HETATM   29  C1  UNL     1      29.460   1.409  54.524  1.00  0.00     0.063 C 
HETATM   30  H20 UNL     1      27.094   1.109  53.982  1.00  0.00     0.169 HD
ENDBRANCH   1  21
TORSDOF 6
ENDMDL
MODEL 2
REMARK VINA RESULT:      -7.0      6.228      7.868
REMARK  6 active torsions:
REMARK  status: ('A' for Active; 'I' for Inactive)
REMARK    1  A    between atoms: C5_7  and  C6_8 
REMARK    2  A    between atoms: C8_10  and  O1_11 
REMARK    3  A    between atoms: C10_13  and  N3_14 
REMARK       I    between atoms: N3_14  and  C11_15 
REMARK    4  A    between atoms: C11_15  and  C12_17 
REMARK    5  A    between atoms: C12_17  and  N4_18 
REMARK       I    between atoms: N4_18  and  C13_19 
REMARK    6  A    between atoms: C13_19  and  O4_21 
ROOT
HETATM    1  C6  UNL     1      26.194   2.462  50.757  1.00  0.00     0.067 A 
HETATM    2  C7  UNL     1      26.780   3.511  49.845  1.00  0.00     0.026 A 
HETATM    3  C8  UNL     1      26.448   4.658  49.249  1.00  0.00     0.092 A 
HETATM    4  C10 UNL     1      25.094   5.170  49.468  1.00  0.00     0.068 A 
HETATM    5  C15 UNL     1      24.200   4.563  50.217  1.00  0.00     0.037 A 
HETATM    6  P1  UNL     1      24.430   2.998  51.119  1.00  0.00    -0.092 P 
HETATM    7  H19 UNL     1      23.472   2.019  50.628  1.00  0.00     0.062 HD
ENDROOT
BRANCH   4   8
HETATM    8  N3  UNL     1      24.565   6.379  48.921  1.00  0.00    -0.323 N 
HETATM    9  C11 UNL     1      24.227   7.486  49.744  1.00  0.00     0.240 C 
HETATM   10  O2  UNL     1      24.225   7.826  50.959  1.00  0.00    -0.271 OA
HETATM   11  H11 UNL     1      24.385   6.550  47.914  1.00  0.00     0.169 HD
BRANCH   9  12
HETATM   12  C12 UNL     1      23.682   8.757  49.189  1.00  0.00     0.227 C 
BRANCH  12  13
HETATM   13  N4  UNL     1      24.526   9.315  48.166  1.00  0.00    -0.328 N 
HETATM   14  C13 UNL     1      25.738  10.029  48.363  1.00  0.00     0.360 C 
HETATM   15  O3  UNL     1      26.201  10.246  49.529  1.00  0.00    -0.239 OA
HETATM   16  H14 UNL     1      24.183   9.170  47.165  1.00  0.00     0.165 HD
BRANCH  14  17
HETATM   17  O4  UNL     1      26.379  10.473  47.249  1.00  0.00    -0.309 OA
HETATM   18  C14 UNL     1      27.748  10.352  46.939  1.00  0.00     0.215 C 
ENDBRANCH  14  17
ENDBRANCH  12  13
ENDBRANCH   9  12
ENDBRANCH   4   8
BRANCH   3  19
HETATM   19  O1  UNL     1      27.167   5.514  48.410  1.00  0.00    -0.354 OA
HETATM   20  C9  UNL     1      28.567   5.485  48.331  1.00  0.00     0.210 C 
ENDBRANCH   3  19
BRANCH   1  21
HETATM   21  C5  UNL     1      26.922   2.414  52.011  1.00  0.00     0.037 C 
HETATM   22  C4  UNL     1      27.488   1.877  53.053  1.00  0.00     0.127 A 
HETATM   23  N2  UNL     1      28.088   1.425  54.143  1.00  0.00    -0.227 NA
HETATM   24  N5  UNL     1      27.105   0.542  52.476  1.00  0.00    -0.328 N 
HETATM   25  C3  UNL     1      28.401   0.440  54.765  1.00  0.00     0.211 A 
HETATM   26  N1  UNL     1      28.074  -0.845  54.281  1.00  0.00    -0.338 N 
HETATM   27  C2  UNL     1      27.362  -0.801  53.025  1.00  0.00     0.097 A 
HETATM   28  H3  UNL     1      28.369  -1.648  54.860  1.00  0.00     0.168 HD
HETATM   29  C1  UNL     1      27.040  -2.024  52.530  1.00  0.00     0.063 C 
HETATM   30  H20 UNL     1      26.586   0.184  51.581  1.00  0.00     0.169 HD
ENDBRANCH   1  21
TORSDOF 6
ENDMDL
MODEL 3
REMARK VINA RESULT:      -6.8      2.125      3.199
REMARK  6 active torsions:
REMARK  status: ('A' for Active; 'I' for Inactive)
REMARK    1  A    between atoms: C5_7  and  C6_8 
REMARK    2  A    between atoms: C8_10  and  O1_11 
REMARK    3  A    between atoms: C10_13  and  N3_14 
REMARK       I    between atoms: N3_14  and  C11_15 
REMARK    4  A    between atoms: C11_15  and  C12_17 
REMARK    5  A    between atoms: C12_17  and  N4_18 
REMARK       I    between atoms: N4_18  and  C13_19 
REMARK    6  A    between atoms: C13_19  and  O4_21 
ROOT
HETATM    1  C6  UNL     1      23.566   1.049  52.034  1.00  0.00     0.067 A 
HETATM    2  C7  UNL     1      23.340   2.209  51.097  1.00  0.00     0.026 A 
HETATM    3  C8  UNL     1      22.390   3.079  50.747  1.00  0.00     0.092 A 
HETATM    4  C10 UNL     1      21.092   2.973  51.416  1.00  0.00     0.068 A 
HETATM    5  C15 UNL     1      20.820   2.074  52.336  1.00  0.00     0.037 A 
HETATM    6  P1  UNL     1      21.954   0.794  52.966  1.00  0.00    -0.092 P 
HETATM    7  H19 UNL     1      21.391  -0.519  52.692  1.00  0.00     0.062 HD
ENDROOT
BRANCH   4   8
HETATM    8  N3  UNL     1      19.964   3.817  51.179  1.00  0.00    -0.323 N 
HETATM    9  C11 UNL     1      18.925   3.441  50.286  1.00  0.00     0.240 C 
HETATM   10  O2  UNL     1      18.603   2.494  49.518  1.00  0.00    -0.271 OA
HETATM   11  H11 UNL     1      19.810   4.744  51.617  1.00  0.00     0.169 HD
BRANCH   9  12
HETATM   12  C12 UNL     1      17.738   4.306  50.034  1.00  0.00     0.227 C 
BRANCH  12  13
HETATM   13  N4  UNL     1      17.065   4.681  51.249  1.00  0.00    -0.328 N 
HETATM   14  C13 UNL     1      16.230   3.852  52.046  1.00  0.00     0.360 C 
HETATM   15  O3  UNL     1      15.996   2.642  51.729  1.00  0.00    -0.239 OA
HETATM   16  H14 UNL     1      17.217   5.691  51.560  1.00  0.00     0.165 HD
BRANCH  14  17
HETATM   17  O4  UNL     1      15.688   4.413  53.159  1.00  0.00    -0.309 OA
HETATM   18  C14 UNL     1      14.347   4.350  53.588  1.00  0.00     0.215 C 
ENDBRANCH  14  17
ENDBRANCH  12  13
ENDBRANCH   9  12
ENDBRANCH   4   8
BRANCH   3  19
HETATM   19  O1  UNL     1      22.380   4.124  49.820  1.00  0.00    -0.354 OA
HETATM   20  C9  UNL     1      23.003   5.356  50.071  1.00  0.00     0.210 C 
ENDBRANCH   3  19
BRANCH   1  21
HETATM   21  C5  UNL     1      24.603   1.368  52.997  1.00  0.00     0.037 C 
HETATM   22  C4  UNL     1      25.688   1.199  53.697  1.00  0.00     0.127 A 
HETATM   23  N2  UNL     1      26.773   1.117  54.451  1.00  0.00    -0.227 NA
HETATM   24  N5  UNL     1      25.865  -0.102  52.963  1.00  0.00    -0.328 N 
HETATM   25  C3  UNL     1      27.739   0.450  54.727  1.00  0.00     0.211 A 
HETATM   26  N1  UNL     1      27.967  -0.781  54.076  1.00  0.00    -0.338 N 
HETATM   27  C2  UNL     1      26.944  -1.094  53.105  1.00  0.00     0.097 A 
HETATM   28  H3  UNL     1      28.812  -1.305  54.357  1.00  0.00     0.168 HD
HETATM   29  C1  UNL     1      27.141  -2.271  52.456  1.00  0.00     0.063 C 
HETATM   30  H20 UNL     1      25.325  -0.655  52.188  1.00  0.00     0.169 HD
ENDBRANCH   1  21
TORSDOF 6
ENDMDL
MODEL 4
REMARK VINA RESULT:      -6.8      1.794      2.195
REMARK  6 active torsions:
REMARK  status: ('A' for Active; 'I' for Inactive)
REMARK    1  A    between atoms: C5_7  and  C6_8 
REMARK    2  A    between atoms: C8_10  and  O1_11 
REMARK    3  A    between atoms: C10_13  and  N3_14 
REMARK       I    between atoms: N3_14  and  C11_15 
REMARK    4  A    between atoms: C11_15  and  C12_17 
REMARK    5  A    between atoms: C12_17  and  N4_18 
REMARK       I    between atoms: N4_18  and  C13_19 
REMARK    6  A    between atoms: C13_19  and  O4_21 
ROOT
HETATM    1  C6  UNL     1      24.780   0.682  53.266  1.00  0.00     0.067 A 
HETATM    2  C7  UNL     1      23.383   0.112  53.258  1.00  0.00     0.026 A 
HETATM    3  C8  UNL     1      22.261   0.147  52.535  1.00  0.00     0.092 A 
HETATM    4  C10 UNL     1      22.255   0.982  51.333  1.00  0.00     0.068 A 
HETATM    5  C15 UNL     1      23.288   1.689  50.934  1.00  0.00     0.037 A 
HETATM    6  P1  UNL     1      24.909   1.795  51.758  1.00  0.00    -0.092 P 
HETATM    7  H19 UNL     1      25.160   3.175  52.144  1.00  0.00     0.062 HD
ENDROOT
BRANCH   4   8
HETATM    8  N3  UNL     1      21.154   1.136  50.436  1.00  0.00    -0.323 N 
HETATM    9  C11 UNL     1      20.131   2.094  50.667  1.00  0.00     0.240 C 
HETATM   10  O2  UNL     1      19.803   2.980  51.504  1.00  0.00    -0.271 OA
HETATM   11  H11 UNL     1      21.006   0.583  49.571  1.00  0.00     0.169 HD
BRANCH   9  12
HETATM   12  C12 UNL     1      18.980   2.274  49.737  1.00  0.00     0.227 C 
BRANCH  12  13
HETATM   13  N4  UNL     1      18.252   1.051  49.524  1.00  0.00    -0.328 N 
HETATM   14  C13 UNL     1      17.221   0.523  50.345  1.00  0.00     0.360 C 
HETATM   15  O3  UNL     1      16.837   1.125  51.400  1.00  0.00    -0.239 OA
HETATM   16  H14 UNL     1      18.539   0.498  48.656  1.00  0.00     0.165 HD
BRANCH  14  17
HETATM   17  O4  UNL     1      16.667  -0.656  49.958  1.00  0.00    -0.309 OA
HETATM   18  C14 UNL     1      15.930  -0.916  48.785  1.00  0.00     0.215 C 
ENDBRANCH  14  17
ENDBRANCH  12  13
ENDBRANCH   9  12
ENDBRANCH   4   8
BRANCH   3  19
HETATM   19  O1  UNL     1      21.025  -0.482  52.703  1.00  0.00    -0.354 OA
HETATM   20  C9  UNL     1      20.136  -0.126  53.729  1.00  0.00     0.210 C 
ENDBRANCH   3  19
BRANCH   1  21
HETATM   21  C5  UNL     1      25.761  -0.378  53.137  1.00  0.00     0.037 C 
HETATM   22  C4  UNL     1      26.937  -0.939  53.161  1.00  0.00     0.127 A 
HETATM   23  N2  UNL     1      28.086  -1.596  53.156  1.00  0.00    -0.227 NA
HETATM   24  N5  UNL     1      27.474   0.387  53.626  1.00  0.00    -0.328 N 
HETATM   25  C3  UNL     1      29.271  -1.518  53.368  1.00  0.00     0.211 A 
HETATM   26  N1  UNL     1      29.842  -0.305  53.807  1.00  0.00    -0.338 N 
HETATM   27  C2  UNL     1      28.864   0.748  53.952  1.00  0.00     0.097 A 
HETATM   28  H3  UNL     1      30.862  -0.304  53.971  1.00  0.00     0.168 HD
HETATM   29  C1  UNL     1      29.382   1.928  54.383  1.00  0.00     0.063 C 
HETATM   30  H20 UNL     1      27.060   1.376  53.847  1.00  0.00     0.169 HD
ENDBRANCH   1  21
TORSDOF 6
ENDMDL
MODEL 5
REMARK VINA RESULT:      -6.8      1.676      2.381
REMARK  6 active torsions:
REMARK  status: ('A' for Active; 'I' for Inactive)
REMARK    1  A    between atoms: C5_7  and  C6_8 
REMARK    2  A    between atoms: C8_10  and  O1_11 
REMARK    3  A    between atoms: C10_13  and  N3_14 
REMARK       I    between atoms: N3_14  and  C11_15 
REMARK    4  A    between atoms: C11_15  and  C12_17 
REMARK    5  A    between atoms: C12_17  and  N4_18 
REMARK       I    between atoms: N4_18  and  C13_19 
REMARK    6  A    between atoms: C13_19  and  O4_21 
ROOT
HETATM    1  C6  UNL     1      24.766   0.648  53.361  1.00  0.00     0.067 A 
HETATM    2  C7  UNL     1      23.390   0.171  53.754  1.00  0.00     0.026 A 
HETATM    3  C8  UNL     1      22.127   0.203  53.322  1.00  0.00     0.092 A 
HETATM    4  C10 UNL     1      21.856   0.909  52.069  1.00  0.00     0.068 A 
HETATM    5  C15 UNL     1      22.785   1.505  51.355  1.00  0.00     0.037 A 
HETATM    6  P1  UNL     1      24.562   1.590  51.748  1.00  0.00    -0.092 P 
HETATM    7  H19 UNL     1      24.951   2.984  51.901  1.00  0.00     0.062 HD
ENDROOT
BRANCH   4   8
HETATM    8  N3  UNL     1      20.575   1.041  51.451  1.00  0.00    -0.323 N 
HETATM    9  C11 UNL     1      19.697   2.110  51.773  1.00  0.00     0.240 C 
HETATM   10  O2  UNL     1      19.639   3.125  52.519  1.00  0.00    -0.271 OA
HETATM   11  H11 UNL     1      20.185   0.392  50.742  1.00  0.00     0.169 HD
BRANCH   9  12
HETATM   12  C12 UNL     1      18.361   2.266  51.131  1.00  0.00     0.227 C 
BRANCH  12  13
HETATM   13  N4  UNL     1      18.457   2.505  49.716  1.00  0.00    -0.328 N 
HETATM   14  C13 UNL     1      18.566   3.767  49.074  1.00  0.00     0.360 C 
HETATM   15  O3  UNL     1      18.586   4.853  49.739  1.00  0.00    -0.239 OA
HETATM   16  H14 UNL     1      18.436   1.629  49.105  1.00  0.00     0.165 HD
BRANCH  14  17
HETATM   17  O4  UNL     1      18.642   3.764  47.716  1.00  0.00    -0.309 OA
HETATM   18  C14 UNL     1      19.745   3.403  46.918  1.00  0.00     0.215 C 
ENDBRANCH  14  17
ENDBRANCH  12  13
ENDBRANCH   9  12
ENDBRANCH   4   8
BRANCH   3  19
HETATM   19  O1  UNL     1      20.948  -0.326  53.853  1.00  0.00    -0.354 OA
HETATM   20  C9  UNL     1      20.858  -1.650  54.308  1.00  0.00     0.210 C 
ENDBRANCH   3  19
BRANCH   1  21
HETATM   21  C5  UNL     1      25.646  -0.480  53.122  1.00  0.00     0.037 C 
HETATM   22  C4  UNL     1      26.765  -1.145  53.081  1.00  0.00     0.127 A 
HETATM   23  N2  UNL     1      27.849  -1.900  53.002  1.00  0.00    -0.227 NA
HETATM   24  N5  UNL     1      27.422   0.077  53.663  1.00  0.00    -0.328 N 
HETATM   25  C3  UNL     1      29.037  -1.952  53.208  1.00  0.00     0.211 A 
HETATM   26  N1  UNL     1      29.717  -0.842  53.754  1.00  0.00    -0.338 N 
HETATM   27  C2  UNL     1      28.840   0.277  54.008  1.00  0.00     0.097 A 
HETATM   28  H3  UNL     1      30.733  -0.950  53.906  1.00  0.00     0.168 HD
HETATM   29  C1  UNL     1      29.465   1.358  54.542  1.00  0.00     0.063 C 
HETATM   30  H20 UNL     1      27.102   1.074  53.980  1.00  0.00     0.169 HD
ENDBRANCH   1  21
TORSDOF 6
ENDMDL
MODEL 6
REMARK VINA RESULT:      -6.7      5.320      7.392
REMARK  6 active torsions:
REMARK  status: ('A' for Active; 'I' for Inactive)
REMARK    1  A    between atoms: C5_7  and  C6_8 
REMARK    2  A    between atoms: C8_10  and  O1_11 
REMARK    3  A    between atoms: C10_13  and  N3_14 
REMARK       I    between atoms: N3_14  and  C11_15 
REMARK    4  A    between atoms: C11_15  and  C12_17 
REMARK    5  A    between atoms: C12_17  and  N4_18 
REMARK       I    between atoms: N4_18  and  C13_19 
REMARK    6  A    between atoms: C13_19  and  O4_21 
ROOT
HETATM    1  C6  UNL     1      22.312   1.056  51.783  1.00  0.00     0.067 A 
HETATM    2  C7  UNL     1      23.728   1.576  51.781  1.00  0.00     0.026 A 
HETATM    3  C8  UNL     1      24.401   2.728  51.832  1.00  0.00     0.092 A 
HETATM    4  C10 UNL     1      23.624   3.966  51.910  1.00  0.00     0.068 A 
HETATM    5  C15 UNL     1      22.310   3.998  51.933  1.00  0.00     0.037 A 
HETATM    6  P1  UNL     1      21.192   2.562  51.874  1.00  0.00    -0.092 P 
HETATM    7  H19 UNL     1      20.349   2.662  50.692  1.00  0.00     0.062 HD
ENDROOT
BRANCH   4   8
HETATM    8  N3  UNL     1      24.168   5.285  51.978  1.00  0.00    -0.323 N 
HETATM    9  C11 UNL     1      24.288   6.105  50.825  1.00  0.00     0.240 C 
HETATM   10  O2  UNL     1      24.052   6.075  49.586  1.00  0.00    -0.271 OA
HETATM   11  H11 UNL     1      24.514   5.743  52.842  1.00  0.00     0.169 HD
BRANCH   9  12
HETATM   12  C12 UNL     1      24.845   7.486  50.882  1.00  0.00     0.227 C 
BRANCH  12  13
HETATM   13  N4  UNL     1      26.194   7.553  50.384  1.00  0.00    -0.328 N 
HETATM   14  C13 UNL     1      26.901   8.725  50.005  1.00  0.00     0.360 C 
HETATM   15  O3  UNL     1      26.367   9.878  50.078  1.00  0.00    -0.239 OA
HETATM   16  H14 UNL     1      26.691   6.612  50.293  1.00  0.00     0.165 HD
BRANCH  14  17
HETATM   17  O4  UNL     1      28.174   8.558  49.556  1.00  0.00    -0.309 OA
HETATM   18  C14 UNL     1      29.163   9.548  49.391  1.00  0.00     0.215 C 
ENDBRANCH  14  17
ENDBRANCH  12  13
ENDBRANCH   9  12
ENDBRANCH   4   8
BRANCH   3  19
HETATM   19  O1  UNL     1      25.770   3.007  51.821  1.00  0.00    -0.354 OA
HETATM   20  C9  UNL     1      26.535   2.964  50.646  1.00  0.00     0.210 C 
ENDBRANCH   3  19
BRANCH   1  21
HETATM   21  C5  UNL     1      22.072   0.238  52.956  1.00  0.00     0.037 C 
HETATM   22  C4  UNL     1      22.366  -0.479  54.003  1.00  0.00     0.127 A 
HETATM   23  N2  UNL     1      22.563  -1.221  55.081  1.00  0.00    -0.227 NA
HETATM   24  N5  UNL     1      23.809  -0.175  53.710  1.00  0.00    -0.328 N 
HETATM   25  C3  UNL     1      23.392  -1.684  55.826  1.00  0.00     0.211 A 
HETATM   26  N1  UNL     1      24.765  -1.438  55.610  1.00  0.00    -0.338 N 
HETATM   27  C2  UNL     1      25.006  -0.610  54.451  1.00  0.00     0.097 A 
HETATM   28  H3  UNL     1      25.424  -1.863  56.283  1.00  0.00     0.168 HD
HETATM   29  C1  UNL     1      26.318  -0.348  54.223  1.00  0.00     0.063 C 
HETATM   30  H20 UNL     1      24.362   0.395  52.957  1.00  0.00     0.169 HD
ENDBRANCH   1  21
TORSDOF 6
ENDMDL
MODEL 7
REMARK VINA RESULT:      -6.7      4.935      6.058
REMARK  6 active torsions:
REMARK  status: ('A' for Active; 'I' for Inactive)
REMARK    1  A    between atoms: C5_7  and  C6_8 
REMARK    2  A    between atoms: C8_10  and  O1_11 
REMARK    3  A    between atoms: C10_13  and  N3_14 
REMARK       I    between atoms: N3_14  and  C11_15 
REMARK    4  A    between atoms: C11_15  and  C12_17 
REMARK    5  A    between atoms: C12_17  and  N4_18 
REMARK       I    between atoms: N4_18  and  C13_19 
REMARK    6  A    between atoms: C13_19  and  O4_21 
ROOT
HETATM    1  C6  UNL     1      26.160   2.381  50.801  1.00  0.00     0.067 A 
HETATM    2  C7  UNL     1      26.615   3.519  49.921  1.00  0.00     0.026 A 
HETATM    3  C8  UNL     1      26.151   4.643  49.370  1.00  0.00     0.092 A 
HETATM    4  C10 UNL     1      24.753   4.995  49.620  1.00  0.00     0.068 A 
HETATM    5  C15 UNL     1      23.941   4.267  50.355  1.00  0.00     0.037 A 
HETATM    6  P1  UNL     1      24.353   2.706  51.199  1.00  0.00    -0.092 P 
HETATM    7  H19 UNL     1      23.502   1.645  50.683  1.00  0.00     0.062 HD
ENDROOT
BRANCH   4   8
HETATM    8  N3  UNL     1      24.087   6.156  49.122  1.00  0.00    -0.323 N 
HETATM    9  C11 UNL     1      23.861   7.296  49.939  1.00  0.00     0.240 C 
HETATM   10  O2  UNL     1      24.067   7.700  51.116  1.00  0.00    -0.271 OA
HETATM   11  H11 UNL     1      23.721   6.267  48.158  1.00  0.00     0.169 HD
BRANCH   9  12
HETATM   12  C12 UNL     1      23.175   8.518  49.433  1.00  0.00     0.227 C 
BRANCH  12  13
HETATM   13  N4  UNL     1      22.032   8.206  48.616  1.00  0.00    -0.328 N 
HETATM   14  C13 UNL     1      20.668   8.277  49.005  1.00  0.00     0.360 C 
HETATM   15  O3  UNL     1      20.327   8.641  50.177  1.00  0.00    -0.239 OA
HETATM   16  H14 UNL     1      22.257   7.885  47.623  1.00  0.00     0.165 HD
BRANCH  14  17
HETATM   17  O4  UNL     1      19.742   7.932  48.071  1.00  0.00    -0.309 OA
HETATM   18  C14 UNL     1      19.083   6.695  47.930  1.00  0.00     0.215 C 
ENDBRANCH  14  17
ENDBRANCH  12  13
ENDBRANCH   9  12
ENDBRANCH   4   8
BRANCH   3  19
HETATM   19  O1  UNL     1      26.760   5.600  48.555  1.00  0.00    -0.354 OA
HETATM   20  C9  UNL     1      28.150   5.651  48.368  1.00  0.00     0.210 C 
ENDBRANCH   3  19
BRANCH   1  21
HETATM   21  C5  UNL     1      26.906   2.370  52.045  1.00  0.00     0.037 C 
HETATM   22  C4  UNL     1      27.508   1.863  53.082  1.00  0.00     0.127 A 
HETATM   23  N2  UNL     1      28.141   1.443  54.166  1.00  0.00    -0.227 NA
HETATM   24  N5  UNL     1      27.173   0.510  52.517  1.00  0.00    -0.328 N 
HETATM   25  C3  UNL     1      28.502   0.474  54.788  1.00  0.00     0.211 A 
HETATM   26  N1  UNL     1      28.223  -0.825  54.315  1.00  0.00    -0.338 N 
HETATM   27  C2  UNL     1      27.493  -0.818  53.069  1.00  0.00     0.097 A 
HETATM   28  H3  UNL     1      28.559  -1.612  54.894  1.00  0.00     0.168 HD
HETATM   29  C1  UNL     1      27.216  -2.056  52.583  1.00  0.00     0.063 C 
HETATM   30  H20 UNL     1      26.658   0.126  51.631  1.00  0.00     0.169 HD
ENDBRANCH   1  21
TORSDOF 6
ENDMDL
MODEL 8
REMARK VINA RESULT:      -6.6      5.936      9.001
REMARK  6 active torsions:
REMARK  status: ('A' for Active; 'I' for Inactive)
REMARK    1  A    between atoms: C5_7  and  C6_8 
REMARK    2  A    between atoms: C8_10  and  O1_11 
REMARK    3  A    between atoms: C10_13  and  N3_14 
REMARK       I    between atoms: N3_14  and  C11_15 
REMARK    4  A    between atoms: C11_15  and  C12_17 
REMARK    5  A    between atoms: C12_17  and  N4_18 
REMARK       I    between atoms: N4_18  and  C13_19 
REMARK    6  A    between atoms: C13_19  and  O4_21 
ROOT
HETATM    1  C6  UNL     1      25.476   5.494  49.004  1.00  0.00     0.067 A 
HETATM    2  C7  UNL     1      24.346   4.838  49.758  1.00  0.00     0.026 A 
HETATM    3  C8  UNL     1      24.099   3.769  50.517  1.00  0.00     0.092 A 
HETATM    4  C10 UNL     1      25.207   2.847  50.772  1.00  0.00     0.068 A 
HETATM    5  C15 UNL     1      26.420   3.020  50.296  1.00  0.00     0.037 A 
HETATM    6  P1  UNL     1      26.982   4.396  49.243  1.00  0.00    -0.092 P 
HETATM    7  H19 UNL     1      27.452   3.864  47.973  1.00  0.00     0.062 HD
ENDROOT
BRANCH   4   8
HETATM    8  N3  UNL     1      25.134   1.660  51.564  1.00  0.00    -0.323 N 
HETATM    9  C11 UNL     1      25.318   1.688  52.972  1.00  0.00     0.240 C 
HETATM   10  O2  UNL     1      25.560   2.506  53.901  1.00  0.00    -0.271 OA
HETATM   11  H11 UNL     1      24.950   0.707  51.195  1.00  0.00     0.169 HD
BRANCH   9  12
HETATM   12  C12 UNL     1      25.237   0.460  53.812  1.00  0.00     0.227 C 
BRANCH  12  13
HETATM   13  N4  UNL     1      26.368  -0.409  53.622  1.00  0.00    -0.328 N 
HETATM   14  C13 UNL     1      27.650  -0.275  54.218  1.00  0.00     0.360 C 
HETATM   15  O3  UNL     1      27.919   0.683  55.012  1.00  0.00    -0.239 OA
HETATM   16  H14 UNL     1      26.204  -1.228  52.957  1.00  0.00     0.165 HD
BRANCH  14  17
HETATM   17  O4  UNL     1      28.581  -1.213  53.896  1.00  0.00    -0.309 OA
HETATM   18  C14 UNL     1      29.960  -1.018  53.681  1.00  0.00     0.215 C 
ENDBRANCH  14  17
ENDBRANCH  12  13
ENDBRANCH   9  12
ENDBRANCH   4   8
BRANCH   3  19
HETATM   19  O1  UNL     1      22.935   3.324  51.150  1.00  0.00    -0.354 OA
HETATM   20  C9  UNL     1      22.355   4.015  52.224  1.00  0.00     0.210 C 
ENDBRANCH   3  19
BRANCH   1  21
HETATM   21  C5  UNL     1      25.770   6.799  49.563  1.00  0.00     0.037 C 
HETATM   22  C4  UNL     1      26.469   7.868  49.822  1.00  0.00     0.127 A 
HETATM   23  N2  UNL     1      27.098   8.988  50.138  1.00  0.00    -0.227 NA
HETATM   24  N5  UNL     1      27.555   7.269  48.971  1.00  0.00    -0.328 N 
HETATM   25  C3  UNL     1      28.114   9.625  50.002  1.00  0.00     0.211 A 
HETATM   26  N1  UNL     1      29.173   9.123  49.217  1.00  0.00    -0.338 N 
HETATM   27  C2  UNL     1      28.877   7.830  48.646  1.00  0.00     0.097 A 
HETATM   28  H3  UNL     1      30.016   9.716  49.140  1.00  0.00     0.168 HD
HETATM   29  C1  UNL     1      29.876   7.324  47.877  1.00  0.00     0.063 C 
HETATM   30  H20 UNL     1      27.693   6.349  48.393  1.00  0.00     0.169 HD
ENDBRANCH   1  21
TORSDOF 6
ENDMDL
MODEL 9
REMARK VINA RESULT:      -6.4      5.697      8.628
REMARK  6 active torsions:
REMARK  status: ('A' for Active; 'I' for Inactive)
REMARK    1  A    between atoms: C5_7  and  C6_8 
REMARK    2  A    between atoms: C8_10  and  O1_11 
REMARK    3  A    between atoms: C10_13  and  N3_14 
REMARK       I    between atoms: N3_14  and  C11_15 
REMARK    4  A    between atoms: C11_15  and  C12_17 
REMARK    5  A    between atoms: C12_17  and  N4_18 
REMARK       I    between atoms: N4_18  and  C13_19 
REMARK    6  A    between atoms: C13_19  and  O4_21 
ROOT
HETATM    1  C6  UNL     1      22.239   2.182  51.344  1.00  0.00     0.067 A 
HETATM    2  C7  UNL     1      23.454   2.559  50.533  1.00  0.00     0.026 A 
HETATM    3  C8  UNL     1      24.237   3.610  50.281  1.00  0.00     0.092 A 
HETATM    4  C10 UNL     1      23.911   4.874  50.943  1.00  0.00     0.068 A 
HETATM    5  C15 UNL     1      22.897   5.023  51.766  1.00  0.00     0.037 A 
HETATM    6  P1  UNL     1      21.703   3.737  52.254  1.00  0.00    -0.092 P 
HETATM    7  H19 UNL     1      20.367   4.148  51.849  1.00  0.00     0.062 HD
ENDROOT
BRANCH   4   8
HETATM    8  N3  UNL     1      24.636   6.097  50.801  1.00  0.00    -0.323 N 
HETATM    9  C11 UNL     1      24.274   7.072  49.834  1.00  0.00     0.240 C 
HETATM   10  O2  UNL     1      23.420   7.266  48.927  1.00  0.00    -0.271 OA
HETATM   11  H11 UNL     1      25.462   6.370  51.367  1.00  0.00     0.169 HD
BRANCH   9  12
HETATM   12  C12 UNL     1      25.015   8.356  49.679  1.00  0.00     0.227 C 
BRANCH  12  13
HETATM   13  N4  UNL     1      26.405   8.152  49.367  1.00  0.00    -0.328 N 
HETATM   14  C13 UNL     1      27.481   9.026  49.677  1.00  0.00     0.360 C 
HETATM   15  O3  UNL     1      27.290  10.126  50.290  1.00  0.00    -0.239 OA
HETATM   16  H14 UNL     1      26.625   7.247  48.844  1.00  0.00     0.165 HD
BRANCH  14  17
HETATM   17  O4  UNL     1      28.723   8.638  49.285  1.00  0.00    -0.309 OA
HETATM   18  C14 UNL     1      29.907   9.402  49.296  1.00  0.00     0.215 C 
ENDBRANCH  14  17
ENDBRANCH  12  13
ENDBRANCH   9  12
ENDBRANCH   4   8
BRANCH   3  19
HETATM   19  O1  UNL     1      25.363   3.758  49.467  1.00  0.00    -0.354 OA
HETATM   20  C9  UNL     1      26.595   3.161  49.775  1.00  0.00     0.210 C 
ENDBRANCH   3  19
BRANCH   1  21
HETATM   21  C5  UNL     1      22.578   1.172  52.328  1.00  0.00     0.037 C 
HETATM   22  C4  UNL     1      22.381   0.195  53.166  1.00  0.00     0.127 A 
HETATM   23  N2  UNL     1      22.280  -0.796  54.038  1.00  0.00    -0.227 NA
HETATM   24  N5  UNL     1      20.937   0.231  52.748  1.00  0.00    -0.328 N 
HETATM   25  C3  UNL     1      21.531  -1.588  54.555  1.00  0.00     0.211 A 
HETATM   26  N1  UNL     1      20.163  -1.610  54.208  1.00  0.00    -0.338 N 
HETATM   27  C2  UNL     1      19.826  -0.615  53.216  1.00  0.00     0.097 A 
HETATM   28  H3  UNL     1      19.575  -2.311  54.686  1.00  0.00     0.168 HD
HETATM   29  C1  UNL     1      18.516  -0.618  52.855  1.00  0.00     0.063 C 
HETATM   30  H20 UNL     1      20.328   0.815  52.050  1.00  0.00     0.169 HD
ENDBRANCH   1  21
TORSDOF 6
ENDMDL
