MODEL 1
REMARK VINA RESULT:      -8.3      0.000      0.000
REMARK  6 active torsions:
REMARK  status: ('A' for Active; 'I' for Inactive)
REMARK    1  A    between atoms: O1_2  and  C2_3 
REMARK    2  A    between atoms: C4_5  and  C5_6 
REMARK    3  A    between atoms: C5_6  and  C7_9 
REMARK       I    between atoms: C7_9  and  N2_10 
REMARK    4  A    between atoms: C9_13  and  S1_14 
REMARK    5  A    between atoms: S1_14  and  C10_15 
REMARK    6  A    between atoms: C17_22  and  O3_23 
ROOT
HETATM    1  C5  UNL     1      21.716  -0.588  52.930  1.00  0.00     0.217 C 
HETATM    2  C6  UNL     1      20.376  -0.127  52.491  1.00  0.00     0.078 C 
HETATM    3  N1  UNL     1      19.316   0.233  52.161  1.00  0.00    -0.196 NA
ENDROOT
BRANCH   1   4
HETATM    4  C4  UNL     1      22.725   0.428  52.523  1.00  0.00    -0.027 A 
HETATM    5  C3  UNL     1      22.459   1.304  51.491  1.00  0.00     0.048 A 
HETATM    6  C2  UNL     1      23.452   2.207  51.185  1.00  0.00     0.103 A 
HETATM    7  C17 UNL     1      24.663   2.257  51.860  1.00  0.00     0.116 A 
HETATM    8  C9  UNL     1      24.873   1.346  52.892  1.00  0.00     0.042 A 
HETATM    9  C8  UNL     1      23.896   0.412  53.238  1.00  0.00     0.031 A 
BRANCH   6  10
HETATM   10  O1  UNL     1      23.338   3.153  50.176  1.00  0.00    -0.353 OA
HETATM   11  C1  UNL     1      22.702   2.925  48.949  1.00  0.00     0.210 C 
ENDBRANCH   6  10
BRANCH   7  12
HETATM   12  O3  UNL     1      25.666   3.147  51.573  1.00  0.00    -0.357 OA
HETATM   13  H16 UNL     1      25.441   3.919  50.938  1.00  0.00     0.218 HD
ENDBRANCH   7  12
BRANCH   8  14
HETATM   14  S1  UNL     1      26.442   1.394  53.783  1.00  0.00    -0.087 SA
BRANCH  14  15
HETATM   15  C10 UNL     1      27.376  -0.096  53.476  1.00  0.00     0.011 A 
HETATM   16  C11 UNL     1      26.874  -1.259  52.929  1.00  0.00     0.019 A 
HETATM   17  C12 UNL     1      27.678  -2.365  52.729  1.00  0.00     0.001 A 
HETATM   18  C13 UNL     1      29.033  -2.346  53.074  1.00  0.00     0.001 A 
HETATM   19  C14 UNL     1      29.491  -1.174  53.614  1.00  0.00     0.008 A 
HETATM   20  C15 UNL     1      28.719  -0.051  53.827  1.00  0.00    -0.045 A 
HETATM   21  C16 UNL     1      29.339   1.167  54.424  1.00  0.00     0.049 C 
ENDBRANCH  14  15
ENDBRANCH   8  14
ENDBRANCH   1   4
BRANCH   1  22
HETATM   22  C7  UNL     1      21.631  -0.748  54.386  1.00  0.00     0.237 C 
HETATM   23  N2  UNL     1      20.793   0.253  54.956  1.00  0.00    -0.369 N 
HETATM   24  H6  UNL     1      20.782   0.708  55.892  1.00  0.00     0.159 HD
HETATM   25  H7  UNL     1      20.034   0.980  55.097  1.00  0.00     0.159 HD
HETATM   26  O2  UNL     1      22.076  -1.503  55.277  1.00  0.00    -0.272 OA
ENDBRANCH   1  22
TORSDOF 6
ENDMDL
MODEL 2
REMARK VINA RESULT:      -8.0      3.573      6.240
REMARK  6 active torsions:
REMARK  status: ('A' for Active; 'I' for Inactive)
REMARK    1  A    between atoms: O1_2  and  C2_3 
REMARK    2  A    between atoms: C4_5  and  C5_6 
REMARK    3  A    between atoms: C5_6  and  C7_9 
REMARK       I    between atoms: C7_9  and  N2_10 
REMARK    4  A    between atoms: C9_13  and  S1_14 
REMARK    5  A    between atoms: S1_14  and  C10_15 
REMARK    6  A    between atoms: C17_22  and  O3_23 
ROOT
HETATM    1  C5  UNL     1      27.410   0.237  52.783  1.00  0.00     0.217 C 
HETATM    2  C6  UNL     1      27.498  -1.240  52.896  1.00  0.00     0.078 C 
HETATM    3  N1  UNL     1      27.578  -2.398  52.999  1.00  0.00    -0.196 NA
ENDROOT
BRANCH   1   4
HETATM    4  C4  UNL     1      25.974   0.625  52.728  1.00  0.00    -0.027 A 
HETATM    5  C3  UNL     1      24.996  -0.248  53.163  1.00  0.00     0.048 A 
HETATM    6  C2  UNL     1      23.697   0.198  53.075  1.00  0.00     0.103 A 
HETATM    7  C17 UNL     1      23.358   1.450  52.581  1.00  0.00     0.116 A 
HETATM    8  C9  UNL     1      24.389   2.285  52.157  1.00  0.00     0.042 A 
HETATM    9  C8  UNL     1      25.721   1.877  52.227  1.00  0.00     0.031 A 
BRANCH   6  10
HETATM   10  O1  UNL     1      22.603  -0.559  53.470  1.00  0.00    -0.353 OA
HETATM   11  C1  UNL     1      22.406  -1.044  54.768  1.00  0.00     0.210 C 
ENDBRANCH   6  10
BRANCH   7  12
HETATM   12  O3  UNL     1      22.072   1.914  52.483  1.00  0.00    -0.357 OA
HETATM   13  H16 UNL     1      21.361   1.451  53.057  1.00  0.00     0.218 HD
ENDBRANCH   7  12
BRANCH   8  14
HETATM   14  S1  UNL     1      23.970   3.917  51.510  1.00  0.00    -0.087 SA
BRANCH  14  15
HETATM   15  C10 UNL     1      25.244   4.491  50.398  1.00  0.00     0.011 A 
HETATM   16  C11 UNL     1      26.189   3.696  49.783  1.00  0.00     0.019 A 
HETATM   17  C12 UNL     1      27.138   4.233  48.935  1.00  0.00     0.001 A 
HETATM   18  C13 UNL     1      27.177   5.605  48.670  1.00  0.00     0.001 A 
HETATM   19  C14 UNL     1      26.223   6.359  49.300  1.00  0.00     0.008 A 
HETATM   20  C15 UNL     1      25.260   5.857  50.151  1.00  0.00    -0.045 A 
HETATM   21  C16 UNL     1      24.274   6.785  50.777  1.00  0.00     0.049 C 
ENDBRANCH  14  15
ENDBRANCH   8  14
ENDBRANCH   1   4
BRANCH   1  22
HETATM   22  C7  UNL     1      28.097   0.776  53.962  1.00  0.00     0.237 C 
HETATM   23  N2  UNL     1      28.231  -0.224  54.967  1.00  0.00    -0.369 N 
HETATM   24  H6  UNL     1      28.286  -0.171  56.005  1.00  0.00     0.159 HD
HETATM   25  H7  UNL     1      28.332  -1.156  55.464  1.00  0.00     0.159 HD
HETATM   26  O2  UNL     1      28.600   1.852  54.347  1.00  0.00    -0.272 OA
ENDBRANCH   1  22
TORSDOF 6
ENDMDL
MODEL 3
REMARK VINA RESULT:      -7.9      3.703      5.156
REMARK  6 active torsions:
REMARK  status: ('A' for Active; 'I' for Inactive)
REMARK    1  A    between atoms: O1_2  and  C2_3 
REMARK    2  A    between atoms: C4_5  and  C5_6 
REMARK    3  A    between atoms: C5_6  and  C7_9 
REMARK       I    between atoms: C7_9  and  N2_10 
REMARK    4  A    between atoms: C9_13  and  S1_14 
REMARK    5  A    between atoms: S1_14  and  C10_15 
REMARK    6  A    between atoms: C17_22  and  O3_23 
ROOT
HETATM    1  C5  UNL     1      25.421   5.006  49.212  1.00  0.00     0.217 C 
HETATM    2  C6  UNL     1      26.848   4.701  48.940  1.00  0.00     0.078 C 
HETATM    3  N1  UNL     1      27.973   4.478  48.733  1.00  0.00    -0.196 NA
ENDROOT
BRANCH   1   4
HETATM    4  C4  UNL     1      24.826   3.865  49.961  1.00  0.00    -0.027 A 
HETATM    5  C3  UNL     1      23.753   3.170  49.440  1.00  0.00     0.048 A 
HETATM    6  C2  UNL     1      23.270   2.132  50.204  1.00  0.00     0.103 A 
HETATM    7  C17 UNL     1      23.812   1.779  51.431  1.00  0.00     0.116 A 
HETATM    8  C9  UNL     1      24.894   2.518  51.904  1.00  0.00     0.042 A 
HETATM    9  C8  UNL     1      25.417   3.580  51.166  1.00  0.00     0.031 A 
BRANCH   6  10
HETATM   10  O1  UNL     1      22.198   1.338  49.820  1.00  0.00    -0.353 OA
HETATM   11  C1  UNL     1      21.652   1.318  48.532  1.00  0.00     0.210 C 
ENDBRANCH   6  10
BRANCH   7  12
HETATM   12  O3  UNL     1      23.347   0.750  52.208  1.00  0.00    -0.357 OA
HETATM   13  H16 UNL     1      24.039   0.093  52.581  1.00  0.00     0.218 HD
ENDBRANCH   7  12
BRANCH   8  14
HETATM   14  S1  UNL     1      25.613   2.077  53.499  1.00  0.00    -0.087 SA
BRANCH  14  15
HETATM   15  C10 UNL     1      26.742   0.706  53.314  1.00  0.00     0.011 A 
HETATM   16  C11 UNL     1      26.382  -0.599  53.047  1.00  0.00     0.019 A 
HETATM   17  C12 UNL     1      27.331  -1.595  52.921  1.00  0.00     0.001 A 
HETATM   18  C13 UNL     1      28.694  -1.317  53.060  1.00  0.00     0.001 A 
HETATM   19  C14 UNL     1      29.009  -0.012  53.324  1.00  0.00     0.008 A 
HETATM   20  C15 UNL     1      28.090   1.009  53.456  1.00  0.00    -0.045 A 
HETATM   21  C16 UNL     1      28.562   2.394  53.746  1.00  0.00     0.049 C 
ENDBRANCH  14  15
ENDBRANCH   8  14
ENDBRANCH   1   4
BRANCH   1  22
HETATM   22  C7  UNL     1      25.413   6.254  49.983  1.00  0.00     0.237 C 
HETATM   23  N2  UNL     1      26.628   6.972  49.792  1.00  0.00    -0.369 N 
HETATM   24  H6  UNL     1      27.154   7.634  50.400  1.00  0.00     0.159 HD
HETATM   25  H7  UNL     1      27.522   7.360  49.373  1.00  0.00     0.159 HD
HETATM   26  O2  UNL     1      24.657   6.875  50.760  1.00  0.00    -0.272 OA
ENDBRANCH   1  22
TORSDOF 6
ENDMDL
MODEL 4
REMARK VINA RESULT:      -7.8      3.366      6.422
REMARK  6 active torsions:
REMARK  status: ('A' for Active; 'I' for Inactive)
REMARK    1  A    between atoms: O1_2  and  C2_3 
REMARK    2  A    between atoms: C4_5  and  C5_6 
REMARK    3  A    between atoms: C5_6  and  C7_9 
REMARK       I    between atoms: C7_9  and  N2_10 
REMARK    4  A    between atoms: C9_13  and  S1_14 
REMARK    5  A    between atoms: S1_14  and  C10_15 
REMARK    6  A    between atoms: C17_22  and  O3_23 
ROOT
HETATM    1  C5  UNL     1      26.953   0.266  52.716  1.00  0.00     0.217 C 
HETATM    2  C6  UNL     1      27.154  -1.200  52.818  1.00  0.00     0.078 C 
HETATM    3  N1  UNL     1      27.322  -2.350  52.912  1.00  0.00    -0.196 NA
ENDROOT
BRANCH   1   4
HETATM    4  C4  UNL     1      25.493   0.541  52.623  1.00  0.00    -0.027 A 
HETATM    5  C3  UNL     1      24.616  -0.025  53.525  1.00  0.00     0.048 A 
HETATM    6  C2  UNL     1      23.285   0.286  53.360  1.00  0.00     0.103 A 
HETATM    7  C17 UNL     1      22.822   1.120  52.353  1.00  0.00     0.116 A 
HETATM    8  C9  UNL     1      23.757   1.661  51.473  1.00  0.00     0.042 A 
HETATM    9  C8  UNL     1      25.115   1.374  51.600  1.00  0.00     0.031 A 
BRANCH   6  10
HETATM   10  O1  UNL     1      22.281  -0.202  54.184  1.00  0.00    -0.353 OA
HETATM   11  C1  UNL     1      22.429  -1.293  55.049  1.00  0.00     0.210 C 
ENDBRANCH   6  10
BRANCH   7  12
HETATM   12  O3  UNL     1      21.503   1.443  52.169  1.00  0.00    -0.357 OA
HETATM   13  H16 UNL     1      20.983   0.913  51.463  1.00  0.00     0.218 HD
ENDBRANCH   7  12
BRANCH   8  14
HETATM   14  S1  UNL     1      23.176   2.748  50.155  1.00  0.00    -0.087 SA
BRANCH  14  15
HETATM   15  C10 UNL     1      24.114   4.267  50.142  1.00  0.00     0.011 A 
HETATM   16  C11 UNL     1      25.245   4.504  49.389  1.00  0.00     0.019 A 
HETATM   17  C12 UNL     1      25.906   5.717  49.447  1.00  0.00     0.001 A 
HETATM   18  C13 UNL     1      25.452   6.750  50.272  1.00  0.00     0.001 A 
HETATM   19  C14 UNL     1      24.327   6.474  51.003  1.00  0.00     0.008 A 
HETATM   20  C15 UNL     1      23.642   5.277  50.971  1.00  0.00    -0.045 A 
HETATM   21  C16 UNL     1      22.426   5.100  51.817  1.00  0.00     0.049 C 
ENDBRANCH  14  15
ENDBRANCH   8  14
ENDBRANCH   1   4
BRANCH   1  22
HETATM   22  C7  UNL     1      27.562   0.843  53.920  1.00  0.00     0.237 C 
HETATM   23  N2  UNL     1      28.021  -0.184  54.794  1.00  0.00    -0.369 N 
HETATM   24  H6  UNL     1      28.134  -0.225  55.828  1.00  0.00     0.159 HD
HETATM   25  H7  UNL     1      28.393  -1.102  55.173  1.00  0.00     0.159 HD
HETATM   26  O2  UNL     1      27.797   1.969  54.408  1.00  0.00    -0.272 OA
ENDBRANCH   1  22
TORSDOF 6
ENDMDL
MODEL 5
REMARK VINA RESULT:      -7.8      2.722      4.410
REMARK  6 active torsions:
REMARK  status: ('A' for Active; 'I' for Inactive)
REMARK    1  A    between atoms: O1_2  and  C2_3 
REMARK    2  A    between atoms: C4_5  and  C5_6 
REMARK    3  A    between atoms: C5_6  and  C7_9 
REMARK       I    between atoms: C7_9  and  N2_10 
REMARK    4  A    between atoms: C9_13  and  S1_14 
REMARK    5  A    between atoms: S1_14  and  C10_15 
REMARK    6  A    between atoms: C17_22  and  O3_23 
ROOT
HETATM    1  C5  UNL     1      24.316   3.030  50.885  1.00  0.00     0.217 C 
HETATM    2  C6  UNL     1      25.793   2.897  50.909  1.00  0.00     0.078 C 
HETATM    3  N1  UNL     1      26.956   2.808  50.934  1.00  0.00    -0.196 NA
ENDROOT
BRANCH   1   4
HETATM    4  C4  UNL     1      23.722   1.860  51.587  1.00  0.00    -0.027 A 
HETATM    5  C3  UNL     1      22.426   1.468  51.319  1.00  0.00     0.048 A 
HETATM    6  C2  UNL     1      21.962   0.375  52.016  1.00  0.00     0.103 A 
HETATM    7  C17 UNL     1      22.731  -0.314  52.943  1.00  0.00     0.116 A 
HETATM    8  C9  UNL     1      24.032   0.130  53.170  1.00  0.00     0.042 A 
HETATM    9  C8  UNL     1      24.545   1.233  52.488  1.00  0.00     0.031 A 
BRANCH   6  10
HETATM   10  O1  UNL     1      20.683  -0.142  51.860  1.00  0.00    -0.353 OA
HETATM   11  C1  UNL     1      19.511   0.620  51.924  1.00  0.00     0.210 C 
ENDBRANCH   6  10
BRANCH   7  12
HETATM   12  O3  UNL     1      22.290  -1.403  53.649  1.00  0.00    -0.357 OA
HETATM   13  H16 UNL     1      22.667  -2.318  53.383  1.00  0.00     0.218 HD
ENDBRANCH   7  12
BRANCH   8  14
HETATM   14  S1  UNL     1      25.050  -0.751  54.372  1.00  0.00    -0.087 SA
BRANCH  14  15
HETATM   15  C10 UNL     1      26.772  -0.333  54.153  1.00  0.00     0.011 A 
HETATM   16  C11 UNL     1      27.444   0.670  54.820  1.00  0.00     0.019 A 
HETATM   17  C12 UNL     1      28.782   0.920  54.583  1.00  0.00     0.001 A 
HETATM   18  C13 UNL     1      29.506   0.163  53.657  1.00  0.00     0.001 A 
HETATM   19  C14 UNL     1      28.802  -0.822  53.017  1.00  0.00     0.008 A 
HETATM   20  C15 UNL     1      27.467  -1.100  53.228  1.00  0.00    -0.045 A 
HETATM   21  C16 UNL     1      26.815  -2.203  52.465  1.00  0.00     0.049 C 
ENDBRANCH  14  15
ENDBRANCH   8  14
ENDBRANCH   1   4
BRANCH   1  22
HETATM   22  C7  UNL     1      24.013   4.302  51.551  1.00  0.00     0.237 C 
HETATM   23  N2  UNL     1      24.851   5.342  51.055  1.00  0.00    -0.369 N 
HETATM   24  H6  UNL     1      25.214   6.216  51.488  1.00  0.00     0.159 HD
HETATM   25  H7  UNL     1      25.466   5.937  50.428  1.00  0.00     0.159 HD
HETATM   26  O2  UNL     1      23.239   4.746  52.425  1.00  0.00    -0.272 OA
ENDBRANCH   1  22
TORSDOF 6
ENDMDL
MODEL 6
REMARK VINA RESULT:      -7.7      3.117      5.737
REMARK  6 active torsions:
REMARK  status: ('A' for Active; 'I' for Inactive)
REMARK    1  A    between atoms: O1_2  and  C2_3 
REMARK    2  A    between atoms: C4_5  and  C5_6 
REMARK    3  A    between atoms: C5_6  and  C7_9 
REMARK       I    between atoms: C7_9  and  N2_10 
REMARK    4  A    between atoms: C9_13  and  S1_14 
REMARK    5  A    between atoms: S1_14  and  C10_15 
REMARK    6  A    between atoms: C17_22  and  O3_23 
ROOT
HETATM    1  C5  UNL     1      27.345   1.027  52.514  1.00  0.00     0.217 C 
HETATM    2  C6  UNL     1      26.815  -0.312  52.869  1.00  0.00     0.078 C 
HETATM    3  N1  UNL     1      26.403  -1.362  53.165  1.00  0.00    -0.196 NA
ENDROOT
BRANCH   1   4
HETATM    4  C4  UNL     1      26.319   1.746  51.710  1.00  0.00    -0.027 A 
HETATM    5  C3  UNL     1      26.694   2.724  50.811  1.00  0.00     0.048 A 
HETATM    6  C2  UNL     1      25.676   3.334  50.113  1.00  0.00     0.103 A 
HETATM    7  C17 UNL     1      24.339   3.005  50.282  1.00  0.00     0.116 A 
HETATM    8  C9  UNL     1      24.024   2.010  51.204  1.00  0.00     0.042 A 
HETATM    9  C8  UNL     1      25.021   1.364  51.935  1.00  0.00     0.031 A 
BRANCH   6  10
HETATM   10  O1  UNL     1      25.888   4.335  49.175  1.00  0.00    -0.353 OA
HETATM   11  C1  UNL     1      27.145   4.856  48.847  1.00  0.00     0.210 C 
ENDBRANCH   6  10
BRANCH   7  12
HETATM   12  O3  UNL     1      23.309   3.599  49.599  1.00  0.00    -0.357 OA
HETATM   13  H16 UNL     1      22.357   3.314  49.845  1.00  0.00     0.218 HD
ENDBRANCH   7  12
BRANCH   8  14
HETATM   14  S1  UNL     1      22.291   1.566  51.440  1.00  0.00    -0.087 SA
BRANCH  14  15
HETATM   15  C10 UNL     1      22.128   0.369  52.755  1.00  0.00     0.011 A 
HETATM   16  C11 UNL     1      23.138  -0.027  53.607  1.00  0.00     0.019 A 
HETATM   17  C12 UNL     1      22.916  -0.964  54.598  1.00  0.00     0.001 A 
HETATM   18  C13 UNL     1      21.657  -1.547  54.774  1.00  0.00     0.001 A 
HETATM   19  C14 UNL     1      20.684  -1.127  53.907  1.00  0.00     0.008 A 
HETATM   20  C15 UNL     1      20.869  -0.195  52.908  1.00  0.00    -0.045 A 
HETATM   21  C16 UNL     1      19.724   0.179  52.027  1.00  0.00     0.049 C 
ENDBRANCH  14  15
ENDBRANCH   8  14
ENDBRANCH   1   4
BRANCH   1  22
HETATM   22  C7  UNL     1      27.638   1.698  53.785  1.00  0.00     0.237 C 
HETATM   23  N2  UNL     1      26.983   1.039  54.865  1.00  0.00    -0.369 N 
HETATM   24  H6  UNL     1      26.627   1.380  55.782  1.00  0.00     0.159 HD
HETATM   25  H7  UNL     1      26.531   0.301  55.479  1.00  0.00     0.159 HD
HETATM   26  O2  UNL     1      28.292   2.676  54.204  1.00  0.00    -0.272 OA
ENDBRANCH   1  22
TORSDOF 6
ENDMDL
MODEL 7
REMARK VINA RESULT:      -7.5      3.397      6.060
REMARK  6 active torsions:
REMARK  status: ('A' for Active; 'I' for Inactive)
REMARK    1  A    between atoms: O1_2  and  C2_3 
REMARK    2  A    between atoms: C4_5  and  C5_6 
REMARK    3  A    between atoms: C5_6  and  C7_9 
REMARK       I    between atoms: C7_9  and  N2_10 
REMARK    4  A    between atoms: C9_13  and  S1_14 
REMARK    5  A    between atoms: S1_14  and  C10_15 
REMARK    6  A    between atoms: C17_22  and  O3_23 
ROOT
HETATM    1  C5  UNL     1      25.892   1.423  53.957  1.00  0.00     0.217 C 
HETATM    2  C6  UNL     1      26.982   1.878  53.060  1.00  0.00     0.078 C 
HETATM    3  N1  UNL     1      27.850   2.223  52.361  1.00  0.00    -0.196 NA
ENDROOT
BRANCH   1   4
HETATM    4  C4  UNL     1      24.664   1.210  53.143  1.00  0.00    -0.027 A 
HETATM    5  C3  UNL     1      23.708   0.299  53.544  1.00  0.00     0.048 A 
HETATM    6  C2  UNL     1      22.607   0.171  52.727  1.00  0.00     0.103 A 
HETATM    7  C17 UNL     1      22.440   0.903  51.561  1.00  0.00     0.116 A 
HETATM    8  C9  UNL     1      23.440   1.807  51.209  1.00  0.00     0.042 A 
HETATM    9  C8  UNL     1      24.574   1.971  52.004  1.00  0.00     0.031 A 
BRANCH   6  10
HETATM   10  O1  UNL     1      21.560  -0.701  52.991  1.00  0.00    -0.353 OA
HETATM   11  C1  UNL     1      20.503  -0.424  53.867  1.00  0.00     0.210 C 
ENDBRANCH   6  10
BRANCH   7  12
HETATM   12  O3  UNL     1      21.353   0.792  50.733  1.00  0.00    -0.357 OA
HETATM   13  H16 UNL     1      21.471   1.091  49.760  1.00  0.00     0.218 HD
ENDBRANCH   7  12
BRANCH   8  14
HETATM   14  S1  UNL     1      23.243   2.770  49.695  1.00  0.00    -0.087 SA
BRANCH  14  15
HETATM   15  C10 UNL     1      24.698   3.759  49.394  1.00  0.00     0.011 A 
HETATM   16  C11 UNL     1      26.001   3.311  49.466  1.00  0.00     0.019 A 
HETATM   17  C12 UNL     1      27.066   4.155  49.215  1.00  0.00     0.001 A 
HETATM   18  C13 UNL     1      26.862   5.497  48.878  1.00  0.00     0.001 A 
HETATM   19  C14 UNL     1      25.556   5.901  48.818  1.00  0.00     0.008 A 
HETATM   20  C15 UNL     1      24.468   5.087  49.061  1.00  0.00    -0.045 A 
HETATM   21  C16 UNL     1      23.090   5.650  48.963  1.00  0.00     0.049 C 
ENDBRANCH  14  15
ENDBRANCH   8  14
ENDBRANCH   1   4
BRANCH   1  22
HETATM   22  C7  UNL     1      26.374   0.188  54.586  1.00  0.00     0.237 C 
HETATM   23  N2  UNL     1      27.325  -0.465  53.750  1.00  0.00    -0.369 N 
HETATM   24  H6  UNL     1      27.586  -1.466  53.636  1.00  0.00     0.159 HD
HETATM   25  H7  UNL     1      28.085  -0.657  53.036  1.00  0.00     0.159 HD
HETATM   26  O2  UNL     1      26.198  -0.463  55.638  1.00  0.00    -0.272 OA
ENDBRANCH   1  22
TORSDOF 6
ENDMDL
MODEL 8
REMARK VINA RESULT:      -7.4      3.152      5.593
REMARK  6 active torsions:
REMARK  status: ('A' for Active; 'I' for Inactive)
REMARK    1  A    between atoms: O1_2  and  C2_3 
REMARK    2  A    between atoms: C4_5  and  C5_6 
REMARK    3  A    between atoms: C5_6  and  C7_9 
REMARK       I    between atoms: C7_9  and  N2_10 
REMARK    4  A    between atoms: C9_13  and  S1_14 
REMARK    5  A    between atoms: S1_14  and  C10_15 
REMARK    6  A    between atoms: C17_22  and  O3_23 
ROOT
HETATM    1  C5  UNL     1      22.131   0.774  52.369  1.00  0.00     0.217 C 
HETATM    2  C6  UNL     1      21.195   1.903  52.587  1.00  0.00     0.078 C 
HETATM    3  N1  UNL     1      20.450   2.781  52.771  1.00  0.00    -0.196 NA
ENDROOT
BRANCH   1   4
HETATM    4  C4  UNL     1      23.522   1.305  52.352  1.00  0.00    -0.027 A 
HETATM    5  C3  UNL     1      24.359   1.108  53.432  1.00  0.00     0.048 A 
HETATM    6  C2  UNL     1      25.626   1.637  53.325  1.00  0.00     0.103 A 
HETATM    7  C17 UNL     1      26.064   2.333  52.208  1.00  0.00     0.116 A 
HETATM    8  C9  UNL     1      25.173   2.499  51.152  1.00  0.00     0.042 A 
HETATM    9  C8  UNL     1      23.879   1.982  51.214  1.00  0.00     0.031 A 
BRANCH   6  10
HETATM   10  O1  UNL     1      26.584   1.524  54.323  1.00  0.00    -0.353 OA
HETATM   11  C1  UNL     1      27.251   0.337  54.647  1.00  0.00     0.210 C 
ENDBRANCH   6  10
BRANCH   7  12
HETATM   12  O3  UNL     1      27.321   2.867  52.081  1.00  0.00    -0.357 OA
HETATM   13  H16 UNL     1      27.431   3.863  52.296  1.00  0.00     0.218 HD
ENDBRANCH   7  12
BRANCH   8  14
HETATM   14  S1  UNL     1      25.723   3.401  49.689  1.00  0.00    -0.087 SA
BRANCH  14  15
HETATM   15  C10 UNL     1      25.515   5.159  49.927  1.00  0.00     0.011 A 
HETATM   16  C11 UNL     1      24.518   5.753  50.673  1.00  0.00     0.019 A 
HETATM   17  C12 UNL     1      24.438   7.127  50.800  1.00  0.00     0.001 A 
HETATM   18  C13 UNL     1      25.366   7.966  50.176  1.00  0.00     0.001 A 
HETATM   19  C14 UNL     1      26.338   7.337  49.445  1.00  0.00     0.008 A 
HETATM   20  C15 UNL     1      26.449   5.969  49.297  1.00  0.00    -0.045 A 
HETATM   21  C16 UNL     1      27.557   5.405  48.473  1.00  0.00     0.049 C 
ENDBRANCH  14  15
ENDBRANCH   8  14
ENDBRANCH   1   4
BRANCH   1  22
HETATM   22  C7  UNL     1      21.898  -0.165  53.472  1.00  0.00     0.237 C 
HETATM   23  N2  UNL     1      20.929   0.353  54.378  1.00  0.00    -0.369 N 
HETATM   24  H6  UNL     1      20.780   0.216  55.399  1.00  0.00     0.159 HD
HETATM   25  H7  UNL     1      20.106   0.880  54.791  1.00  0.00     0.159 HD
HETATM   26  O2  UNL     1      22.298  -1.285  53.855  1.00  0.00    -0.272 OA
ENDBRANCH   1  22
TORSDOF 6
ENDMDL
MODEL 9
REMARK VINA RESULT:      -7.4      3.274      6.448
REMARK  6 active torsions:
REMARK  status: ('A' for Active; 'I' for Inactive)
REMARK    1  A    between atoms: O1_2  and  C2_3 
REMARK    2  A    between atoms: C4_5  and  C5_6 
REMARK    3  A    between atoms: C5_6  and  C7_9 
REMARK       I    between atoms: C7_9  and  N2_10 
REMARK    4  A    between atoms: C9_13  and  S1_14 
REMARK    5  A    between atoms: S1_14  and  C10_15 
REMARK    6  A    between atoms: C17_22  and  O3_23 
ROOT
HETATM    1  C5  UNL     1      26.382   0.582  52.884  1.00  0.00     0.217 C 
HETATM    2  C6  UNL     1      26.283   0.018  54.252  1.00  0.00     0.078 C 
HETATM    3  N1  UNL     1      26.217  -0.413  55.334  1.00  0.00    -0.196 NA
ENDROOT
BRANCH   1   4
HETATM    4  C4  UNL     1      25.009   0.871  52.387  1.00  0.00    -0.027 A 
HETATM    5  C3  UNL     1      23.912   0.281  52.982  1.00  0.00     0.048 A 
HETATM    6  C2  UNL     1      22.683   0.607  52.455  1.00  0.00     0.103 A 
HETATM    7  C17 UNL     1      22.525   1.478  51.386  1.00  0.00     0.116 A 
HETATM    8  C9  UNL     1      23.670   2.041  50.828  1.00  0.00     0.042 A 
HETATM    9  C8  UNL     1      24.936   1.739  51.328  1.00  0.00     0.031 A 
BRANCH   6  10
HETATM   10  O1  UNL     1      21.486   0.099  52.940  1.00  0.00    -0.353 OA
HETATM   11  C1  UNL     1      21.023   0.282  54.248  1.00  0.00     0.210 C 
ENDBRANCH   6  10
BRANCH   7  12
HETATM   12  O3  UNL     1      21.311   1.816  50.845  1.00  0.00    -0.357 OA
HETATM   13  H16 UNL     1      20.718   2.454  51.384  1.00  0.00     0.218 HD
ENDBRANCH   7  12
BRANCH   8  14
HETATM   14  S1  UNL     1      23.486   3.175  49.437  1.00  0.00    -0.087 SA
BRANCH  14  15
HETATM   15  C10 UNL     1      23.758   4.858  49.967  1.00  0.00     0.011 A 
HETATM   16  C11 UNL     1      22.790   5.711  50.453  1.00  0.00     0.019 A 
HETATM   17  C12 UNL     1      23.097   7.002  50.840  1.00  0.00     0.001 A 
HETATM   18  C13 UNL     1      24.404   7.492  50.751  1.00  0.00     0.001 A 
HETATM   19  C14 UNL     1      25.334   6.614  50.263  1.00  0.00     0.008 A 
HETATM   20  C15 UNL     1      25.064   5.320  49.869  1.00  0.00    -0.045 A 
HETATM   21  C16 UNL     1      26.169   4.461  49.352  1.00  0.00     0.049 C 
ENDBRANCH  14  15
ENDBRANCH   8  14
ENDBRANCH   1   4
BRANCH   1  22
HETATM   22  C7  UNL     1      27.206   1.791  53.002  1.00  0.00     0.237 C 
HETATM   23  N2  UNL     1      26.870   2.515  54.182  1.00  0.00    -0.369 N 
HETATM   24  H6  UNL     1      26.916   3.528  54.419  1.00  0.00     0.159 HD
HETATM   25  H7  UNL     1      26.545   2.767  55.160  1.00  0.00     0.159 HD
HETATM   26  O2  UNL     1      28.115   2.375  52.376  1.00  0.00    -0.272 OA
ENDBRANCH   1  22
TORSDOF 6
ENDMDL
