MODEL 1
REMARK VINA RESULT:      -7.4      0.000      0.000
REMARK  6 active torsions:
REMARK  status: ('A' for Active; 'I' for Inactive)
REMARK    1  A    between atoms: N1_1  and  C1_2 
REMARK    2  A    between atoms: C2_3  and  C3_4 
REMARK    3  A    between atoms: C3_4  and  C4_6 
REMARK    4  A    between atoms: C4_6  and  O2_7 
REMARK    5  A    between atoms: O2_7  and  C5_8 
REMARK    6  A    between atoms: N4_21  and  C16_22 
ROOT
HETATM    1  C1  UNL     1      23.647   2.639  52.490  1.00  0.00     0.220 C 
HETATM    2  C2  UNL     1      24.531   1.434  52.403  1.00  0.00     0.032 C 
HETATM    3  C11 UNL     1      25.596   1.465  51.642  1.00  0.00     0.016 C 
HETATM    4  C12 UNL     1      26.105   2.530  50.822  1.00  0.00     0.014 C 
HETATM    5  C13 UNL     1      25.822   3.770  50.504  1.00  0.00     0.217 C 
HETATM    6  N2  UNL     1      25.695   5.126  50.022  1.00  0.00    -0.278 NA
HETATM    7  C14 UNL     1      24.714   5.280  49.130  1.00  0.00     0.173 C 
HETATM    8  N3  UNL     1      24.157   4.001  49.004  1.00  0.00    -0.245 NA
HETATM    9  C15 UNL     1      23.600   3.276  49.885  1.00  0.00     0.212 C 
HETATM   10  N4  UNL     1      23.157   3.031  51.194  1.00  0.00    -0.325 N 
ENDROOT
BRANCH   2  11
HETATM   11  C3  UNL     1      24.268   0.231  53.159  1.00  0.00     0.183 C 
HETATM   12  O1  UNL     1      23.174   0.165  53.769  1.00  0.00    -0.290 OA
BRANCH  11  13
HETATM   13  C4  UNL     1      25.240  -0.914  53.230  1.00  0.00     0.259 C 
BRANCH  13  14
HETATM   14  O2  UNL     1      26.134  -0.690  54.296  1.00  0.00    -0.344 OA
BRANCH  14  15
HETATM   15  C5  UNL     1      27.474  -0.416  54.068  1.00  0.00     0.069 A 
HETATM   16  C6  UNL     1      28.271  -1.367  53.462  1.00  0.00     0.037 A 
HETATM   17  C7  UNL     1      29.625  -1.166  53.199  1.00  0.00     0.003 A 
HETATM   18  C8  UNL     1      30.131   0.083  53.596  1.00  0.00     0.000 A 
HETATM   19  C9  UNL     1      29.313   0.999  54.196  1.00  0.00     0.003 A 
HETATM   20  C10 UNL     1      27.967   0.799  54.456  1.00  0.00     0.037 A 
ENDBRANCH  14  15
ENDBRANCH  13  14
ENDBRANCH  11  13
ENDBRANCH   2  11
BRANCH   1  21
HETATM   21  N1  UNL     1      24.304   3.691  53.158  1.00  0.00    -0.407 N 
HETATM   22  H1  UNL     1      25.074   4.167  52.689  1.00  0.00     0.152 HD
HETATM   23  H2  UNL     1      24.384   3.581  54.192  1.00  0.00     0.152 HD
ENDBRANCH   1  21
BRANCH  10  24
HETATM   24  C16 UNL     1      21.847   3.376  50.766  1.00  0.00     0.106 C 
HETATM   25  C17 UNL     1      21.050   2.337  50.526  1.00  0.00     0.102 C 
HETATM   26 CL1  UNL     1      21.384   0.619  50.662  1.00  0.00    -0.096 Cl
ENDBRANCH  10  24
TORSDOF 6
ENDMDL
MODEL 2
REMARK VINA RESULT:      -7.3      1.894      2.728
REMARK  6 active torsions:
REMARK  status: ('A' for Active; 'I' for Inactive)
REMARK    1  A    between atoms: N1_1  and  C1_2 
REMARK    2  A    between atoms: C2_3  and  C3_4 
REMARK    3  A    between atoms: C3_4  and  C4_6 
REMARK    4  A    between atoms: C4_6  and  O2_7 
REMARK    5  A    between atoms: O2_7  and  C5_8 
REMARK    6  A    between atoms: N4_21  and  C16_22 
ROOT
HETATM    1  C1  UNL     1      24.075   2.988  52.842  1.00  0.00     0.220 C 
HETATM    2  C2  UNL     1      25.467   2.643  52.411  1.00  0.00     0.032 C 
HETATM    3  C11 UNL     1      25.786   2.697  51.143  1.00  0.00     0.016 C 
HETATM    4  C12 UNL     1      24.979   3.063  50.011  1.00  0.00     0.014 C 
HETATM    5  C13 UNL     1      23.762   3.465  49.739  1.00  0.00     0.217 C 
HETATM    6  N2  UNL     1      22.488   3.908  49.221  1.00  0.00    -0.278 NA
HETATM    7  C14 UNL     1      21.553   2.955  49.231  1.00  0.00     0.173 C 
HETATM    8  N3  UNL     1      22.204   1.838  49.769  1.00  0.00    -0.245 NA
HETATM    9  C15 UNL     1      22.739   1.692  50.910  1.00  0.00     0.212 C 
HETATM   10  N4  UNL     1      23.098   2.160  52.184  1.00  0.00    -0.325 N 
ENDROOT
BRANCH   2  11
HETATM   11  C3  UNL     1      26.495   2.274  53.358  1.00  0.00     0.183 C 
HETATM   12  O1  UNL     1      26.141   2.094  54.547  1.00  0.00    -0.290 OA
BRANCH  11  13
HETATM   13  C4  UNL     1      27.937   2.102  52.966  1.00  0.00     0.259 C 
BRANCH  13  14
HETATM   14  O2  UNL     1      28.536   1.161  53.829  1.00  0.00    -0.344 OA
BRANCH  14  15
HETATM   15  C5  UNL     1      28.550  -0.191  53.523  1.00  0.00     0.069 A 
HETATM   16  C6  UNL     1      27.406  -0.791  53.033  1.00  0.00     0.037 A 
HETATM   17  C7  UNL     1      27.341  -2.143  52.703  1.00  0.00     0.003 A 
HETATM   18  C8  UNL     1      28.530  -2.864  52.902  1.00  0.00     0.000 A 
HETATM   19  C9  UNL     1      29.642  -2.237  53.391  1.00  0.00     0.003 A 
HETATM   20  C10 UNL     1      29.707  -0.892  53.718  1.00  0.00     0.037 A 
ENDBRANCH  14  15
ENDBRANCH  13  14
ENDBRANCH  11  13
ENDBRANCH   2  11
BRANCH   1  21
HETATM   21  N1  UNL     1      23.825   4.363  52.661  1.00  0.00    -0.407 N 
HETATM   22  H1  UNL     1      24.551   4.945  52.243  1.00  0.00     0.152 HD
HETATM   23  H2  UNL     1      23.237   4.808  53.398  1.00  0.00     0.152 HD
ENDBRANCH   1  21
BRANCH  10  24
HETATM   24  C16 UNL     1      21.981   1.456  52.707  1.00  0.00     0.106 C 
HETATM   25  C17 UNL     1      22.279   0.301  53.298  1.00  0.00     0.102 C 
HETATM   26 CL1  UNL     1      23.842  -0.467  53.522  1.00  0.00    -0.096 Cl
ENDBRANCH  10  24
TORSDOF 6
ENDMDL
MODEL 3
REMARK VINA RESULT:      -7.2      3.295      6.294
REMARK  6 active torsions:
REMARK  status: ('A' for Active; 'I' for Inactive)
REMARK    1  A    between atoms: N1_1  and  C1_2 
REMARK    2  A    between atoms: C2_3  and  C3_4 
REMARK    3  A    between atoms: C3_4  and  C4_6 
REMARK    4  A    between atoms: C4_6  and  O2_7 
REMARK    5  A    between atoms: O2_7  and  C5_8 
REMARK    6  A    between atoms: N4_21  and  C16_22 
ROOT
HETATM    1  C1  UNL     1      24.879   2.305  52.842  1.00  0.00     0.220 C 
HETATM    2  C2  UNL     1      24.964   2.570  51.370  1.00  0.00     0.032 C 
HETATM    3  C11 UNL     1      23.894   2.447  50.626  1.00  0.00     0.016 C 
HETATM    4  C12 UNL     1      22.555   2.084  51.000  1.00  0.00     0.014 C 
HETATM    5  C13 UNL     1      21.866   1.772  52.071  1.00  0.00     0.217 C 
HETATM    6  N2  UNL     1      20.930   1.406  53.108  1.00  0.00    -0.278 NA
HETATM    7  C14 UNL     1      21.098   0.161  53.557  1.00  0.00     0.173 C 
HETATM    8  N3  UNL     1      22.176  -0.333  52.810  1.00  0.00    -0.245 NA
HETATM    9  C15 UNL     1      23.371   0.088  52.750  1.00  0.00     0.212 C 
HETATM   10  N4  UNL     1      24.397   0.975  53.112  1.00  0.00    -0.325 N 
ENDROOT
BRANCH   2  11
HETATM   11  C3  UNL     1      26.193   2.990  50.736  1.00  0.00     0.183 C 
HETATM   12  O1  UNL     1      27.263   2.761  51.348  1.00  0.00    -0.290 OA
BRANCH  11  13
HETATM   13  C4  UNL     1      26.223   3.672  49.395  1.00  0.00     0.259 C 
BRANCH  13  14
HETATM   14  O2  UNL     1      27.554   4.025  49.092  1.00  0.00    -0.344 OA
BRANCH  14  15
HETATM   15  C5  UNL     1      27.865   5.256  48.534  1.00  0.00     0.069 A 
HETATM   16  C6  UNL     1      26.870   6.200  48.369  1.00  0.00     0.037 A 
HETATM   17  C7  UNL     1      27.103   7.458  47.818  1.00  0.00     0.003 A 
HETATM   18  C8  UNL     1      28.432   7.706  47.436  1.00  0.00     0.000 A 
HETATM   19  C9  UNL     1      29.390   6.746  47.612  1.00  0.00     0.003 A 
HETATM   20  C10 UNL     1      29.158   5.496  48.162  1.00  0.00     0.037 A 
ENDBRANCH  14  15
ENDBRANCH  13  14
ENDBRANCH  11  13
ENDBRANCH   2  11
BRANCH   1  21
HETATM   21  N1  UNL     1      24.110   3.297  53.482  1.00  0.00    -0.407 N 
HETATM   22  H1  UNL     1      24.336   4.278  53.318  1.00  0.00     0.152 HD
HETATM   23  H2  UNL     1      23.771   3.050  54.436  1.00  0.00     0.152 HD
ENDBRANCH   1  21
BRANCH  10  24
HETATM   24  C16 UNL     1      24.878  -0.018  54.006  1.00  0.00     0.106 C 
HETATM   25  C17 UNL     1      25.916  -0.717  53.553  1.00  0.00     0.102 C 
HETATM   26 CL1  UNL     1      26.767  -0.586  52.023  1.00  0.00    -0.096 Cl
ENDBRANCH  10  24
TORSDOF 6
ENDMDL
MODEL 4
REMARK VINA RESULT:      -7.2      3.534      6.702
REMARK  6 active torsions:
REMARK  status: ('A' for Active; 'I' for Inactive)
REMARK    1  A    between atoms: N1_1  and  C1_2 
REMARK    2  A    between atoms: C2_3  and  C3_4 
REMARK    3  A    between atoms: C3_4  and  C4_6 
REMARK    4  A    between atoms: C4_6  and  O2_7 
REMARK    5  A    between atoms: O2_7  and  C5_8 
REMARK    6  A    between atoms: N4_21  and  C16_22 
ROOT
HETATM    1  C1  UNL     1      26.351   0.403  54.287  1.00  0.00     0.220 C 
HETATM    2  C2  UNL     1      25.774   0.830  52.974  1.00  0.00     0.032 C 
HETATM    3  C11 UNL     1      25.933   0.072  51.918  1.00  0.00     0.016 C 
HETATM    4  C12 UNL     1      26.606  -1.191  51.791  1.00  0.00     0.014 C 
HETATM    5  C13 UNL     1      27.256  -2.057  52.530  1.00  0.00     0.217 C 
HETATM    6  N2  UNL     1      27.996  -3.130  53.153  1.00  0.00    -0.278 NA
HETATM    7  C14 UNL     1      29.256  -2.801  53.449  1.00  0.00     0.173 C 
HETATM    8  N3  UNL     1      29.376  -1.472  53.022  1.00  0.00    -0.245 NA
HETATM    9  C15 UNL     1      28.739  -0.444  53.405  1.00  0.00     0.212 C 
HETATM   10  N4  UNL     1      27.773   0.196  54.197  1.00  0.00    -0.325 N 
ENDROOT
BRANCH   2  11
HETATM   11  C3  UNL     1      25.011   2.049  52.829  1.00  0.00     0.183 C 
HETATM   12  O1  UNL     1      24.864   2.758  53.853  1.00  0.00    -0.290 OA
BRANCH  11  13
HETATM   13  C4  UNL     1      24.410   2.482  51.520  1.00  0.00     0.259 C 
BRANCH  13  14
HETATM   14  O2  UNL     1      24.555   3.878  51.389  1.00  0.00    -0.344 OA
BRANCH  14  15
HETATM   15  C5  UNL     1      25.414   4.429  50.450  1.00  0.00     0.069 A 
HETATM   16  C6  UNL     1      25.248   5.745  50.064  1.00  0.00     0.037 A 
HETATM   17  C7  UNL     1      26.070   6.369  49.127  1.00  0.00     0.003 A 
HETATM   18  C8  UNL     1      27.089   5.561  48.595  1.00  0.00     0.000 A 
HETATM   19  C9  UNL     1      27.221   4.262  49.000  1.00  0.00     0.003 A 
HETATM   20  C10 UNL     1      26.405   3.643  49.932  1.00  0.00     0.037 A 
ENDBRANCH  14  15
ENDBRANCH  13  14
ENDBRANCH  11  13
ENDBRANCH   2  11
BRANCH   1  21
HETATM   21  N1  UNL     1      25.673  -0.728  54.785  1.00  0.00    -0.407 N 
HETATM   22  H1  UNL     1      24.654  -0.740  54.764  1.00  0.00     0.152 HD
HETATM   23  H2  UNL     1      26.129  -1.198  55.596  1.00  0.00     0.152 HD
ENDBRANCH   1  21
BRANCH  10  24
HETATM   24  C16 UNL     1      28.825   0.632  55.046  1.00  0.00     0.106 C 
HETATM   25  C17 UNL     1      29.349   1.812  54.722  1.00  0.00     0.102 C 
HETATM   26 CL1  UNL     1      28.928   2.896  53.406  1.00  0.00    -0.096 Cl
ENDBRANCH  10  24
TORSDOF 6
ENDMDL
MODEL 5
REMARK VINA RESULT:      -7.2      3.746      7.152
REMARK  6 active torsions:
REMARK  status: ('A' for Active; 'I' for Inactive)
REMARK    1  A    between atoms: N1_1  and  C1_2 
REMARK    2  A    between atoms: C2_3  and  C3_4 
REMARK    3  A    between atoms: C3_4  and  C4_6 
REMARK    4  A    between atoms: C4_6  and  O2_7 
REMARK    5  A    between atoms: O2_7  and  C5_8 
REMARK    6  A    between atoms: N4_21  and  C16_22 
ROOT
HETATM    1  C1  UNL     1      26.303   0.227  54.557  1.00  0.00     0.220 C 
HETATM    2  C2  UNL     1      25.594   0.639  53.305  1.00  0.00     0.032 C 
HETATM    3  C11 UNL     1      25.732  -0.074  52.216  1.00  0.00     0.016 C 
HETATM    4  C12 UNL     1      26.494  -1.272  51.996  1.00  0.00     0.014 C 
HETATM    5  C13 UNL     1      27.267  -2.100  52.656  1.00  0.00     0.217 C 
HETATM    6  N2  UNL     1      28.138  -3.124  53.186  1.00  0.00    -0.278 NA
HETATM    7  C14 UNL     1      29.385  -2.699  53.398  1.00  0.00     0.173 C 
HETATM    8  N3  UNL     1      29.364  -1.354  53.008  1.00  0.00    -0.245 NA
HETATM    9  C15 UNL     1      28.677  -0.394  53.471  1.00  0.00     0.212 C 
HETATM   10  N4  UNL     1      27.726   0.142  54.355  1.00  0.00    -0.325 N 
ENDROOT
BRANCH   2  11
HETATM   11  C3  UNL     1      24.726   1.794  53.258  1.00  0.00     0.183 C 
HETATM   12  O1  UNL     1      25.167   2.863  53.744  1.00  0.00    -0.290 OA
BRANCH  11  13
HETATM   13  C4  UNL     1      23.348   1.753  52.655  1.00  0.00     0.259 C 
BRANCH  13  14
HETATM   14  O2  UNL     1      22.524   0.933  53.453  1.00  0.00    -0.344 OA
BRANCH  14  15
HETATM   15  C5  UNL     1      21.283   0.507  53.007  1.00  0.00     0.069 A 
HETATM   16  C6  UNL     1      20.863   0.845  51.735  1.00  0.00     0.037 A 
HETATM   17  C7  UNL     1      19.630   0.454  51.215  1.00  0.00     0.003 A 
HETATM   18  C8  UNL     1      18.834  -0.316  52.080  1.00  0.00     0.000 A 
HETATM   19  C9  UNL     1      19.283  -0.629  53.333  1.00  0.00     0.003 A 
HETATM   20  C10 UNL     1      20.509  -0.241  53.849  1.00  0.00     0.037 A 
ENDBRANCH  14  15
ENDBRANCH  13  14
ENDBRANCH  11  13
ENDBRANCH   2  11
BRANCH   1  21
HETATM   21  N1  UNL     1      25.759  -0.970  55.065  1.00  0.00    -0.407 N 
HETATM   22  H1  UNL     1      25.099  -0.921  55.841  1.00  0.00     0.152 HD
HETATM   23  H2  UNL     1      26.401  -1.791  55.050  1.00  0.00     0.152 HD
ENDBRANCH   1  21
BRANCH  10  24
HETATM   24  C16 UNL     1      28.802   0.641  55.137  1.00  0.00     0.106 C 
HETATM   25  C17 UNL     1      29.280   1.817  54.738  1.00  0.00     0.102 C 
HETATM   26 CL1  UNL     1      28.774   2.831  53.397  1.00  0.00    -0.096 Cl
ENDBRANCH  10  24
TORSDOF 6
ENDMDL
MODEL 6
REMARK VINA RESULT:      -7.2      2.365      3.965
REMARK  6 active torsions:
REMARK  status: ('A' for Active; 'I' for Inactive)
REMARK    1  A    between atoms: N1_1  and  C1_2 
REMARK    2  A    between atoms: C2_3  and  C3_4 
REMARK    3  A    between atoms: C3_4  and  C4_6 
REMARK    4  A    between atoms: C4_6  and  O2_7 
REMARK    5  A    between atoms: O2_7  and  C5_8 
REMARK    6  A    between atoms: N4_21  and  C16_22 
ROOT
HETATM    1  C1  UNL     1      22.611   2.090  50.899  1.00  0.00     0.220 C 
HETATM    2  C2  UNL     1      23.061   1.219  52.030  1.00  0.00     0.032 C 
HETATM    3  C11 UNL     1      22.175   0.567  52.739  1.00  0.00     0.016 C 
HETATM    4  C12 UNL     1      20.744   0.533  52.610  1.00  0.00     0.014 C 
HETATM    5  C13 UNL     1      19.797   1.029  51.852  1.00  0.00     0.217 C 
HETATM    6  N2  UNL     1      18.609   1.459  51.150  1.00  0.00    -0.278 NA
HETATM    7  C14 UNL     1      18.281   2.729  51.397  1.00  0.00     0.173 C 
HETATM    8  N3  UNL     1      19.269   3.176  52.284  1.00  0.00    -0.245 NA
HETATM    9  C15 UNL     1      20.524   3.257  52.115  1.00  0.00     0.212 C 
HETATM   10  N4  UNL     1      21.687   3.100  51.345  1.00  0.00    -0.325 N 
ENDROOT
BRANCH   2  11
HETATM   11  C3  UNL     1      24.458   1.043  52.355  1.00  0.00     0.183 C 
HETATM   12  O1  UNL     1      25.297   1.574  51.589  1.00  0.00    -0.290 OA
BRANCH  11  13
HETATM   13  C4  UNL     1      24.922   0.265  53.556  1.00  0.00     0.259 C 
BRANCH  13  14
HETATM   14  O2  UNL     1      25.714  -0.817  53.123  1.00  0.00    -0.344 OA
BRANCH  14  15
HETATM   15  C5  UNL     1      27.085  -0.836  53.328  1.00  0.00     0.069 A 
HETATM   16  C6  UNL     1      27.694   0.229  53.963  1.00  0.00     0.037 A 
HETATM   17  C7  UNL     1      29.065   0.284  54.205  1.00  0.00     0.003 A 
HETATM   18  C8  UNL     1      29.796  -0.828  53.756  1.00  0.00     0.000 A 
HETATM   19  C9  UNL     1      29.160  -1.863  53.129  1.00  0.00     0.003 A 
HETATM   20  C10 UNL     1      27.796  -1.917  52.889  1.00  0.00     0.037 A 
ENDBRANCH  14  15
ENDBRANCH  13  14
ENDBRANCH  11  13
ENDBRANCH   2  11
BRANCH   1  21
HETATM   21  N1  UNL     1      22.089   1.310  49.847  1.00  0.00    -0.407 N 
HETATM   22  H1  UNL     1      22.718   0.994  49.109  1.00  0.00     0.152 HD
HETATM   23  H2  UNL     1      21.114   1.545  49.561  1.00  0.00     0.152 HD
ENDBRANCH   1  21
BRANCH  10  24
HETATM   24  C16 UNL     1      21.643   4.495  51.079  1.00  0.00     0.106 C 
HETATM   25  C17 UNL     1      22.478   5.228  51.812  1.00  0.00     0.102 C 
HETATM   26 CL1  UNL     1      23.615   4.720  53.049  1.00  0.00    -0.096 Cl
ENDBRANCH  10  24
TORSDOF 6
ENDMDL
MODEL 7
REMARK VINA RESULT:      -7.0      2.230      3.051
REMARK  6 active torsions:
REMARK  status: ('A' for Active; 'I' for Inactive)
REMARK    1  A    between atoms: N1_1  and  C1_2 
REMARK    2  A    between atoms: C2_3  and  C3_4 
REMARK    3  A    between atoms: C3_4  and  C4_6 
REMARK    4  A    between atoms: C4_6  and  O2_7 
REMARK    5  A    between atoms: O2_7  and  C5_8 
REMARK    6  A    between atoms: N4_21  and  C16_22 
ROOT
HETATM    1  C1  UNL     1      23.265   1.978  52.323  1.00  0.00     0.220 C 
HETATM    2  C2  UNL     1      22.390   0.782  52.541  1.00  0.00     0.032 C 
HETATM    3  C11 UNL     1      21.649   0.334  51.559  1.00  0.00     0.016 C 
HETATM    4  C12 UNL     1      21.523   0.817  50.212  1.00  0.00     0.014 C 
HETATM    5  C13 UNL     1      22.009   1.756  49.437  1.00  0.00     0.217 C 
HETATM    6  N2  UNL     1      22.406   2.706  48.423  1.00  0.00    -0.278 NA
HETATM    7  C14 UNL     1      21.901   3.926  48.615  1.00  0.00     0.173 C 
HETATM    8  N3  UNL     1      21.144   3.807  49.788  1.00  0.00    -0.245 NA
HETATM    9  C15 UNL     1      21.520   3.491  50.958  1.00  0.00     0.212 C 
HETATM   10  N4  UNL     1      22.501   3.120  51.891  1.00  0.00    -0.325 N 
ENDROOT
BRANCH   2  11
HETATM   11  C3  UNL     1      22.353   0.076  53.801  1.00  0.00     0.183 C 
HETATM   12  O1  UNL     1      21.285   0.128  54.456  1.00  0.00    -0.290 OA
BRANCH  11  13
HETATM   13  C4  UNL     1      23.527  -0.700  54.333  1.00  0.00     0.259 C 
BRANCH  13  14
HETATM   14  O2  UNL     1      24.459  -0.891  53.292  1.00  0.00    -0.344 OA
BRANCH  14  15
HETATM   15  C5  UNL     1      25.819  -0.722  53.503  1.00  0.00     0.069 A 
HETATM   16  C6  UNL     1      26.254   0.126  54.503  1.00  0.00     0.037 A 
HETATM   17  C7  UNL     1      27.602   0.347  54.775  1.00  0.00     0.003 A 
HETATM   18  C8  UNL     1      28.501  -0.356  53.956  1.00  0.00     0.000 A 
HETATM   19  C9  UNL     1      28.033  -1.185  52.974  1.00  0.00     0.003 A 
HETATM   20  C10 UNL     1      26.692  -1.406  52.704  1.00  0.00     0.037 A 
ENDBRANCH  14  15
ENDBRANCH  13  14
ENDBRANCH  11  13
ENDBRANCH   2  11
BRANCH   1  21
HETATM   21  N1  UNL     1      24.318   1.670  51.440  1.00  0.00    -0.407 N 
HETATM   22  H1  UNL     1      24.483   2.278  50.638  1.00  0.00     0.152 HD
HETATM   23  H2  UNL     1      24.497   0.652  51.299  1.00  0.00     0.152 HD
ENDBRANCH   1  21
BRANCH  10  24
HETATM   24  C16 UNL     1      22.524   4.469  52.335  1.00  0.00     0.106 C 
HETATM   25  C17 UNL     1      23.491   5.213  51.803  1.00  0.00     0.102 C 
HETATM   26 CL1  UNL     1      24.729   4.768  50.641  1.00  0.00    -0.096 Cl
ENDBRANCH  10  24
TORSDOF 6
ENDMDL
MODEL 8
REMARK VINA RESULT:      -6.9      3.237      4.726
REMARK  6 active torsions:
REMARK  status: ('A' for Active; 'I' for Inactive)
REMARK    1  A    between atoms: N1_1  and  C1_2 
REMARK    2  A    between atoms: C2_3  and  C3_4 
REMARK    3  A    between atoms: C3_4  and  C4_6 
REMARK    4  A    between atoms: C4_6  and  O2_7 
REMARK    5  A    between atoms: O2_7  and  C5_8 
REMARK    6  A    between atoms: N4_21  and  C16_22 
ROOT
HETATM    1  C1  UNL     1      25.405   6.626  49.819  1.00  0.00     0.220 C 
HETATM    2  C2  UNL     1      25.976   5.264  49.579  1.00  0.00     0.032 C 
HETATM    3  C11 UNL     1      27.084   5.137  48.893  1.00  0.00     0.016 C 
HETATM    4  C12 UNL     1      27.911   6.147  48.293  1.00  0.00     0.014 C 
HETATM    5  C13 UNL     1      27.967   7.451  48.173  1.00  0.00     0.217 C 
HETATM    6  N2  UNL     1      28.218   8.851  47.919  1.00  0.00    -0.278 NA
HETATM    7  C14 UNL     1      27.392   9.380  47.013  1.00  0.00     0.173 C 
HETATM    8  N3  UNL     1      26.557   8.318  46.644  1.00  0.00    -0.245 NA
HETATM    9  C15 UNL     1      25.761   7.635  47.359  1.00  0.00     0.212 C 
HETATM   10  N4  UNL     1      25.150   7.318  48.582  1.00  0.00    -0.325 N 
ENDROOT
BRANCH   2  11
HETATM   11  C3  UNL     1      25.360   4.068  50.107  1.00  0.00     0.183 C 
HETATM   12  O1  UNL     1      24.136   4.124  50.375  1.00  0.00    -0.290 OA
BRANCH  11  13
HETATM   13  C4  UNL     1      26.123   2.791  50.333  1.00  0.00     0.259 C 
BRANCH  13  14
HETATM   14  O2  UNL     1      26.813   2.882  51.559  1.00  0.00    -0.344 OA
BRANCH  14  15
HETATM   15  C5  UNL     1      27.211   1.747  52.248  1.00  0.00     0.069 A 
HETATM   16  C6  UNL     1      28.141   1.857  53.264  1.00  0.00     0.037 A 
HETATM   17  C7  UNL     1      28.591   0.763  54.002  1.00  0.00     0.003 A 
HETATM   18  C8  UNL     1      28.028  -0.472  53.641  1.00  0.00     0.000 A 
HETATM   19  C9  UNL     1      27.112  -0.543  52.629  1.00  0.00     0.003 A 
HETATM   20  C10 UNL     1      26.664   0.545  51.896  1.00  0.00     0.037 A 
ENDBRANCH  14  15
ENDBRANCH  13  14
ENDBRANCH  11  13
ENDBRANCH   2  11
BRANCH   1  21
HETATM   21  N1  UNL     1      26.231   7.366  50.689  1.00  0.00    -0.407 N 
HETATM   22  H1  UNL     1      25.902   7.560  51.634  1.00  0.00     0.152 HD
HETATM   23  H2  UNL     1      26.806   8.107  50.233  1.00  0.00     0.152 HD
ENDBRANCH   1  21
BRANCH  10  24
HETATM   24  C16 UNL     1      24.009   8.044  48.147  1.00  0.00     0.106 C 
HETATM   25  C17 UNL     1      23.017   7.290  47.678  1.00  0.00     0.102 C 
HETATM   26 CL1  UNL     1      22.919   5.544  47.523  1.00  0.00    -0.096 Cl
ENDBRANCH  10  24
TORSDOF 6
ENDMDL
MODEL 9
REMARK VINA RESULT:      -6.8      2.037      3.545
REMARK  6 active torsions:
REMARK  status: ('A' for Active; 'I' for Inactive)
REMARK    1  A    between atoms: N1_1  and  C1_2 
REMARK    2  A    between atoms: C2_3  and  C3_4 
REMARK    3  A    between atoms: C3_4  and  C4_6 
REMARK    4  A    between atoms: C4_6  and  O2_7 
REMARK    5  A    between atoms: O2_7  and  C5_8 
REMARK    6  A    between atoms: N4_21  and  C16_22 
ROOT
HETATM    1  C1  UNL     1      24.218   3.084  52.189  1.00  0.00     0.220 C 
HETATM    2  C2  UNL     1      25.610   2.565  52.003  1.00  0.00     0.032 C 
HETATM    3  C11 UNL     1      26.275   2.867  50.917  1.00  0.00     0.016 C 
HETATM    4  C12 UNL     1      25.880   3.674  49.795  1.00  0.00     0.014 C 
HETATM    5  C13 UNL     1      24.858   4.387  49.387  1.00  0.00     0.217 C 
HETATM    6  N2  UNL     1      23.858   5.213  48.751  1.00  0.00    -0.278 NA
HETATM    7  C14 UNL     1      22.831   4.515  48.260  1.00  0.00     0.173 C 
HETATM    8  N3  UNL     1      23.137   3.184  48.571  1.00  0.00    -0.245 NA
HETATM    9  C15 UNL     1      23.304   2.642  49.706  1.00  0.00     0.212 C 
HETATM   10  N4  UNL     1      23.355   2.683  51.108  1.00  0.00    -0.325 N 
ENDROOT
BRANCH   2  11
HETATM   11  C3  UNL     1      26.268   1.755  53.002  1.00  0.00     0.183 C 
HETATM   12  O1  UNL     1      26.824   2.355  53.952  1.00  0.00    -0.290 OA
BRANCH  11  13
HETATM   13  C4  UNL     1      26.300   0.252  52.939  1.00  0.00     0.259 C 
BRANCH  13  14
HETATM   14  O2  UNL     1      25.803  -0.267  54.152  1.00  0.00    -0.344 OA
BRANCH  14  15
HETATM   15  C5  UNL     1      24.485  -0.679  54.275  1.00  0.00     0.069 A 
HETATM   16  C6  UNL     1      23.622  -0.528  53.207  1.00  0.00     0.037 A 
HETATM   17  C7  UNL     1      22.284  -0.917  53.252  1.00  0.00     0.003 A 
HETATM   18  C8  UNL     1      21.867  -1.479  54.470  1.00  0.00     0.000 A 
HETATM   19  C9  UNL     1      22.749  -1.611  55.506  1.00  0.00     0.003 A 
HETATM   20  C10 UNL     1      24.079  -1.225  55.460  1.00  0.00     0.037 A 
ENDBRANCH  14  15
ENDBRANCH  13  14
ENDBRANCH  11  13
ENDBRANCH   2  11
BRANCH   1  21
HETATM   21  N1  UNL     1      24.230   4.481  52.378  1.00  0.00    -0.407 N 
HETATM   22  H1  UNL     1      24.527   4.853  53.280  1.00  0.00     0.152 HD
HETATM   23  H2  UNL     1      23.475   5.003  51.884  1.00  0.00     0.152 HD
ENDBRANCH   1  21
BRANCH  10  24
HETATM   24  C16 UNL     1      22.047   2.130  51.127  1.00  0.00     0.106 C 
HETATM   25  C17 UNL     1      21.070   3.019  51.291  1.00  0.00     0.102 C 
HETATM   26 CL1  UNL     1      21.168   4.761  51.484  1.00  0.00    -0.096 Cl
ENDBRANCH  10  24
TORSDOF 6
ENDMDL
