MODEL 1
REMARK VINA RESULT:      -8.7      0.000      0.000
REMARK  6 active torsions:
REMARK  status: ('A' for Active; 'I' for Inactive)
REMARK    1  A    between atoms: C2_2  and  O1_3 
REMARK    2  A    between atoms: O1_3  and  C3_4 
REMARK    3  A    between atoms: C3_4  and  O2_6 
REMARK    4  A    between atoms: O2_6  and  C5_7 
REMARK    5  A    between atoms: C9_13  and  N3_14 
REMARK    6  A    between atoms: N3_14  and  C10_15 
ROOT
HETATM    1  C5  UNL     1      21.030   0.372  51.505  1.00  0.00     0.110 A 
HETATM    2  C6  UNL     1      21.749   1.303  50.784  1.00  0.00     0.072 A 
HETATM    3  C7  UNL     1      23.027   1.678  51.142  1.00  0.00     0.077 A 
HETATM    4  N1  UNL     1      23.739   2.580  50.452  1.00  0.00    -0.241 NA
HETATM    5  C8  UNL     1      24.985   2.967  50.771  1.00  0.00     0.236 A 
HETATM    6  N2  UNL     1      25.549   2.393  51.874  1.00  0.00    -0.223 NA
HETATM    7  C9  UNL     1      24.854   1.480  52.589  1.00  0.00     0.144 A 
HETATM    8  C17 UNL     1      23.577   1.086  52.260  1.00  0.00     0.075 A 
HETATM    9  C18 UNL     1      22.908   0.151  53.017  1.00  0.00     0.121 A 
HETATM   10  C19 UNL     1      21.629  -0.203  52.633  1.00  0.00     0.136 A 
HETATM   11  O3  UNL     1      21.004  -1.148  53.436  1.00  0.00    -0.344 OA
HETATM   12  C20 UNL     1      21.327  -1.175  54.835  1.00  0.00     0.202 C 
HETATM   13  C21 UNL     1      22.823  -1.197  55.063  1.00  0.00     0.202 C 
HETATM   14  O4  UNL     1      23.514  -0.408  54.131  1.00  0.00    -0.345 OA
ENDROOT
BRANCH   7  15
HETATM   15  N3  UNL     1      25.555   0.978  53.690  1.00  0.00    -0.340 N 
HETATM   16  H12 UNL     1      25.676   0.828  54.708  1.00  0.00     0.167 HD
BRANCH  15  17
HETATM   17  C10 UNL     1      26.775   0.264  53.523  1.00  0.00     0.033 C 
HETATM   18  C11 UNL     1      27.927   0.665  54.085  1.00  0.00     0.032 C 
HETATM   19  C12 UNL     1      29.283   0.134  54.075  1.00  0.00     0.040 C 
HETATM   20  C13 UNL     1      29.567  -1.105  53.725  1.00  0.00     0.097 C 
HETATM   21  F1  UNL     1      30.915  -1.288  53.821  1.00  0.00    -0.211 F 
HETATM   22  C14 UNL     1      28.824  -2.307  53.271  1.00  0.00     0.097 C 
HETATM   23  C15 UNL     1      27.569  -2.018  52.572  1.00  0.00    -0.018 C 
HETATM   24  C16 UNL     1      26.750  -0.959  52.693  1.00  0.00     0.026 C 
ENDBRANCH  15  17
ENDBRANCH   7  15
BRANCH   1  25
HETATM   25  O2  UNL     1      19.753  -0.059  51.220  1.00  0.00    -0.318 OA
BRANCH  25  26
HETATM   26  C3  UNL     1      18.573   0.375  51.852  1.00  0.00     0.262 C 
HETATM   27  C4  UNL     1      18.035   1.534  51.012  1.00  0.00     0.071 C 
BRANCH  26  28
HETATM   28  O1  UNL     1      17.667  -0.683  51.825  1.00  0.00    -0.362 OA
BRANCH  28  29
HETATM   29  C2  UNL     1      17.222  -1.043  53.083  1.00  0.00     0.166 C 
HETATM   30  C1  UNL     1      17.800  -2.358  53.539  1.00  0.00     0.033 C 
ENDBRANCH  28  29
ENDBRANCH  26  28
ENDBRANCH  25  26
ENDBRANCH   1  25
TORSDOF 6
ENDMDL
MODEL 2
REMARK VINA RESULT:      -8.5      1.011      1.739
REMARK  6 active torsions:
REMARK  status: ('A' for Active; 'I' for Inactive)
REMARK    1  A    between atoms: C2_2  and  O1_3 
REMARK    2  A    between atoms: O1_3  and  C3_4 
REMARK    3  A    between atoms: C3_4  and  O2_6 
REMARK    4  A    between atoms: O2_6  and  C5_7 
REMARK    5  A    between atoms: C9_13  and  N3_14 
REMARK    6  A    between atoms: N3_14  and  C10_15 
ROOT
HETATM    1  C5  UNL     1      21.083   0.609  51.232  1.00  0.00     0.110 A 
HETATM    2  C6  UNL     1      21.878   1.510  50.554  1.00  0.00     0.072 A 
HETATM    3  C7  UNL     1      23.162   1.804  50.962  1.00  0.00     0.077 A 
HETATM    4  N1  UNL     1      23.948   2.676  50.313  1.00  0.00    -0.241 NA
HETATM    5  C8  UNL     1      25.202   2.985  50.682  1.00  0.00     0.236 A 
HETATM    6  N2  UNL     1      25.694   2.360  51.791  1.00  0.00    -0.223 NA
HETATM    7  C9  UNL     1      24.924   1.476  52.465  1.00  0.00     0.144 A 
HETATM    8  C17 UNL     1      23.639   1.162  52.085  1.00  0.00     0.075 A 
HETATM    9  C18 UNL     1      22.892   0.254  52.801  1.00  0.00     0.121 A 
HETATM   10  C19 UNL     1      21.609  -0.019  52.368  1.00  0.00     0.136 A 
HETATM   11  O3  UNL     1      20.904  -0.941  53.130  1.00  0.00    -0.344 OA
HETATM   12  C20 UNL     1      21.177  -1.011  54.539  1.00  0.00     0.202 C 
HETATM   13  C21 UNL     1      22.659  -1.123  54.816  1.00  0.00     0.202 C 
HETATM   14  O4  UNL     1      23.426  -0.359  53.923  1.00  0.00    -0.345 OA
ENDROOT
BRANCH   7  15
HETATM   15  N3  UNL     1      25.557   0.915  53.579  1.00  0.00    -0.340 N 
HETATM   16  H12 UNL     1      25.622   0.721  54.594  1.00  0.00     0.167 HD
BRANCH  15  17
HETATM   17  C10 UNL     1      26.770   0.183  53.445  1.00  0.00     0.033 C 
HETATM   18  C11 UNL     1      27.918   0.580  54.019  1.00  0.00     0.032 C 
HETATM   19  C12 UNL     1      29.267   0.032  54.041  1.00  0.00     0.040 C 
HETATM   20  C13 UNL     1      29.541  -1.217  53.718  1.00  0.00     0.097 C 
HETATM   21  F1  UNL     1      30.885  -1.415  53.840  1.00  0.00    -0.211 F 
HETATM   22  C14 UNL     1      28.791  -2.417  53.273  1.00  0.00     0.097 C 
HETATM   23  C15 UNL     1      27.551  -2.125  52.548  1.00  0.00    -0.018 C 
HETATM   24  C16 UNL     1      26.743  -1.055  52.636  1.00  0.00     0.026 C 
ENDBRANCH  15  17
ENDBRANCH   7  15
BRANCH   1  25
HETATM   25  O2  UNL     1      19.794   0.258  50.896  1.00  0.00    -0.318 OA
BRANCH  25  26
HETATM   26  C3  UNL     1      18.694   1.130  50.815  1.00  0.00     0.262 C 
HETATM   27  C4  UNL     1      17.444   0.267  50.997  1.00  0.00     0.071 C 
BRANCH  26  28
HETATM   28  O1  UNL     1      18.794   2.036  51.868  1.00  0.00    -0.362 OA
BRANCH  28  29
HETATM   29  C2  UNL     1      18.294   3.286  51.554  1.00  0.00     0.166 C 
HETATM   30  C1  UNL     1      19.283   4.118  50.779  1.00  0.00     0.033 C 
ENDBRANCH  28  29
ENDBRANCH  26  28
ENDBRANCH  25  26
ENDBRANCH   1  25
TORSDOF 6
ENDMDL
MODEL 3
REMARK VINA RESULT:      -8.3      3.859      8.435
REMARK  6 active torsions:
REMARK  status: ('A' for Active; 'I' for Inactive)
REMARK    1  A    between atoms: C2_2  and  O1_3 
REMARK    2  A    between atoms: O1_3  and  C3_4 
REMARK    3  A    between atoms: C3_4  and  O2_6 
REMARK    4  A    between atoms: O2_6  and  C5_7 
REMARK    5  A    between atoms: C9_13  and  N3_14 
REMARK    6  A    between atoms: N3_14  and  C10_15 
ROOT
HETATM    1  C5  UNL     1      26.174  -0.261  52.916  1.00  0.00     0.110 A 
HETATM    2  C6  UNL     1      25.231  -0.827  53.749  1.00  0.00     0.072 A 
HETATM    3  C7  UNL     1      23.926  -0.382  53.786  1.00  0.00     0.077 A 
HETATM    4  N1  UNL     1      22.998  -0.922  54.588  1.00  0.00    -0.241 NA
HETATM    5  C8  UNL     1      21.719  -0.515  54.649  1.00  0.00     0.236 A 
HETATM    6  N2  UNL     1      21.358   0.518  53.833  1.00  0.00    -0.223 NA
HETATM    7  C9  UNL     1      22.274   1.082  53.013  1.00  0.00     0.144 A 
HETATM    8  C17 UNL     1      23.583   0.662  52.954  1.00  0.00     0.075 A 
HETATM    9  C18 UNL     1      24.481   1.266  52.102  1.00  0.00     0.121 A 
HETATM   10  C19 UNL     1      25.781   0.798  52.088  1.00  0.00     0.136 A 
HETATM   11  O3  UNL     1      26.640   1.446  51.211  1.00  0.00    -0.344 OA
HETATM   12  C20 UNL     1      26.415   2.838  50.940  1.00  0.00     0.202 C 
HETATM   13  C21 UNL     1      24.975   3.108  50.561  1.00  0.00     0.202 C 
HETATM   14  O4  UNL     1      24.077   2.313  51.289  1.00  0.00    -0.345 OA
ENDROOT
BRANCH   7  15
HETATM   15  N3  UNL     1      21.764   2.127  52.236  1.00  0.00    -0.340 N 
HETATM   16  H12 UNL     1      21.826   3.073  51.820  1.00  0.00     0.167 HD
BRANCH  15  17
HETATM   17  C10 UNL     1      20.499   2.017  51.594  1.00  0.00     0.033 C 
HETATM   18  C11 UNL     1      20.157   0.950  50.853  1.00  0.00     0.032 C 
HETATM   19  C12 UNL     1      18.959   0.593  50.106  1.00  0.00     0.040 C 
HETATM   20  C13 UNL     1      17.792   1.178  50.296  1.00  0.00     0.097 C 
HETATM   21  F1  UNL     1      16.881   0.621  49.447  1.00  0.00    -0.211 F 
HETATM   22  C14 UNL     1      17.237   2.246  51.163  1.00  0.00     0.097 C 
HETATM   23  C15 UNL     1      18.214   3.252  51.590  1.00  0.00    -0.018 C 
HETATM   24  C16 UNL     1      19.542   3.133  51.758  1.00  0.00     0.026 C 
ENDBRANCH  15  17
ENDBRANCH   7  15
BRANCH   1  25
HETATM   25  O2  UNL     1      27.495  -0.641  52.816  1.00  0.00    -0.318 OA
BRANCH  25  26
HETATM   26  C3  UNL     1      28.382  -0.841  53.889  1.00  0.00     0.262 C 
HETATM   27  C4  UNL     1      29.761  -1.077  53.271  1.00  0.00     0.071 C 
BRANCH  26  28
HETATM   28  O1  UNL     1      28.401   0.330  54.644  1.00  0.00    -0.362 OA
BRANCH  28  29
HETATM   29  C2  UNL     1      29.358   1.231  54.217  1.00  0.00     0.166 C 
HETATM   30  C1  UNL     1      28.749   2.516  53.718  1.00  0.00     0.033 C 
ENDBRANCH  28  29
ENDBRANCH  26  28
ENDBRANCH  25  26
ENDBRANCH   1  25
TORSDOF 6
ENDMDL
MODEL 4
REMARK VINA RESULT:      -8.1      2.251      3.902
REMARK  6 active torsions:
REMARK  status: ('A' for Active; 'I' for Inactive)
REMARK    1  A    between atoms: C2_2  and  O1_3 
REMARK    2  A    between atoms: O1_3  and  C3_4 
REMARK    3  A    between atoms: C3_4  and  O2_6 
REMARK    4  A    between atoms: O2_6  and  C5_7 
REMARK    5  A    between atoms: C9_13  and  N3_14 
REMARK    6  A    between atoms: N3_14  and  C10_15 
ROOT
HETATM    1  C5  UNL     1      20.388   2.520  52.360  1.00  0.00     0.110 A 
HETATM    2  C6  UNL     1      20.395   1.427  53.201  1.00  0.00     0.072 A 
HETATM    3  C7  UNL     1      21.547   0.718  53.470  1.00  0.00     0.077 A 
HETATM    4  N1  UNL     1      21.571  -0.345  54.286  1.00  0.00    -0.241 NA
HETATM    5  C8  UNL     1      22.675  -1.057  54.571  1.00  0.00     0.236 A 
HETATM    6  N2  UNL     1      23.840  -0.657  53.983  1.00  0.00    -0.223 NA
HETATM    7  C9  UNL     1      23.845   0.413  53.156  1.00  0.00     0.144 A 
HETATM    8  C17 UNL     1      22.713   1.140  52.866  1.00  0.00     0.075 A 
HETATM    9  C18 UNL     1      22.766   2.223  52.018  1.00  0.00     0.121 A 
HETATM   10  C19 UNL     1      21.595   2.912  51.767  1.00  0.00     0.136 A 
HETATM   11  O3  UNL     1      21.711   3.993  50.904  1.00  0.00    -0.344 OA
HETATM   12  C20 UNL     1      22.701   3.934  49.866  1.00  0.00     0.202 C 
HETATM   13  C21 UNL     1      24.059   3.548  50.409  1.00  0.00     0.202 C 
HETATM   14  O4  UNL     1      23.968   2.598  51.439  1.00  0.00    -0.345 OA
ENDROOT
BRANCH   7  15
HETATM   15  N3  UNL     1      25.106   0.707  52.627  1.00  0.00    -0.340 N 
HETATM   16  H12 UNL     1      25.734   1.242  52.001  1.00  0.00     0.167 HD
BRANCH  15  17
HETATM   17  C10 UNL     1      26.266   0.001  53.052  1.00  0.00     0.033 C 
HETATM   18  C11 UNL     1      26.641  -1.166  52.503  1.00  0.00     0.032 C 
HETATM   19  C12 UNL     1      27.755  -2.073  52.744  1.00  0.00     0.040 C 
HETATM   20  C13 UNL     1      28.843  -1.717  53.398  1.00  0.00     0.097 C 
HETATM   21  F1  UNL     1      29.688  -2.786  53.454  1.00  0.00    -0.211 F 
HETATM   22  C14 UNL     1      29.365  -0.498  54.064  1.00  0.00     0.097 C 
HETATM   23  C15 UNL     1      28.330   0.405  54.575  1.00  0.00    -0.018 C 
HETATM   24  C16 UNL     1      27.071   0.591  54.144  1.00  0.00     0.026 C 
ENDBRANCH  15  17
ENDBRANCH   7  15
BRANCH   1  25
HETATM   25  O2  UNL     1      19.287   3.282  52.036  1.00  0.00    -0.318 OA
BRANCH  25  26
HETATM   26  C3  UNL     1      18.047   2.794  51.586  1.00  0.00     0.262 C 
HETATM   27  C4  UNL     1      17.094   3.991  51.566  1.00  0.00     0.071 C 
BRANCH  26  28
HETATM   28  O1  UNL     1      18.226   2.317  50.289  1.00  0.00    -0.362 OA
BRANCH  28  29
HETATM   29  C2  UNL     1      18.519   3.317  49.382  1.00  0.00     0.166 C 
HETATM   30  C1  UNL     1      19.461   2.851  48.302  1.00  0.00     0.033 C 
ENDBRANCH  28  29
ENDBRANCH  26  28
ENDBRANCH  25  26
ENDBRANCH   1  25
TORSDOF 6
ENDMDL
MODEL 5
REMARK VINA RESULT:      -7.9      3.631      8.269
REMARK  6 active torsions:
REMARK  status: ('A' for Active; 'I' for Inactive)
REMARK    1  A    between atoms: C2_2  and  O1_3 
REMARK    2  A    between atoms: O1_3  and  C3_4 
REMARK    3  A    between atoms: C3_4  and  O2_6 
REMARK    4  A    between atoms: O2_6  and  C5_7 
REMARK    5  A    between atoms: C9_13  and  N3_14 
REMARK    6  A    between atoms: N3_14  and  C10_15 
ROOT
HETATM    1  C5  UNL     1      26.063   0.545  52.695  1.00  0.00     0.110 A 
HETATM    2  C6  UNL     1      25.616  -0.336  53.659  1.00  0.00     0.072 A 
HETATM    3  C7  UNL     1      24.284  -0.429  54.004  1.00  0.00     0.077 A 
HETATM    4  N1  UNL     1      23.834  -1.280  54.936  1.00  0.00    -0.241 NA
HETATM    5  C8  UNL     1      22.545  -1.398  55.296  1.00  0.00     0.236 A 
HETATM    6  N2  UNL     1      21.647  -0.590  54.659  1.00  0.00    -0.223 NA
HETATM    7  C9  UNL     1      22.073   0.278  53.713  1.00  0.00     0.144 A 
HETATM    8  C17 UNL     1      23.395   0.396  53.348  1.00  0.00     0.075 A 
HETATM    9  C18 UNL     1      23.783   1.294  52.378  1.00  0.00     0.121 A 
HETATM   10  C19 UNL     1      25.124   1.364  52.055  1.00  0.00     0.136 A 
HETATM   11  O3  UNL     1      25.455   2.287  51.073  1.00  0.00    -0.344 OA
HETATM   12  C20 UNL     1      24.666   3.483  50.967  1.00  0.00     0.202 C 
HETATM   13  C21 UNL     1      23.185   3.173  50.922  1.00  0.00     0.202 C 
HETATM   14  O4  UNL     1      22.842   2.097  51.755  1.00  0.00    -0.345 OA
ENDROOT
BRANCH   7  15
HETATM   15  N3  UNL     1      21.046   1.039  53.147  1.00  0.00    -0.340 N 
HETATM   16  H12 UNL     1      20.605   1.943  52.902  1.00  0.00     0.167 HD
BRANCH  15  17
HETATM   17  C10 UNL     1      19.923   0.419  52.531  1.00  0.00     0.033 C 
HETATM   18  C11 UNL     1      19.086  -0.389  53.205  1.00  0.00     0.032 C 
HETATM   19  C12 UNL     1      17.893  -1.132  52.827  1.00  0.00     0.040 C 
HETATM   20  C13 UNL     1      17.203  -0.876  51.733  1.00  0.00     0.097 C 
HETATM   21  F1  UNL     1      16.151  -1.742  51.668  1.00  0.00    -0.211 F 
HETATM   22  C14 UNL     1      17.273   0.077  50.598  1.00  0.00     0.097 C 
HETATM   23  C15 UNL     1      18.624   0.553  50.287  1.00  0.00    -0.018 C 
HETATM   24  C16 UNL     1      19.690   0.683  51.095  1.00  0.00     0.026 C 
ENDBRANCH  15  17
ENDBRANCH   7  15
BRANCH   1  25
HETATM   25  O2  UNL     1      27.370   0.704  52.291  1.00  0.00    -0.318 OA
BRANCH  25  26
HETATM   26  C3  UNL     1      28.434   1.158  53.090  1.00  0.00     0.262 C 
HETATM   27  C4  UNL     1      27.906   2.366  53.866  1.00  0.00     0.071 C 
BRANCH  26  28
HETATM   28  O1  UNL     1      28.760   0.136  53.980  1.00  0.00    -0.362 OA
BRANCH  28  29
HETATM   29  C2  UNL     1      29.791  -0.664  53.527  1.00  0.00     0.166 C 
HETATM   30  C1  UNL     1      29.361  -2.096  53.337  1.00  0.00     0.033 C 
ENDBRANCH  28  29
ENDBRANCH  26  28
ENDBRANCH  25  26
ENDBRANCH   1  25
TORSDOF 6
ENDMDL
MODEL 6
REMARK VINA RESULT:      -7.8      2.218      3.550
REMARK  6 active torsions:
REMARK  status: ('A' for Active; 'I' for Inactive)
REMARK    1  A    between atoms: C2_2  and  O1_3 
REMARK    2  A    between atoms: O1_3  and  C3_4 
REMARK    3  A    between atoms: C3_4  and  O2_6 
REMARK    4  A    between atoms: O2_6  and  C5_7 
REMARK    5  A    between atoms: C9_13  and  N3_14 
REMARK    6  A    between atoms: N3_14  and  C10_15 
ROOT
HETATM    1  C5  UNL     1      22.131   2.447  49.464  1.00  0.00     0.110 A 
HETATM    2  C6  UNL     1      23.302   3.008  48.996  1.00  0.00     0.072 A 
HETATM    3  C7  UNL     1      24.469   2.982  49.730  1.00  0.00     0.077 A 
HETATM    4  N1  UNL     1      25.615   3.520  49.289  1.00  0.00    -0.241 NA
HETATM    5  C8  UNL     1      26.770   3.512  49.977  1.00  0.00     0.236 A 
HETATM    6  N2  UNL     1      26.758   2.911  51.202  1.00  0.00    -0.223 NA
HETATM    7  C9  UNL     1      25.616   2.359  51.672  1.00  0.00     0.144 A 
HETATM    8  C17 UNL     1      24.435   2.370  50.965  1.00  0.00     0.075 A 
HETATM    9  C18 UNL     1      23.296   1.794  51.483  1.00  0.00     0.121 A 
HETATM   10  C19 UNL     1      22.142   1.837  50.724  1.00  0.00     0.136 A 
HETATM   11  O3  UNL     1      21.027   1.241  51.299  1.00  0.00    -0.344 OA
HETATM   12  C20 UNL     1      20.902   1.265  52.729  1.00  0.00     0.202 C 
HETATM   13  C21 UNL     1      22.165   0.781  53.408  1.00  0.00     0.202 C 
HETATM   14  O4  UNL     1      23.323   1.194  52.732  1.00  0.00    -0.345 OA
ENDROOT
BRANCH   7  15
HETATM   15  N3  UNL     1      25.751   1.780  52.937  1.00  0.00    -0.340 N 
HETATM   16  H12 UNL     1      25.490   1.689  53.935  1.00  0.00     0.167 HD
BRANCH  15  17
HETATM   17  C10 UNL     1      26.704   0.751  53.178  1.00  0.00     0.033 C 
HETATM   18  C11 UNL     1      26.575  -0.485  52.666  1.00  0.00     0.032 C 
HETATM   19  C12 UNL     1      27.383  -1.692  52.754  1.00  0.00     0.040 C 
HETATM   20  C13 UNL     1      28.643  -1.688  53.140  1.00  0.00     0.097 C 
HETATM   21  F1  UNL     1      29.112  -2.969  53.115  1.00  0.00    -0.211 F 
HETATM   22  C14 UNL     1      29.645  -0.686  53.580  1.00  0.00     0.097 C 
HETATM   23  C15 UNL     1      29.074   0.507  54.211  1.00  0.00    -0.018 C 
HETATM   24  C16 UNL     1      27.869   1.074  54.029  1.00  0.00     0.026 C 
ENDBRANCH  15  17
ENDBRANCH   7  15
BRANCH   1  25
HETATM   25  O2  UNL     1      20.924   2.429  48.800  1.00  0.00    -0.318 OA
BRANCH  25  26
HETATM   26  C3  UNL     1      20.029   3.507  48.680  1.00  0.00     0.262 C 
HETATM   27  C4  UNL     1      18.642   2.896  48.472  1.00  0.00     0.071 C 
BRANCH  26  28
HETATM   28  O1  UNL     1      20.055   4.213  49.880  1.00  0.00    -0.362 OA
BRANCH  28  29
HETATM   29  C2  UNL     1      20.462   5.525  49.726  1.00  0.00     0.166 C 
HETATM   30  C1  UNL     1      21.398   5.965  50.821  1.00  0.00     0.033 C 
ENDBRANCH  28  29
ENDBRANCH  26  28
ENDBRANCH  25  26
ENDBRANCH   1  25
TORSDOF 6
ENDMDL
MODEL 7
REMARK VINA RESULT:      -7.8      4.311      8.053
REMARK  6 active torsions:
REMARK  status: ('A' for Active; 'I' for Inactive)
REMARK    1  A    between atoms: C2_2  and  O1_3 
REMARK    2  A    between atoms: O1_3  and  C3_4 
REMARK    3  A    between atoms: C3_4  and  O2_6 
REMARK    4  A    between atoms: O2_6  and  C5_7 
REMARK    5  A    between atoms: C9_13  and  N3_14 
REMARK    6  A    between atoms: N3_14  and  C10_15 
ROOT
HETATM    1  C5  UNL     1      25.818   1.050  52.027  1.00  0.00     0.110 A 
HETATM    2  C6  UNL     1      26.716   1.806  51.303  1.00  0.00     0.072 A 
HETATM    3  C7  UNL     1      26.319   2.889  50.548  1.00  0.00     0.077 A 
HETATM    4  N1  UNL     1      27.179   3.634  49.839  1.00  0.00    -0.241 NA
HETATM    5  C8  UNL     1      26.827   4.696  49.094  1.00  0.00     0.236 A 
HETATM    6  N2  UNL     1      25.502   5.024  49.069  1.00  0.00    -0.223 NA
HETATM    7  C9  UNL     1      24.612   4.290  49.775  1.00  0.00     0.144 A 
HETATM    8  C17 UNL     1      24.976   3.203  50.536  1.00  0.00     0.075 A 
HETATM    9  C18 UNL     1      24.034   2.485  51.240  1.00  0.00     0.121 A 
HETATM   10  C19 UNL     1      24.463   1.405  51.986  1.00  0.00     0.136 A 
HETATM   11  O3  UNL     1      23.470   0.720  52.672  1.00  0.00    -0.344 OA
HETATM   12  C20 UNL     1      22.154   0.671  52.097  1.00  0.00     0.202 C 
HETATM   13  C21 UNL     1      21.666   2.046  51.699  1.00  0.00     0.202 C 
HETATM   14  O4  UNL     1      22.698   2.849  51.188  1.00  0.00    -0.345 OA
ENDROOT
BRANCH   7  15
HETATM   15  N3  UNL     1      23.294   4.740  49.656  1.00  0.00    -0.340 N 
HETATM   16  H12 UNL     1      22.410   5.100  50.057  1.00  0.00     0.167 HD
BRANCH  15  17
HETATM   17  C10 UNL     1      22.653   4.814  48.387  1.00  0.00     0.033 C 
HETATM   18  C11 UNL     1      22.436   5.981  47.756  1.00  0.00     0.032 C 
HETATM   19  C12 UNL     1      21.818   6.330  46.485  1.00  0.00     0.040 C 
HETATM   20  C13 UNL     1      21.619   5.456  45.518  1.00  0.00     0.097 C 
HETATM   21  F1  UNL     1      21.025   6.094  44.468  1.00  0.00    -0.211 F 
HETATM   22  C14 UNL     1      21.864   4.011  45.288  1.00  0.00     0.097 C 
HETATM   23  C15 UNL     1      21.887   3.196  46.506  1.00  0.00    -0.018 C 
HETATM   24  C16 UNL     1      22.213   3.549  47.761  1.00  0.00     0.026 C 
ENDBRANCH  15  17
ENDBRANCH   7  15
BRANCH   1  25
HETATM   25  O2  UNL     1      26.127  -0.045  52.805  1.00  0.00    -0.318 OA
BRANCH  25  26
HETATM   26  C3  UNL     1      27.023  -0.064  53.889  1.00  0.00     0.262 C 
HETATM   27  C4  UNL     1      26.169   0.001  55.156  1.00  0.00     0.071 C 
BRANCH  26  28
HETATM   28  O1  UNL     1      27.710  -1.275  53.848  1.00  0.00    -0.362 OA
BRANCH  28  29
HETATM   29  C2  UNL     1      28.999  -1.147  53.367  1.00  0.00     0.166 C 
HETATM   30  C1  UNL     1      29.579   0.215  53.644  1.00  0.00     0.033 C 
ENDBRANCH  28  29
ENDBRANCH  26  28
ENDBRANCH  25  26
ENDBRANCH   1  25
TORSDOF 6
ENDMDL
MODEL 8
REMARK VINA RESULT:      -7.8      4.544      8.084
REMARK  6 active torsions:
REMARK  status: ('A' for Active; 'I' for Inactive)
REMARK    1  A    between atoms: C2_2  and  O1_3 
REMARK    2  A    between atoms: O1_3  and  C3_4 
REMARK    3  A    between atoms: C3_4  and  O2_6 
REMARK    4  A    between atoms: O2_6  and  C5_7 
REMARK    5  A    between atoms: C9_13  and  N3_14 
REMARK    6  A    between atoms: N3_14  and  C10_15 
ROOT
HETATM    1  C5  UNL     1      25.944   4.458  49.498  1.00  0.00     0.110 A 
HETATM    2  C6  UNL     1      26.614   3.322  49.902  1.00  0.00     0.072 A 
HETATM    3  C7  UNL     1      26.104   2.475  50.864  1.00  0.00     0.077 A 
HETATM    4  N1  UNL     1      26.742   1.366  51.266  1.00  0.00    -0.241 NA
HETATM    5  C8  UNL     1      26.274   0.519  52.199  1.00  0.00     0.236 A 
HETATM    6  N2  UNL     1      25.068   0.822  52.762  1.00  0.00    -0.223 NA
HETATM    7  C9  UNL     1      24.402   1.933  52.375  1.00  0.00     0.144 A 
HETATM    8  C17 UNL     1      24.884   2.799  51.420  1.00  0.00     0.075 A 
HETATM    9  C18 UNL     1      24.171   3.919  51.056  1.00  0.00     0.121 A 
HETATM   10  C19 UNL     1      24.708   4.749  50.090  1.00  0.00     0.136 A 
HETATM   11  O3  UNL     1      23.945   5.861  49.766  1.00  0.00    -0.344 OA
HETATM   12  C20 UNL     1      23.127   6.449  50.790  1.00  0.00     0.202 C 
HETATM   13  C21 UNL     1      22.275   5.413  51.489  1.00  0.00     0.202 C 
HETATM   14  O4  UNL     1      22.950   4.193  51.651  1.00  0.00    -0.345 OA
ENDROOT
BRANCH   7  15
HETATM   15  N3  UNL     1      23.183   2.116  53.035  1.00  0.00    -0.340 N 
HETATM   16  H12 UNL     1      22.539   2.664  53.633  1.00  0.00     0.167 HD
BRANCH  15  17
HETATM   17  C10 UNL     1      22.154   1.136  52.966  1.00  0.00     0.033 C 
HETATM   18  C11 UNL     1      21.883   0.302  53.984  1.00  0.00     0.032 C 
HETATM   19  C12 UNL     1      20.910  -0.765  54.170  1.00  0.00     0.040 C 
HETATM   20  C13 UNL     1      19.840  -0.903  53.413  1.00  0.00     0.097 C 
HETATM   21  F1  UNL     1      19.138  -1.992  53.843  1.00  0.00    -0.211 F 
HETATM   22  C14 UNL     1      19.226  -0.206  52.257  1.00  0.00     0.097 C 
HETATM   23  C15 UNL     1      20.178   0.508  51.401  1.00  0.00    -0.018 C 
HETATM   24  C16 UNL     1      21.369   1.046  51.715  1.00  0.00     0.026 C 
ENDBRANCH  15  17
ENDBRANCH   7  15
BRANCH   1  25
HETATM   25  O2  UNL     1      26.379   5.357  48.549  1.00  0.00    -0.318 OA
BRANCH  25  26
HETATM   26  C3  UNL     1      27.318   6.384  48.750  1.00  0.00     0.262 C 
HETATM   27  C4  UNL     1      28.654   5.858  48.222  1.00  0.00     0.071 C 
BRANCH  26  28
HETATM   28  O1  UNL     1      26.913   7.481  47.992  1.00  0.00    -0.362 OA
BRANCH  28  29
HETATM   29  C2  UNL     1      26.959   8.669  48.696  1.00  0.00     0.166 C 
HETATM   30  C1  UNL     1      26.537   8.498  50.133  1.00  0.00     0.033 C 
ENDBRANCH  28  29
ENDBRANCH  26  28
ENDBRANCH  25  26
ENDBRANCH   1  25
TORSDOF 6
ENDMDL
MODEL 9
REMARK VINA RESULT:      -7.7      3.485      8.054
REMARK  6 active torsions:
REMARK  status: ('A' for Active; 'I' for Inactive)
REMARK    1  A    between atoms: C2_2  and  O1_3 
REMARK    2  A    between atoms: O1_3  and  C3_4 
REMARK    3  A    between atoms: C3_4  and  O2_6 
REMARK    4  A    between atoms: O2_6  and  C5_7 
REMARK    5  A    between atoms: C9_13  and  N3_14 
REMARK    6  A    between atoms: N3_14  and  C10_15 
ROOT
HETATM    1  C5  UNL     1      24.725   0.272  52.762  1.00  0.00     0.110 A 
HETATM    2  C6  UNL     1      24.800   1.275  51.818  1.00  0.00     0.072 A 
HETATM    3  C7  UNL     1      23.718   2.074  51.512  1.00  0.00     0.077 A 
HETATM    4  N1  UNL     1      23.774   3.053  50.599  1.00  0.00    -0.241 NA
HETATM    5  C8  UNL     1      22.741   3.850  50.277  1.00  0.00     0.236 A 
HETATM    6  N2  UNL     1      21.564   3.635  50.934  1.00  0.00    -0.223 NA
HETATM    7  C9  UNL     1      21.478   2.654  51.861  1.00  0.00     0.144 A 
HETATM    8  C17 UNL     1      22.538   1.839  52.188  1.00  0.00     0.075 A 
HETATM    9  C18 UNL     1      22.405   0.853  53.139  1.00  0.00     0.121 A 
HETATM   10  C19 UNL     1      23.507   0.069  53.423  1.00  0.00     0.136 A 
HETATM   11  O3  UNL     1      23.312  -0.908  54.389  1.00  0.00    -0.344 OA
HETATM   12  C20 UNL     1      22.008  -1.498  54.509  1.00  0.00     0.202 C 
HETATM   13  C21 UNL     1      20.925  -0.446  54.600  1.00  0.00     0.202 C 
HETATM   14  O4  UNL     1      21.193   0.664  53.784  1.00  0.00    -0.345 OA
ENDROOT
BRANCH   7  15
HETATM   15  N3  UNL     1      20.215   2.548  52.451  1.00  0.00    -0.340 N 
HETATM   16  H12 UNL     1      19.578   2.603  53.265  1.00  0.00     0.167 HD
BRANCH  15  17
HETATM   17  C10 UNL     1      19.073   2.180  51.686  1.00  0.00     0.033 C 
HETATM   18  C11 UNL     1      18.963   0.984  51.085  1.00  0.00     0.032 C 
HETATM   19  C12 UNL     1      17.930   0.369  50.264  1.00  0.00     0.040 C 
HETATM   20  C13 UNL     1      16.689   0.811  50.218  1.00  0.00     0.097 C 
HETATM   21  F1  UNL     1      15.976   0.024  49.362  1.00  0.00    -0.211 F 
HETATM   22  C14 UNL     1      15.899   1.905  50.835  1.00  0.00     0.097 C 
HETATM   23  C15 UNL     1      16.684   3.083  51.214  1.00  0.00    -0.018 C 
HETATM   24  C16 UNL     1      17.981   3.169  51.558  1.00  0.00     0.026 C 
ENDBRANCH  15  17
ENDBRANCH   7  15
BRANCH   1  25
HETATM   25  O2  UNL     1      25.753  -0.570  53.128  1.00  0.00    -0.318 OA
BRANCH  25  26
HETATM   26  C3  UNL     1      26.994  -0.178  53.659  1.00  0.00     0.262 C 
HETATM   27  C4  UNL     1      26.696   0.510  54.993  1.00  0.00     0.071 C 
BRANCH  26  28
HETATM   28  O1  UNL     1      27.740  -1.333  53.884  1.00  0.00    -0.362 OA
BRANCH  28  29
HETATM   29  C2  UNL     1      28.858  -1.419  53.076  1.00  0.00     0.166 C 
HETATM   30  C1  UNL     1      30.093  -0.882  53.751  1.00  0.00     0.033 C 
ENDBRANCH  28  29
ENDBRANCH  26  28
ENDBRANCH  25  26
ENDBRANCH   1  25
TORSDOF 6
ENDMDL
