MODEL 1
REMARK VINA RESULT:      -8.6      0.000      0.000
REMARK  5 active torsions:
REMARK  status: ('A' for Active; 'I' for Inactive)
REMARK    1  A    between atoms: N1_5  and  C5_6 
REMARK    2  A    between atoms: C5_6  and  C6_7 
REMARK    3  A    between atoms: C6_7  and  C7_8 
REMARK    4  A    between atoms: C7_8  and  O2_10 
REMARK    5  A    between atoms: C9_12  and  C10_13 
ROOT
HETATM    1  C1  UNL     1      26.232  -0.579  52.580  1.00  0.00     0.020 C 
HETATM    2  C2  UNL     1      26.091   0.885  52.963  1.00  0.00     0.055 A 
HETATM    3  C3  UNL     1      27.267   1.621  52.380  1.00  0.00     0.001 A 
HETATM    4  C4  UNL     1      26.800   2.476  51.504  1.00  0.00     0.087 A 
HETATM    5  N1  UNL     1      25.403   2.509  51.324  1.00  0.00    -0.359 N 
HETATM    6  C8  UNL     1      24.950   1.521  52.236  1.00  0.00     0.018 A 
HETATM    7  C9  UNL     1      23.697   1.197  52.454  1.00  0.00     0.027 C 
ENDROOT
BRANCH   7   8
HETATM    8  C10 UNL     1      23.000   0.294  53.297  1.00  0.00     0.020 C 
HETATM    9  C11 UNL     1      21.865  -0.267  53.520  1.00  0.00     0.044 A 
HETATM   10  C12 UNL     1      21.595  -1.226  54.616  1.00  0.00     0.257 A 
HETATM   11  C18 UNL     1      20.600  -0.139  52.813  1.00  0.00     0.006 A 
HETATM   12  O3  UNL     1      22.412  -1.639  55.492  1.00  0.00    -0.267 OA
HETATM   13  N2  UNL     1      20.235  -1.568  54.462  1.00  0.00    -0.322 N 
HETATM   14  C13 UNL     1      19.611  -0.916  53.368  1.00  0.00     0.046 A 
HETATM   15  H14 UNL     1      19.787  -2.244  55.124  1.00  0.00     0.169 HD
HETATM   16  C14 UNL     1      18.307  -1.023  52.938  1.00  0.00     0.030 A 
HETATM   17  C15 UNL     1      17.941  -0.277  51.834  1.00  0.00     0.002 A 
HETATM   18  C16 UNL     1      18.880   0.526  51.227  1.00  0.00     0.001 A 
HETATM   19  C17 UNL     1      20.160   0.572  51.721  1.00  0.00     0.015 A 
ENDBRANCH   7   8
BRANCH   5  20
HETATM   20  C5  UNL     1      24.542   3.284  50.504  1.00  0.00     0.138 C 
BRANCH  20  21
HETATM   21  C6  UNL     1      24.488   4.746  50.710  1.00  0.00     0.130 C 
BRANCH  21  22
HETATM   22  C7  UNL     1      23.763   5.226  51.903  1.00  0.00     0.141 C 
HETATM   23  O1  UNL     1      22.836   4.910  52.710  1.00  0.00    -0.650 OA
BRANCH  22  24
HETATM   24  O2  UNL     1      24.302   6.458  52.248  1.00  0.00    -0.776 OA
HETATM   25  H11 UNL     1      24.088   6.890  53.128  1.00  0.00     0.167 HD
ENDBRANCH  22  24
ENDBRANCH  21  22
ENDBRANCH  20  21
ENDBRANCH   5  20
TORSDOF 5
ENDMDL
MODEL 2
REMARK VINA RESULT:      -8.4      2.771      3.805
REMARK  5 active torsions:
REMARK  status: ('A' for Active; 'I' for Inactive)
REMARK    1  A    between atoms: N1_5  and  C5_6 
REMARK    2  A    between atoms: C5_6  and  C6_7 
REMARK    3  A    between atoms: C6_7  and  C7_8 
REMARK    4  A    between atoms: C7_8  and  O2_10 
REMARK    5  A    between atoms: C9_12  and  C10_13 
ROOT
HETATM    1  C1  UNL     1      24.058   2.906  53.066  1.00  0.00     0.020 C 
HETATM    2  C2  UNL     1      24.591   2.052  51.928  1.00  0.00     0.055 A 
HETATM    3  C3  UNL     1      25.743   2.794  51.305  1.00  0.00     0.001 A 
HETATM    4  C4  UNL     1      26.820   2.072  51.488  1.00  0.00     0.087 A 
HETATM    5  N1  UNL     1      26.664   0.851  52.175  1.00  0.00    -0.359 N 
HETATM    6  C8  UNL     1      25.272   0.828  52.449  1.00  0.00     0.018 A 
HETATM    7  C9  UNL     1      24.629  -0.139  53.062  1.00  0.00     0.027 C 
ENDROOT
BRANCH   7   8
HETATM    8  C10 UNL     1      23.285  -0.409  53.428  1.00  0.00     0.020 C 
HETATM    9  C11 UNL     1      22.058  -0.306  53.057  1.00  0.00     0.044 A 
HETATM   10  C12 UNL     1      20.893  -0.773  53.844  1.00  0.00     0.257 A 
HETATM   11  C18 UNL     1      21.489   0.256  51.842  1.00  0.00     0.006 A 
HETATM   12  O3  UNL     1      20.911  -1.333  54.981  1.00  0.00    -0.267 OA
HETATM   13  N2  UNL     1      19.775  -0.455  53.046  1.00  0.00    -0.322 N 
HETATM   14  C13 UNL     1      20.117   0.172  51.822  1.00  0.00     0.046 A 
HETATM   15  H14 UNL     1      18.810  -0.685  53.382  1.00  0.00     0.169 HD
HETATM   16  C14 UNL     1      19.279   0.608  50.820  1.00  0.00     0.030 A 
HETATM   17  C15 UNL     1      19.865   1.193  49.713  1.00  0.00     0.002 A 
HETATM   18  C16 UNL     1      21.236   1.311  49.665  1.00  0.00     0.001 A 
HETATM   19  C17 UNL     1      21.997   0.847  50.708  1.00  0.00     0.015 A 
ENDBRANCH   7   8
BRANCH   5  20
HETATM   20  C5  UNL     1      27.562  -0.183  52.544  1.00  0.00     0.138 C 
BRANCH  20  21
HETATM   21  C6  UNL     1      28.145  -0.170  53.901  1.00  0.00     0.130 C 
BRANCH  21  22
HETATM   22  C7  UNL     1      29.129   0.890  54.195  1.00  0.00     0.141 C 
HETATM   23  O1  UNL     1      29.302   1.932  54.900  1.00  0.00    -0.650 OA
BRANCH  22  24
HETATM   24  O2  UNL     1      30.253   0.641  53.420  1.00  0.00    -0.776 OA
HETATM   25  H11 UNL     1      30.944   1.351  53.264  1.00  0.00     0.167 HD
ENDBRANCH  22  24
ENDBRANCH  21  22
ENDBRANCH  20  21
ENDBRANCH   5  20
TORSDOF 5
ENDMDL
MODEL 3
REMARK VINA RESULT:      -8.1      3.027      6.593
REMARK  5 active torsions:
REMARK  status: ('A' for Active; 'I' for Inactive)
REMARK    1  A    between atoms: N1_5  and  C5_6 
REMARK    2  A    between atoms: C5_6  and  C6_7 
REMARK    3  A    between atoms: C6_7  and  C7_8 
REMARK    4  A    between atoms: C7_8  and  O2_10 
REMARK    5  A    between atoms: C9_12  and  C10_13 
ROOT
HETATM    1  C1  UNL     1      26.407   2.770  49.771  1.00  0.00     0.020 C 
HETATM    2  C2  UNL     1      25.493   3.660  50.597  1.00  0.00     0.055 A 
HETATM    3  C3  UNL     1      24.402   4.159  49.689  1.00  0.00     0.001 A 
HETATM    4  C4  UNL     1      23.268   3.681  50.137  1.00  0.00     0.087 A 
HETATM    5  N1  UNL     1      23.326   2.870  51.289  1.00  0.00    -0.359 N 
HETATM    6  C8  UNL     1      24.713   2.856  51.587  1.00  0.00     0.018 A 
HETATM    7  C9  UNL     1      25.270   2.242  52.605  1.00  0.00     0.027 C 
ENDROOT
BRANCH   7   8
HETATM    8  C10 UNL     1      26.583   2.095  53.123  1.00  0.00     0.020 C 
HETATM    9  C11 UNL     1      27.532   1.257  53.348  1.00  0.00     0.044 A 
HETATM   10  C12 UNL     1      28.836   1.599  53.962  1.00  0.00     0.257 A 
HETATM   11  C18 UNL     1      27.605  -0.172  53.082  1.00  0.00     0.006 A 
HETATM   12  O3  UNL     1      29.220   2.739  54.359  1.00  0.00    -0.267 OA
HETATM   13  N2  UNL     1      29.540   0.378  54.002  1.00  0.00    -0.322 N 
HETATM   14  C13 UNL     1      28.807  -0.713  53.470  1.00  0.00     0.046 A 
HETATM   15  H14 UNL     1      30.508   0.346  54.400  1.00  0.00     0.169 HD
HETATM   16  C14 UNL     1      29.194  -2.030  53.357  1.00  0.00     0.030 A 
HETATM   17  C15 UNL     1      28.288  -2.910  52.795  1.00  0.00     0.002 A 
HETATM   18  C16 UNL     1      27.062  -2.437  52.384  1.00  0.00     0.001 A 
HETATM   19  C17 UNL     1      26.759  -1.107  52.533  1.00  0.00     0.015 A 
ENDBRANCH   7   8
BRANCH   5  20
HETATM   20  C5  UNL     1      22.342   2.202  52.062  1.00  0.00     0.138 C 
BRANCH  20  21
HETATM   21  C6  UNL     1      22.060   0.780  51.779  1.00  0.00     0.130 C 
BRANCH  21  22
HETATM   22  C7  UNL     1      22.395  -0.192  52.838  1.00  0.00     0.141 C 
HETATM   23  O1  UNL     1      23.379  -0.712  53.449  1.00  0.00    -0.650 OA
BRANCH  22  24
HETATM   24  O2  UNL     1      21.201  -0.706  53.324  1.00  0.00    -0.776 OA
HETATM   25  H11 UNL     1      20.891  -1.626  53.073  1.00  0.00     0.167 HD
ENDBRANCH  22  24
ENDBRANCH  21  22
ENDBRANCH  20  21
ENDBRANCH   5  20
TORSDOF 5
ENDMDL
MODEL 4
REMARK VINA RESULT:      -8.1      2.689      5.746
REMARK  5 active torsions:
REMARK  status: ('A' for Active; 'I' for Inactive)
REMARK    1  A    between atoms: N1_5  and  C5_6 
REMARK    2  A    between atoms: C5_6  and  C6_7 
REMARK    3  A    between atoms: C6_7  and  C7_8 
REMARK    4  A    between atoms: C7_8  and  O2_10 
REMARK    5  A    between atoms: C9_12  and  C10_13 
ROOT
HETATM    1  C1  UNL     1      21.120   1.101  50.949  1.00  0.00     0.020 C 
HETATM    2  C2  UNL     1      22.301   1.357  50.027  1.00  0.00     0.055 A 
HETATM    3  C3  UNL     1      21.769   2.009  48.779  1.00  0.00     0.001 A 
HETATM    4  C4  UNL     1      22.287   3.210  48.711  1.00  0.00     0.087 A 
HETATM    5  N1  UNL     1      23.164   3.588  49.747  1.00  0.00    -0.359 N 
HETATM    6  C8  UNL     1      23.183   2.434  50.572  1.00  0.00     0.018 A 
HETATM    7  C9  UNL     1      23.890   2.288  51.669  1.00  0.00     0.027 C 
ENDROOT
BRANCH   7   8
HETATM    8  C10 UNL     1      24.099   1.265  52.629  1.00  0.00     0.020 C 
HETATM    9  C11 UNL     1      24.968   0.714  53.401  1.00  0.00     0.044 A 
HETATM   10  C12 UNL     1      24.696  -0.428  54.303  1.00  0.00     0.257 A 
HETATM   11  C18 UNL     1      26.374   1.029  53.606  1.00  0.00     0.006 A 
HETATM   12  O3  UNL     1      23.596  -1.037  54.458  1.00  0.00    -0.267 OA
HETATM   13  N2  UNL     1      25.928  -0.678  54.941  1.00  0.00    -0.322 N 
HETATM   14  C13 UNL     1      26.963   0.199  54.530  1.00  0.00     0.046 A 
HETATM   15  H14 UNL     1      26.007  -1.453  55.641  1.00  0.00     0.169 HD
HETATM   16  C14 UNL     1      28.274   0.233  54.950  1.00  0.00     0.030 A 
HETATM   17  C15 UNL     1      29.094   1.196  54.392  1.00  0.00     0.002 A 
HETATM   18  C16 UNL     1      28.570   2.061  53.458  1.00  0.00     0.001 A 
HETATM   19  C17 UNL     1      27.250   1.959  53.097  1.00  0.00     0.015 A 
ENDBRANCH   7   8
BRANCH   5  20
HETATM   20  C5  UNL     1      23.914   4.763  50.012  1.00  0.00     0.138 C 
BRANCH  20  21
HETATM   21  C6  UNL     1      24.873   5.240  48.995  1.00  0.00     0.130 C 
BRANCH  21  22
HETATM   22  C7  UNL     1      26.287   4.858  49.179  1.00  0.00     0.141 C 
HETATM   23  O1  UNL     1      27.407   4.834  48.582  1.00  0.00    -0.650 OA
BRANCH  22  24
HETATM   24  O2  UNL     1      26.417   4.351  50.465  1.00  0.00    -0.776 OA
HETATM   25  H11 UNL     1      27.062   3.610  50.669  1.00  0.00     0.167 HD
ENDBRANCH  22  24
ENDBRANCH  21  22
ENDBRANCH  20  21
ENDBRANCH   5  20
TORSDOF 5
ENDMDL
MODEL 5
REMARK VINA RESULT:      -8.1      2.447      4.678
REMARK  5 active torsions:
REMARK  status: ('A' for Active; 'I' for Inactive)
REMARK    1  A    between atoms: N1_5  and  C5_6 
REMARK    2  A    between atoms: C5_6  and  C6_7 
REMARK    3  A    between atoms: C6_7  and  C7_8 
REMARK    4  A    between atoms: C7_8  and  O2_10 
REMARK    5  A    between atoms: C9_12  and  C10_13 
ROOT
HETATM    1  C1  UNL     1      21.525   1.399  49.362  1.00  0.00     0.020 C 
HETATM    2  C2  UNL     1      22.675   2.371  49.570  1.00  0.00     0.055 A 
HETATM    3  C3  UNL     1      22.790   3.210  48.326  1.00  0.00     0.001 A 
HETATM    4  C4  UNL     1      22.536   4.449  48.663  1.00  0.00     0.087 A 
HETATM    5  N1  UNL     1      22.237   4.696  50.018  1.00  0.00    -0.359 N 
HETATM    6  C8  UNL     1      22.327   3.402  50.594  1.00  0.00     0.018 A 
HETATM    7  C9  UNL     1      22.153   3.117  51.864  1.00  0.00     0.027 C 
ENDROOT
BRANCH   7   8
HETATM    8  C10 UNL     1      22.207   1.952  52.672  1.00  0.00     0.020 C 
HETATM    9  C11 UNL     1      22.958   0.986  53.068  1.00  0.00     0.044 A 
HETATM   10  C12 UNL     1      22.537  -0.089  53.996  1.00  0.00     0.257 A 
HETATM   11  C18 UNL     1      24.346   0.686  52.750  1.00  0.00     0.006 A 
HETATM   12  O3  UNL     1      21.399  -0.234  54.534  1.00  0.00    -0.267 OA
HETATM   13  N2  UNL     1      23.679  -0.903  54.138  1.00  0.00    -0.322 N 
HETATM   14  C13 UNL     1      24.793  -0.447  53.387  1.00  0.00     0.046 A 
HETATM   15  H14 UNL     1      23.645  -1.750  54.753  1.00  0.00     0.169 HD
HETATM   16  C14 UNL     1      26.051  -1.000  53.301  1.00  0.00     0.030 A 
HETATM   17  C15 UNL     1      26.971  -0.359  52.492  1.00  0.00     0.002 A 
HETATM   18  C16 UNL     1      26.592   0.783  51.823  1.00  0.00     0.001 A 
HETATM   19  C17 UNL     1      25.316   1.267  51.967  1.00  0.00     0.015 A 
ENDBRANCH   7   8
BRANCH   5  20
HETATM   20  C5  UNL     1      21.931   5.871  50.752  1.00  0.00     0.138 C 
BRANCH  20  21
HETATM   21  C6  UNL     1      22.842   7.029  50.654  1.00  0.00     0.130 C 
BRANCH  21  22
HETATM   22  C7  UNL     1      24.262   6.792  50.976  1.00  0.00     0.141 C 
HETATM   23  O1  UNL     1      25.401   6.630  50.438  1.00  0.00    -0.650 OA
BRANCH  22  24
HETATM   24  O2  UNL     1      24.370   6.727  52.358  1.00  0.00    -0.776 OA
HETATM   25  H11 UNL     1      24.364   7.558  52.920  1.00  0.00     0.167 HD
ENDBRANCH  22  24
ENDBRANCH  21  22
ENDBRANCH  20  21
ENDBRANCH   5  20
TORSDOF 5
ENDMDL
MODEL 6
REMARK VINA RESULT:      -8.0      2.677      7.258
REMARK  5 active torsions:
REMARK  status: ('A' for Active; 'I' for Inactive)
REMARK    1  A    between atoms: N1_5  and  C5_6 
REMARK    2  A    between atoms: C5_6  and  C6_7 
REMARK    3  A    between atoms: C6_7  and  C7_8 
REMARK    4  A    between atoms: C7_8  and  O2_10 
REMARK    5  A    between atoms: C9_12  and  C10_13 
ROOT
HETATM    1  C1  UNL     1      21.616   0.737  51.368  1.00  0.00     0.020 C 
HETATM    2  C2  UNL     1      22.072   0.767  52.818  1.00  0.00     0.055 A 
HETATM    3  C3  UNL     1      21.972  -0.635  53.354  1.00  0.00     0.001 A 
HETATM    4  C4  UNL     1      23.184  -1.025  53.660  1.00  0.00     0.087 A 
HETATM    5  N1  UNL     1      24.229  -0.107  53.434  1.00  0.00    -0.359 N 
HETATM    6  C8  UNL     1      23.542   1.020  52.913  1.00  0.00     0.018 A 
HETATM    7  C9  UNL     1      24.093   2.160  52.568  1.00  0.00     0.027 C 
ENDROOT
BRANCH   7   8
HETATM    8  C10 UNL     1      23.644   3.407  52.060  1.00  0.00     0.020 C 
HETATM    9  C11 UNL     1      23.923   4.373  51.258  1.00  0.00     0.044 A 
HETATM   10  C12 UNL     1      23.075   5.567  51.044  1.00  0.00     0.257 A 
HETATM   11  C18 UNL     1      25.070   4.564  50.383  1.00  0.00     0.006 A 
HETATM   12  O3  UNL     1      21.968   5.831  51.601  1.00  0.00    -0.267 OA
HETATM   13  N2  UNL     1      23.775   6.334  50.090  1.00  0.00    -0.322 N 
HETATM   14  C13 UNL     1      24.994   5.739  49.674  1.00  0.00     0.046 A 
HETATM   15  H14 UNL     1      23.381   7.247  49.761  1.00  0.00     0.169 HD
HETATM   16  C14 UNL     1      25.911   6.214  48.764  1.00  0.00     0.030 A 
HETATM   17  C15 UNL     1      27.031   5.438  48.529  1.00  0.00     0.002 A 
HETATM   18  C16 UNL     1      27.173   4.247  49.205  1.00  0.00     0.001 A 
HETATM   19  C17 UNL     1      26.209   3.848  50.095  1.00  0.00     0.015 A 
ENDBRANCH   7   8
BRANCH   5  20
HETATM   20  C5  UNL     1      25.631  -0.151  53.645  1.00  0.00     0.138 C 
BRANCH  20  21
HETATM   21  C6  UNL     1      26.483  -0.806  52.632  1.00  0.00     0.130 C 
BRANCH  21  22
HETATM   22  C7  UNL     1      27.685  -1.509  53.121  1.00  0.00     0.141 C 
HETATM   23  O1  UNL     1      28.791  -1.314  53.713  1.00  0.00    -0.650 OA
BRANCH  22  24
HETATM   24  O2  UNL     1      27.530  -2.855  52.820  1.00  0.00    -0.776 OA
HETATM   25  H11 UNL     1      28.325  -3.446  52.657  1.00  0.00     0.167 HD
ENDBRANCH  22  24
ENDBRANCH  21  22
ENDBRANCH  20  21
ENDBRANCH   5  20
TORSDOF 5
ENDMDL
MODEL 7
REMARK VINA RESULT:      -7.8      2.580      3.997
REMARK  5 active torsions:
REMARK  status: ('A' for Active; 'I' for Inactive)
REMARK    1  A    between atoms: N1_5  and  C5_6 
REMARK    2  A    between atoms: C5_6  and  C6_7 
REMARK    3  A    between atoms: C6_7  and  C7_8 
REMARK    4  A    between atoms: C7_8  and  O2_10 
REMARK    5  A    between atoms: C9_12  and  C10_13 
ROOT
HETATM    1  C1  UNL     1      24.003   4.047  53.457  1.00  0.00     0.020 C 
HETATM    2  C2  UNL     1      23.622   3.357  52.158  1.00  0.00     0.055 A 
HETATM    3  C3  UNL     1      22.894   4.363  51.307  1.00  0.00     0.001 A 
HETATM    4  C4  UNL     1      23.615   4.564  50.233  1.00  0.00     0.087 A 
HETATM    5  N1  UNL     1      24.820   3.841  50.126  1.00  0.00    -0.359 N 
HETATM    6  C8  UNL     1      24.830   3.079  51.323  1.00  0.00     0.018 A 
HETATM    7  C9  UNL     1      25.756   2.217  51.674  1.00  0.00     0.027 C 
ENDROOT
BRANCH   7   8
HETATM    8  C10 UNL     1      25.983   1.341  52.766  1.00  0.00     0.020 C 
HETATM    9  C11 UNL     1      25.432   0.494  53.562  1.00  0.00     0.044 A 
HETATM   10  C12 UNL     1      26.135  -0.233  54.643  1.00  0.00     0.257 A 
HETATM   11  C18 UNL     1      24.055   0.030  53.630  1.00  0.00     0.006 A 
HETATM   12  O3  UNL     1      27.359  -0.143  54.957  1.00  0.00    -0.267 OA
HETATM   13  N2  UNL     1      25.140  -1.039  55.235  1.00  0.00    -0.322 N 
HETATM   14  C13 UNL     1      23.865  -0.893  54.632  1.00  0.00     0.046 A 
HETATM   15  H14 UNL     1      25.383  -1.662  56.041  1.00  0.00     0.169 HD
HETATM   16  C14 UNL     1      22.687  -1.525  54.958  1.00  0.00     0.030 A 
HETATM   17  C15 UNL     1      21.569  -1.208  54.209  1.00  0.00     0.002 A 
HETATM   18  C16 UNL     1      21.685  -0.290  53.189  1.00  0.00     0.001 A 
HETATM   19  C17 UNL     1      22.900   0.292  52.930  1.00  0.00     0.015 A 
ENDBRANCH   7   8
BRANCH   5  20
HETATM   20  C5  UNL     1      25.835   3.776  49.137  1.00  0.00     0.138 C 
BRANCH  20  21
HETATM   21  C6  UNL     1      26.886   4.813  49.126  1.00  0.00     0.130 C 
BRANCH  21  22
HETATM   22  C7  UNL     1      26.454   6.200  48.864  1.00  0.00     0.141 C 
HETATM   23  O1  UNL     1      26.109   6.984  47.927  1.00  0.00    -0.650 OA
BRANCH  22  24
HETATM   24  O2  UNL     1      26.418   6.861  50.083  1.00  0.00    -0.776 OA
HETATM   25  H11 UNL     1      26.096   6.401  50.915  1.00  0.00     0.167 HD
ENDBRANCH  22  24
ENDBRANCH  21  22
ENDBRANCH  20  21
ENDBRANCH   5  20
TORSDOF 5
ENDMDL
MODEL 8
REMARK VINA RESULT:      -7.7      2.764      4.425
REMARK  5 active torsions:
REMARK  status: ('A' for Active; 'I' for Inactive)
REMARK    1  A    between atoms: N1_5  and  C5_6 
REMARK    2  A    between atoms: C5_6  and  C6_7 
REMARK    3  A    between atoms: C6_7  and  C7_8 
REMARK    4  A    between atoms: C7_8  and  O2_10 
REMARK    5  A    between atoms: C9_12  and  C10_13 
ROOT
HETATM    1  C1  UNL     1      23.543   2.933  48.914  1.00  0.00     0.020 C 
HETATM    2  C2  UNL     1      24.484   3.368  50.025  1.00  0.00     0.055 A 
HETATM    3  C3  UNL     1      25.801   3.726  49.391  1.00  0.00     0.001 A 
HETATM    4  C4  UNL     1      26.005   5.001  49.602  1.00  0.00     0.087 A 
HETATM    5  N1  UNL     1      25.016   5.697  50.327  1.00  0.00    -0.359 N 
HETATM    6  C8  UNL     1      24.063   4.682  50.600  1.00  0.00     0.018 A 
HETATM    7  C9  UNL     1      22.954   4.839  51.286  1.00  0.00     0.027 C 
ENDROOT
BRANCH   7   8
HETATM    8  C10 UNL     1      21.881   4.012  51.706  1.00  0.00     0.020 C 
HETATM    9  C11 UNL     1      21.576   2.882  52.239  1.00  0.00     0.044 A 
HETATM   10  C12 UNL     1      20.195   2.416  52.504  1.00  0.00     0.257 A 
HETATM   11  C18 UNL     1      22.433   1.804  52.709  1.00  0.00     0.006 A 
HETATM   12  O3  UNL     1      19.117   3.032  52.254  1.00  0.00    -0.267 OA
HETATM   13  N2  UNL     1      20.357   1.143  53.090  1.00  0.00    -0.322 N 
HETATM   14  C13 UNL     1      21.714   0.753  53.224  1.00  0.00     0.046 A 
HETATM   15  H14 UNL     1      19.516   0.588  53.376  1.00  0.00     0.169 HD
HETATM   16  C14 UNL     1      22.220  -0.414  53.750  1.00  0.00     0.030 A 
HETATM   17  C15 UNL     1      23.595  -0.556  53.769  1.00  0.00     0.002 A 
HETATM   18  C16 UNL     1      24.380   0.459  53.269  1.00  0.00     0.001 A 
HETATM   19  C17 UNL     1      23.791   1.590  52.764  1.00  0.00     0.015 A 
ENDBRANCH   7   8
BRANCH   5  20
HETATM   20  C5  UNL     1      24.887   7.042  50.758  1.00  0.00     0.138 C 
BRANCH  20  21
HETATM   21  C6  UNL     1      24.993   8.124  49.758  1.00  0.00     0.130 C 
BRANCH  21  22
HETATM   22  C7  UNL     1      26.081   9.104  49.945  1.00  0.00     0.141 C 
HETATM   23  O1  UNL     1      26.438  10.281  49.631  1.00  0.00    -0.650 OA
BRANCH  22  24
HETATM   24  O2  UNL     1      27.041   8.509  50.752  1.00  0.00    -0.776 OA
HETATM   25  H11 UNL     1      27.819   8.014  50.356  1.00  0.00     0.167 HD
ENDBRANCH  22  24
ENDBRANCH  21  22
ENDBRANCH  20  21
ENDBRANCH   5  20
TORSDOF 5
ENDMDL
MODEL 9
REMARK VINA RESULT:      -7.7      3.046      4.425
REMARK  5 active torsions:
REMARK  status: ('A' for Active; 'I' for Inactive)
REMARK    1  A    between atoms: N1_5  and  C5_6 
REMARK    2  A    between atoms: C5_6  and  C6_7 
REMARK    3  A    between atoms: C6_7  and  C7_8 
REMARK    4  A    between atoms: C7_8  and  O2_10 
REMARK    5  A    between atoms: C9_12  and  C10_13 
ROOT
HETATM    1  C1  UNL     1      26.743   3.461  49.397  1.00  0.00     0.020 C 
HETATM    2  C2  UNL     1      25.722   4.352  50.087  1.00  0.00     0.055 A 
HETATM    3  C3  UNL     1      25.529   5.571  49.227  1.00  0.00     0.001 A 
HETATM    4  C4  UNL     1      24.286   5.569  48.815  1.00  0.00     0.087 A 
HETATM    5  N1  UNL     1      23.471   4.502  49.245  1.00  0.00    -0.359 N 
HETATM    6  C8  UNL     1      24.360   3.738  50.045  1.00  0.00     0.018 A 
HETATM    7  C9  UNL     1      24.052   2.641  50.696  1.00  0.00     0.027 C 
ENDROOT
BRANCH   7   8
HETATM    8  C10 UNL     1      24.723   1.732  51.554  1.00  0.00     0.020 C 
HETATM    9  C11 UNL     1      24.566   0.862  52.488  1.00  0.00     0.044 A 
HETATM   10  C12 UNL     1      25.662   0.102  53.131  1.00  0.00     0.257 A 
HETATM   11  C18 UNL     1      23.352   0.397  53.142  1.00  0.00     0.006 A 
HETATM   12  O3  UNL     1      26.901   0.182  52.878  1.00  0.00    -0.267 OA
HETATM   13  N2  UNL     1      25.016  -0.720  54.078  1.00  0.00    -0.322 N 
HETATM   14  C13 UNL     1      23.608  -0.555  54.099  1.00  0.00     0.046 A 
HETATM   15  H14 UNL     1      25.579  -1.368  54.679  1.00  0.00     0.169 HD
HETATM   16  C14 UNL     1      22.683  -1.196  54.894  1.00  0.00     0.030 A 
HETATM   17  C15 UNL     1      21.355  -0.856  54.719  1.00  0.00     0.002 A 
HETATM   18  C16 UNL     1      21.025   0.092  53.777  1.00  0.00     0.001 A 
HETATM   19  C17 UNL     1      22.011   0.681  53.026  1.00  0.00     0.015 A 
ENDBRANCH   7   8
BRANCH   5  20
HETATM   20  C5  UNL     1      22.110   4.166  49.031  1.00  0.00     0.138 C 
BRANCH  20  21
HETATM   21  C6  UNL     1      21.770   3.231  47.940  1.00  0.00     0.130 C 
BRANCH  21  22
HETATM   22  C7  UNL     1      21.177   1.937  48.328  1.00  0.00     0.141 C 
HETATM   23  O1  UNL     1      21.479   0.785  48.768  1.00  0.00    -0.650 OA
BRANCH  22  24
HETATM   24  O2  UNL     1      19.805   2.035  48.140  1.00  0.00    -0.776 OA
HETATM   25  H11 UNL     1      19.418   2.644  47.442  1.00  0.00     0.167 HD
ENDBRANCH  22  24
ENDBRANCH  21  22
ENDBRANCH  20  21
ENDBRANCH   5  20
TORSDOF 5
ENDMDL
