MODEL 1
REMARK VINA RESULT:      -6.7      0.000      0.000
REMARK  7 active torsions:
REMARK  status: ('A' for Active; 'I' for Inactive)
REMARK    1  A    between atoms: O1_1  and  C1_2 
REMARK    2  A    between atoms: C1_2  and  C2_3 
REMARK    3  A    between atoms: C3_4  and  P1_5 
REMARK    4  A    between atoms: P1_5  and  N1_6 
REMARK    5  A    between atoms: C11_17  and  N5_18 
REMARK    6  A    between atoms: N5_18  and  C12_19 
REMARK    7  A    between atoms: C12_19  and  C13_20 
ROOT
HETATM    1  N1  UNL     1      22.248   1.821  51.026  1.00  0.00    -0.242 N 
HETATM    2  N2  UNL     1      21.738   0.584  51.199  1.00  0.00    -0.148 NA
HETATM    3  C4  UNL     1      22.058   0.203  52.467  1.00  0.00     0.172 A 
HETATM    4  C5  UNL     1      22.757   1.240  53.047  1.00  0.00     0.085 A 
HETATM    5  C6  UNL     1      22.888   2.278  52.112  1.00  0.00     0.061 A 
HETATM    6  C7  UNL     1      23.730   3.253  52.843  1.00  0.00     0.038 C 
HETATM    7  C8  UNL     1      24.819   2.491  53.136  1.00  0.00    -0.028 A 
HETATM    8  C9  UNL     1      25.184   1.125  52.871  1.00  0.00     0.140 A 
HETATM    9  N3  UNL     1      24.580   0.012  53.509  1.00  0.00    -0.374 N 
HETATM   10  C10 UNL     1      23.452  -0.783  54.038  1.00  0.00     0.205 C 
HETATM   11  N4  UNL     1      22.157  -0.752  53.581  1.00  0.00    -0.223 NA
HETATM   12  C11 UNL     1      26.148   1.986  53.637  1.00  0.00     0.135 A 
HETATM   13  H10 UNL     1      25.455  -0.563  53.706  1.00  0.00     0.161 HD
ENDROOT
BRANCH   1  14
HETATM   14  P1  UNL     1      22.380   3.148  49.807  1.00  0.00     0.024 P 
HETATM   15  H6  UNL     1      22.002   4.435  50.369  1.00  0.00     0.086 HD
BRANCH  14  16
HETATM   16  C3  UNL     1      24.087   3.242  49.152  1.00  0.00     0.025 C 
HETATM   17  C2  UNL     1      25.113   3.993  49.595  1.00  0.00     0.001 C 
BRANCH  17  18
HETATM   18  C1  UNL     1      26.549   4.338  49.365  1.00  0.00     0.191 C 
BRANCH  18  19
HETATM   19  O1  UNL     1      27.331   3.878  50.423  1.00  0.00    -0.397 OA
HETATM   20  H1  UNL     1      27.566   4.653  50.994  1.00  0.00     0.209 HD
ENDBRANCH  18  19
ENDBRANCH  17  18
ENDBRANCH  14  16
ENDBRANCH   1  14
BRANCH  12  21
HETATM   21  N5  UNL     1      27.321   2.449  53.001  1.00  0.00    -0.410 N 
HETATM   22  H13 UNL     1      27.309   2.416  51.975  1.00  0.00     0.154 HD
BRANCH  21  23
HETATM   23  C12 UNL     1      28.590   2.301  53.569  1.00  0.00     0.129 C 
BRANCH  23  24
HETATM   24  C13 UNL     1      28.841   1.034  54.334  1.00  0.00     0.134 C 
HETATM   25 CL1  UNL     1      29.940  -0.029  53.496  1.00  0.00    -0.129 Cl
ENDBRANCH  23  24
ENDBRANCH  21  23
ENDBRANCH  12  21
TORSDOF 7
ENDMDL
MODEL 2
REMARK VINA RESULT:      -6.4      2.857      4.567
REMARK  7 active torsions:
REMARK  status: ('A' for Active; 'I' for Inactive)
REMARK    1  A    between atoms: O1_1  and  C1_2 
REMARK    2  A    between atoms: C1_2  and  C2_3 
REMARK    3  A    between atoms: C3_4  and  P1_5 
REMARK    4  A    between atoms: P1_5  and  N1_6 
REMARK    5  A    between atoms: C11_17  and  N5_18 
REMARK    6  A    between atoms: N5_18  and  C12_19 
REMARK    7  A    between atoms: C12_19  and  C13_20 
ROOT
HETATM    1  N1  UNL     1      20.907   1.953  52.682  1.00  0.00    -0.242 N 
HETATM    2  N2  UNL     1      20.493   3.237  52.680  1.00  0.00    -0.148 NA
HETATM    3  C4  UNL     1      21.480   3.965  52.087  1.00  0.00     0.172 A 
HETATM    4  C5  UNL     1      22.481   3.088  51.727  1.00  0.00     0.085 A 
HETATM    5  C6  UNL     1      22.115   1.793  52.121  1.00  0.00     0.061 A 
HETATM    6  C7  UNL     1      23.315   1.004  51.758  1.00  0.00     0.038 C 
HETATM    7  C8  UNL     1      24.279   1.657  52.462  1.00  0.00    -0.028 A 
HETATM    8  C9  UNL     1      24.277   2.793  53.345  1.00  0.00     0.140 A 
HETATM    9  N3  UNL     1      24.084   4.127  52.908  1.00  0.00    -0.374 N 
HETATM   10  C10 UNL     1      23.441   5.204  52.126  1.00  0.00     0.205 C 
HETATM   11  N4  UNL     1      22.145   5.209  51.672  1.00  0.00    -0.223 NA
HETATM   12  C11 UNL     1      25.585   2.104  53.069  1.00  0.00     0.135 A 
HETATM   13  H10 UNL     1      24.840   4.604  53.488  1.00  0.00     0.161 HD
ENDROOT
BRANCH   1  14
HETATM   14  P1  UNL     1      20.395   0.293  53.182  1.00  0.00     0.024 P 
HETATM   15  H6  UNL     1      20.595  -0.676  52.116  1.00  0.00     0.086 HD
BRANCH  14  16
HETATM   16  C3  UNL     1      21.320  -0.234  54.672  1.00  0.00     0.025 C 
HETATM   17  C2  UNL     1      22.483  -0.908  54.740  1.00  0.00     0.001 C 
BRANCH  17  18
HETATM   18  C1  UNL     1      23.493  -1.489  55.677  1.00  0.00     0.191 C 
BRANCH  18  19
HETATM   19  O1  UNL     1      24.782  -1.162  55.258  1.00  0.00    -0.397 OA
HETATM   20  H1  UNL     1      24.792  -0.204  55.007  1.00  0.00     0.209 HD
ENDBRANCH  18  19
ENDBRANCH  17  18
ENDBRANCH  14  16
ENDBRANCH   1  14
BRANCH  12  21
HETATM   21  N5  UNL     1      26.167   1.295  54.070  1.00  0.00    -0.410 N 
HETATM   22  H13 UNL     1      25.798   1.432  55.018  1.00  0.00     0.154 HD
BRANCH  21  23
HETATM   23  C12 UNL     1      27.506   0.892  54.022  1.00  0.00     0.129 C 
BRANCH  23  24
HETATM   24  C13 UNL     1      27.902   0.012  52.874  1.00  0.00     0.134 C 
HETATM   25 CL1  UNL     1      26.721  -1.234  52.567  1.00  0.00    -0.129 Cl
ENDBRANCH  23  24
ENDBRANCH  21  23
ENDBRANCH  12  21
TORSDOF 7
ENDMDL
MODEL 3
REMARK VINA RESULT:      -6.4      1.954      2.153
REMARK  7 active torsions:
REMARK  status: ('A' for Active; 'I' for Inactive)
REMARK    1  A    between atoms: O1_1  and  C1_2 
REMARK    2  A    between atoms: C1_2  and  C2_3 
REMARK    3  A    between atoms: C3_4  and  P1_5 
REMARK    4  A    between atoms: P1_5  and  N1_6 
REMARK    5  A    between atoms: C11_17  and  N5_18 
REMARK    6  A    between atoms: N5_18  and  C12_19 
REMARK    7  A    between atoms: C12_19  and  C13_20 
ROOT
HETATM    1  N1  UNL     1      23.799   2.247  50.910  1.00  0.00    -0.242 N 
HETATM    2  N2  UNL     1      22.659   1.567  50.673  1.00  0.00    -0.148 NA
HETATM    3  C4  UNL     1      22.290   0.998  51.855  1.00  0.00     0.172 A 
HETATM    4  C5  UNL     1      23.226   1.363  52.799  1.00  0.00     0.085 A 
HETATM    5  C6  UNL     1      24.204   2.159  52.186  1.00  0.00     0.061 A 
HETATM    6  C7  UNL     1      25.166   2.379  53.291  1.00  0.00     0.038 C 
HETATM    7  C8  UNL     1      25.477   1.097  53.626  1.00  0.00    -0.028 A 
HETATM    8  C9  UNL     1      25.070  -0.192  53.133  1.00  0.00     0.140 A 
HETATM    9  N3  UNL     1      23.781  -0.744  53.345  1.00  0.00    -0.374 N 
HETATM   10  C10 UNL     1      22.306  -0.719  53.414  1.00  0.00     0.205 C 
HETATM   11  N4  UNL     1      21.478   0.117  52.707  1.00  0.00    -0.223 NA
HETATM   12  C11 UNL     1      26.051  -0.139  54.271  1.00  0.00     0.135 A 
HETATM   13  H10 UNL     1      24.065  -1.742  53.587  1.00  0.00     0.161 HD
ENDROOT
BRANCH   1  14
HETATM   14  P1  UNL     1      25.031   3.289  50.096  1.00  0.00     0.024 P 
HETATM   15  H6  UNL     1      25.049   3.078  48.657  1.00  0.00     0.086 HD
BRANCH  14  16
HETATM   16  C3  UNL     1      24.706   5.055  50.454  1.00  0.00     0.025 C 
HETATM   17  C2  UNL     1      25.390   6.134  50.029  1.00  0.00     0.001 C 
BRANCH  17  18
HETATM   18  C1  UNL     1      25.453   7.627  50.086  1.00  0.00     0.191 C 
BRANCH  18  19
HETATM   19  O1  UNL     1      26.603   8.035  50.760  1.00  0.00    -0.397 OA
HETATM   20  H1  UNL     1      26.327   8.563  51.551  1.00  0.00     0.209 HD
ENDBRANCH  18  19
ENDBRANCH  17  18
ENDBRANCH  14  16
ENDBRANCH   1  14
BRANCH  12  21
HETATM   21  N5  UNL     1      27.408  -0.448  54.032  1.00  0.00    -0.410 N 
HETATM   22  H13 UNL     1      27.586  -1.383  53.648  1.00  0.00     0.154 HD
BRANCH  21  23
HETATM   23  C12 UNL     1      28.443   0.060  54.824  1.00  0.00     0.129 C 
BRANCH  23  24
HETATM   24  C13 UNL     1      29.440   0.948  54.139  1.00  0.00     0.134 C 
HETATM   25 CL1  UNL     1      28.774   2.517  53.770  1.00  0.00    -0.129 Cl
ENDBRANCH  23  24
ENDBRANCH  21  23
ENDBRANCH  12  21
TORSDOF 7
ENDMDL
MODEL 4
REMARK VINA RESULT:      -6.4      3.632      5.409
REMARK  7 active torsions:
REMARK  status: ('A' for Active; 'I' for Inactive)
REMARK    1  A    between atoms: O1_1  and  C1_2 
REMARK    2  A    between atoms: C1_2  and  C2_3 
REMARK    3  A    between atoms: C3_4  and  P1_5 
REMARK    4  A    between atoms: P1_5  and  N1_6 
REMARK    5  A    between atoms: C11_17  and  N5_18 
REMARK    6  A    between atoms: N5_18  and  C12_19 
REMARK    7  A    between atoms: C12_19  and  C13_20 
ROOT
HETATM    1  N1  UNL     1      26.024   1.041  53.332  1.00  0.00    -0.242 N 
HETATM    2  N2  UNL     1      25.090   0.192  53.808  1.00  0.00    -0.148 NA
HETATM    3  C4  UNL     1      24.001   0.316  52.999  1.00  0.00     0.172 A 
HETATM    4  C5  UNL     1      24.310   1.245  52.029  1.00  0.00     0.085 A 
HETATM    5  C6  UNL     1      25.611   1.720  52.252  1.00  0.00     0.061 A 
HETATM    6  C7  UNL     1      25.749   2.760  51.205  1.00  0.00     0.038 C 
HETATM    7  C8  UNL     1      24.694   3.568  51.500  1.00  0.00    -0.028 A 
HETATM    8  C9  UNL     1      23.667   3.545  52.507  1.00  0.00     0.140 A 
HETATM    9  N3  UNL     1      22.598   2.614  52.519  1.00  0.00    -0.374 N 
HETATM   10  C10 UNL     1      21.980   1.278  52.388  1.00  0.00     0.205 C 
HETATM   11  N4  UNL     1      22.605   0.074  52.607  1.00  0.00    -0.223 NA
HETATM   12  C11 UNL     1      23.663   4.668  51.508  1.00  0.00     0.135 A 
HETATM   13  H10 UNL     1      21.802   3.277  52.766  1.00  0.00     0.161 HD
ENDROOT
BRANCH   1  14
HETATM   14  P1  UNL     1      27.712   1.616  53.633  1.00  0.00     0.024 P 
HETATM   15  H6  UNL     1      27.782   2.495  54.789  1.00  0.00     0.086 HD
BRANCH  14  16
HETATM   16  C3  UNL     1      28.834   0.190  53.876  1.00  0.00     0.025 C 
HETATM   17  C2  UNL     1      28.755  -1.039  53.334  1.00  0.00     0.001 C 
BRANCH  17  18
HETATM   18  C1  UNL     1      29.410  -2.382  53.275  1.00  0.00     0.191 C 
BRANCH  18  19
HETATM   19  O1  UNL     1      28.452  -3.390  53.374  1.00  0.00    -0.397 OA
HETATM   20  H1  UNL     1      27.611  -3.058  52.969  1.00  0.00     0.209 HD
ENDBRANCH  18  19
ENDBRANCH  17  18
ENDBRANCH  14  16
ENDBRANCH   1  14
BRANCH  12  21
HETATM   21  N5  UNL     1      24.066   5.959  51.913  1.00  0.00    -0.410 N 
HETATM   22  H13 UNL     1      23.745   6.250  52.844  1.00  0.00     0.154 HD
BRANCH  21  23
HETATM   23  C12 UNL     1      24.240   7.009  51.006  1.00  0.00     0.129 C 
BRANCH  23  24
HETATM   24  C13 UNL     1      25.527   7.026  50.236  1.00  0.00     0.134 C 
HETATM   25 CL1  UNL     1      25.392   6.182  48.716  1.00  0.00    -0.129 Cl
ENDBRANCH  23  24
ENDBRANCH  21  23
ENDBRANCH  12  21
TORSDOF 7
ENDMDL
MODEL 5
REMARK VINA RESULT:      -6.2      3.769      5.979
REMARK  7 active torsions:
REMARK  status: ('A' for Active; 'I' for Inactive)
REMARK    1  A    between atoms: O1_1  and  C1_2 
REMARK    2  A    between atoms: C1_2  and  C2_3 
REMARK    3  A    between atoms: C3_4  and  P1_5 
REMARK    4  A    between atoms: P1_5  and  N1_6 
REMARK    5  A    between atoms: C11_17  and  N5_18 
REMARK    6  A    between atoms: N5_18  and  C12_19 
REMARK    7  A    between atoms: C12_19  and  C13_20 
ROOT
HETATM    1  N1  UNL     1      26.851   2.439  51.838  1.00  0.00    -0.242 N 
HETATM    2  N2  UNL     1      26.829   2.739  50.523  1.00  0.00    -0.148 NA
HETATM    3  C4  UNL     1      25.568   3.174  50.242  1.00  0.00     0.172 A 
HETATM    4  C5  UNL     1      24.847   3.137  51.417  1.00  0.00     0.085 A 
HETATM    5  C6  UNL     1      25.673   2.652  52.442  1.00  0.00     0.061 A 
HETATM    6  C7  UNL     1      24.738   2.581  53.590  1.00  0.00     0.038 C 
HETATM    7  C8  UNL     1      23.768   1.769  53.087  1.00  0.00    -0.028 A 
HETATM    8  C9  UNL     1      23.578   1.099  51.828  1.00  0.00     0.140 A 
HETATM    9  N3  UNL     1      23.253   1.769  50.622  1.00  0.00    -0.374 N 
HETATM   10  C10 UNL     1      23.361   2.841  49.611  1.00  0.00     0.205 C 
HETATM   11  N4  UNL     1      24.478   3.597  49.352  1.00  0.00    -0.223 NA
HETATM   12  C11 UNL     1      22.529   0.933  52.892  1.00  0.00     0.135 A 
HETATM   13  H10 UNL     1      22.509   1.100  50.255  1.00  0.00     0.161 HD
ENDROOT
BRANCH   1  14
HETATM   14  P1  UNL     1      27.947   1.832  53.141  1.00  0.00     0.024 P 
HETATM   15  H6  UNL     1      27.820   2.617  54.359  1.00  0.00     0.086 HD
BRANCH  14  16
HETATM   16  C3  UNL     1      27.589   0.074  53.504  1.00  0.00     0.025 C 
HETATM   17  C2  UNL     1      27.360  -0.929  52.636  1.00  0.00     0.001 C 
BRANCH  17  18
HETATM   18  C1  UNL     1      27.053  -2.388  52.525  1.00  0.00     0.191 C 
BRANCH  18  19
HETATM   19  O1  UNL     1      28.186  -3.143  52.823  1.00  0.00    -0.397 OA
HETATM   20  H1  UNL     1      28.074  -4.042  52.423  1.00  0.00     0.209 HD
ENDBRANCH  18  19
ENDBRANCH  17  18
ENDBRANCH  14  16
ENDBRANCH   1  14
BRANCH  12  21
HETATM   21  N5  UNL     1      22.434  -0.292  53.587  1.00  0.00    -0.410 N 
HETATM   22  H13 UNL     1      23.250  -0.909  53.507  1.00  0.00     0.154 HD
BRANCH  21  23
HETATM   23  C12 UNL     1      21.218  -0.959  53.765  1.00  0.00     0.129 C 
BRANCH  23  24
HETATM   24  C13 UNL     1      19.970  -0.151  53.561  1.00  0.00     0.134 C 
HETATM   25 CL1  UNL     1      18.583  -1.158  53.243  1.00  0.00    -0.129 Cl
ENDBRANCH  23  24
ENDBRANCH  21  23
ENDBRANCH  12  21
TORSDOF 7
ENDMDL
MODEL 6
REMARK VINA RESULT:      -6.2      3.786      5.485
REMARK  7 active torsions:
REMARK  status: ('A' for Active; 'I' for Inactive)
REMARK    1  A    between atoms: O1_1  and  C1_2 
REMARK    2  A    between atoms: C1_2  and  C2_3 
REMARK    3  A    between atoms: C3_4  and  P1_5 
REMARK    4  A    between atoms: P1_5  and  N1_6 
REMARK    5  A    between atoms: C11_17  and  N5_18 
REMARK    6  A    between atoms: N5_18  and  C12_19 
REMARK    7  A    between atoms: C12_19  and  C13_20 
ROOT
HETATM    1  N1  UNL     1      23.198   0.284  52.977  1.00  0.00    -0.242 N 
HETATM    2  N2  UNL     1      23.798  -0.778  53.554  1.00  0.00    -0.148 NA
HETATM    3  C4  UNL     1      25.031  -0.359  53.955  1.00  0.00     0.172 A 
HETATM    4  C5  UNL     1      25.146   0.972  53.617  1.00  0.00     0.085 A 
HETATM    5  C6  UNL     1      23.968   1.382  52.976  1.00  0.00     0.061 A 
HETATM    6  C7  UNL     1      24.287   2.778  52.597  1.00  0.00     0.038 C 
HETATM    7  C8  UNL     1      25.411   2.596  51.852  1.00  0.00    -0.028 A 
HETATM    8  C9  UNL     1      26.175   1.442  51.460  1.00  0.00     0.140 A 
HETATM    9  N3  UNL     1      26.981   0.692  52.353  1.00  0.00    -0.374 N 
HETATM   10  C10 UNL     1      27.298   0.007  53.623  1.00  0.00     0.205 C 
HETATM   11  N4  UNL     1      26.387  -0.549  54.489  1.00  0.00    -0.223 NA
HETATM   12  C11 UNL     1      26.638   2.796  50.999  1.00  0.00     0.135 A 
HETATM   13  H10 UNL     1      27.838   0.558  51.732  1.00  0.00     0.161 HD
ENDROOT
BRANCH   1  14
HETATM   14  P1  UNL     1      21.658   0.787  52.176  1.00  0.00     0.024 P 
HETATM   15  H6  UNL     1      21.691   0.540  50.743  1.00  0.00     0.086 HD
BRANCH  14  16
HETATM   16  C3  UNL     1      20.237  -0.096  52.919  1.00  0.00     0.025 C 
HETATM   17  C2  UNL     1      18.989  -0.230  52.433  1.00  0.00     0.001 C 
BRANCH  17  18
HETATM   18  C1  UNL     1      17.642  -0.821  52.702  1.00  0.00     0.191 C 
BRANCH  18  19
HETATM   19  O1  UNL     1      17.551  -1.229  54.031  1.00  0.00    -0.397 OA
HETATM   20  H1  UNL     1      16.907  -0.636  54.494  1.00  0.00     0.209 HD
ENDBRANCH  18  19
ENDBRANCH  17  18
ENDBRANCH  14  16
ENDBRANCH   1  14
BRANCH  12  21
HETATM   21  N5  UNL     1      26.459   3.167  49.648  1.00  0.00    -0.410 N 
HETATM   22  H13 UNL     1      26.346   2.390  48.988  1.00  0.00     0.154 HD
BRANCH  21  23
HETATM   23  C12 UNL     1      27.051   4.310  49.101  1.00  0.00     0.129 C 
BRANCH  23  24
HETATM   24  C13 UNL     1      26.161   5.503  48.911  1.00  0.00     0.134 C 
HETATM   25 CL1  UNL     1      24.480   5.111  49.157  1.00  0.00    -0.129 Cl
ENDBRANCH  23  24
ENDBRANCH  21  23
ENDBRANCH  12  21
TORSDOF 7
ENDMDL
MODEL 7
REMARK VINA RESULT:      -5.8      3.222      4.506
REMARK  7 active torsions:
REMARK  status: ('A' for Active; 'I' for Inactive)
REMARK    1  A    between atoms: O1_1  and  C1_2 
REMARK    2  A    between atoms: C1_2  and  C2_3 
REMARK    3  A    between atoms: C3_4  and  P1_5 
REMARK    4  A    between atoms: P1_5  and  N1_6 
REMARK    5  A    between atoms: C11_17  and  N5_18 
REMARK    6  A    between atoms: N5_18  and  C12_19 
REMARK    7  A    between atoms: C12_19  and  C13_20 
ROOT
HETATM    1  N1  UNL     1      23.556   0.161  53.309  1.00  0.00    -0.242 N 
HETATM    2  N2  UNL     1      24.223  -0.840  53.919  1.00  0.00    -0.148 NA
HETATM    3  C4  UNL     1      25.444  -0.345  54.262  1.00  0.00     0.172 A 
HETATM    4  C5  UNL     1      25.486   0.972  53.855  1.00  0.00     0.085 A 
HETATM    5  C6  UNL     1      24.272   1.293  53.231  1.00  0.00     0.061 A 
HETATM    6  C7  UNL     1      24.513   2.682  52.774  1.00  0.00     0.038 C 
HETATM    7  C8  UNL     1      25.623   2.515  52.006  1.00  0.00    -0.028 A 
HETATM    8  C9  UNL     1      26.431   1.380  51.648  1.00  0.00     0.140 A 
HETATM    9  N3  UNL     1      27.297   0.715  52.553  1.00  0.00    -0.374 N 
HETATM   10  C10 UNL     1      27.680   0.111  53.845  1.00  0.00     0.205 C 
HETATM   11  N4  UNL     1      26.822  -0.443  54.764  1.00  0.00    -0.223 NA
HETATM   12  C11 UNL     1      26.815   2.729  51.108  1.00  0.00     0.135 A 
HETATM   13  H10 UNL     1      28.141   0.590  51.914  1.00  0.00     0.161 HD
ENDROOT
BRANCH   1  14
HETATM   14  P1  UNL     1      21.972   0.551  52.529  1.00  0.00     0.024 P 
HETATM   15  H6  UNL     1      21.203   1.500  53.318  1.00  0.00     0.086 HD
BRANCH  14  16
HETATM   16  C3  UNL     1      22.240   1.224  50.848  1.00  0.00     0.025 C 
HETATM   17  C2  UNL     1      21.430   1.143  49.776  1.00  0.00     0.001 C 
BRANCH  17  18
HETATM   18  C1  UNL     1      21.284   1.523  48.337  1.00  0.00     0.191 C 
BRANCH  18  19
HETATM   19  O1  UNL     1      20.019   2.062  48.108  1.00  0.00    -0.397 OA
HETATM   20  H1  UNL     1      19.485   1.963  48.937  1.00  0.00     0.209 HD
ENDBRANCH  18  19
ENDBRANCH  17  18
ENDBRANCH  14  16
ENDBRANCH   1  14
BRANCH  12  21
HETATM   21  N5  UNL     1      26.582   3.023  49.747  1.00  0.00    -0.410 N 
HETATM   22  H13 UNL     1      26.806   2.268  49.088  1.00  0.00     0.154 HD
BRANCH  21  23
HETATM   23  C12 UNL     1      26.728   4.311  49.223  1.00  0.00     0.129 C 
BRANCH  23  24
HETATM   24  C13 UNL     1      25.547   5.228  49.353  1.00  0.00     0.134 C 
HETATM   25 CL1  UNL     1      24.037   4.383  49.140  1.00  0.00    -0.129 Cl
ENDBRANCH  23  24
ENDBRANCH  21  23
ENDBRANCH  12  21
TORSDOF 7
ENDMDL
MODEL 8
REMARK VINA RESULT:      -5.6      1.935      2.579
REMARK  7 active torsions:
REMARK  status: ('A' for Active; 'I' for Inactive)
REMARK    1  A    between atoms: O1_1  and  C1_2 
REMARK    2  A    between atoms: C1_2  and  C2_3 
REMARK    3  A    between atoms: C3_4  and  P1_5 
REMARK    4  A    between atoms: P1_5  and  N1_6 
REMARK    5  A    between atoms: C11_17  and  N5_18 
REMARK    6  A    between atoms: N5_18  and  C12_19 
REMARK    7  A    between atoms: C12_19  and  C13_20 
ROOT
HETATM    1  N1  UNL     1      23.056   5.088  50.723  1.00  0.00    -0.242 N 
HETATM    2  N2  UNL     1      22.204   4.459  49.887  1.00  0.00    -0.148 NA
HETATM    3  C4  UNL     1      21.810   3.318  50.518  1.00  0.00     0.172 A 
HETATM    4  C5  UNL     1      22.434   3.287  51.747  1.00  0.00     0.085 A 
HETATM    5  C6  UNL     1      23.246   4.424  51.872  1.00  0.00     0.061 A 
HETATM    6  C7  UNL     1      23.908   4.193  53.178  1.00  0.00     0.038 C 
HETATM    7  C8  UNL     1      24.497   2.986  52.962  1.00  0.00    -0.028 A 
HETATM    8  C9  UNL     1      24.549   2.084  51.842  1.00  0.00     0.140 A 
HETATM    9  N3  UNL     1      23.445   1.312  51.402  1.00  0.00    -0.374 N 
HETATM   10  C10 UNL     1      22.030   1.071  51.052  1.00  0.00     0.205 C 
HETATM   11  N4  UNL     1      21.137   2.013  50.603  1.00  0.00    -0.223 NA
HETATM   12  C11 UNL     1      25.270   1.699  53.104  1.00  0.00     0.135 A 
HETATM   13  H10 UNL     1      23.946   0.387  51.230  1.00  0.00     0.161 HD
ENDROOT
BRANCH   1  14
HETATM   14  P1  UNL     1      24.075   6.575  50.863  1.00  0.00     0.024 P 
HETATM   15  H6  UNL     1      24.433   6.854  52.245  1.00  0.00     0.086 HD
BRANCH  14  16
HETATM   16  C3  UNL     1      25.596   6.399  49.858  1.00  0.00     0.025 C 
HETATM   17  C2  UNL     1      26.216   5.269  49.470  1.00  0.00     0.001 C 
BRANCH  17  18
HETATM   18  C1  UNL     1      27.383   4.728  48.707  1.00  0.00     0.191 C 
BRANCH  18  19
HETATM   19  O1  UNL     1      28.573   5.235  49.226  1.00  0.00    -0.397 OA
HETATM   20  H1  UNL     1      29.327   4.765  48.787  1.00  0.00     0.209 HD
ENDBRANCH  18  19
ENDBRANCH  17  18
ENDBRANCH  14  16
ENDBRANCH   1  14
BRANCH  12  21
HETATM   21  N5  UNL     1      26.679   1.767  53.147  1.00  0.00    -0.410 N 
HETATM   22  H13 UNL     1      27.110   2.413  52.475  1.00  0.00     0.154 HD
BRANCH  21  23
HETATM   23  C12 UNL     1      27.473   0.666  53.483  1.00  0.00     0.129 C 
BRANCH  23  24
HETATM   24  C13 UNL     1      28.907   0.949  53.821  1.00  0.00     0.134 C 
HETATM   25 CL1  UNL     1      29.934  -0.427  53.519  1.00  0.00    -0.129 Cl
ENDBRANCH  23  24
ENDBRANCH  21  23
ENDBRANCH  12  21
TORSDOF 7
ENDMDL
MODEL 9
REMARK VINA RESULT:      -5.5      7.442      9.976
REMARK  7 active torsions:
REMARK  status: ('A' for Active; 'I' for Inactive)
REMARK    1  A    between atoms: O1_1  and  C1_2 
REMARK    2  A    between atoms: C1_2  and  C2_3 
REMARK    3  A    between atoms: C3_4  and  P1_5 
REMARK    4  A    between atoms: P1_5  and  N1_6 
REMARK    5  A    between atoms: C11_17  and  N5_18 
REMARK    6  A    between atoms: N5_18  and  C12_19 
REMARK    7  A    between atoms: C12_19  and  C13_20 
ROOT
HETATM    1  N1  UNL     1      30.050   6.162  47.664  1.00  0.00    -0.242 N 
HETATM    2  N2  UNL     1      29.361   5.202  48.315  1.00  0.00    -0.148 NA
HETATM    3  C4  UNL     1      28.078   5.647  48.423  1.00  0.00     0.172 A 
HETATM    4  C5  UNL     1      28.016   6.883  47.814  1.00  0.00     0.085 A 
HETATM    5  C6  UNL     1      29.291   7.218  47.336  1.00  0.00     0.061 A 
HETATM    6  C7  UNL     1      29.078   8.587  46.810  1.00  0.00     0.038 C 
HETATM    7  C8  UNL     1      28.603   9.221  47.917  1.00  0.00    -0.028 A 
HETATM    8  C9  UNL     1      28.339   8.809  49.270  1.00  0.00     0.140 A 
HETATM    9  N3  UNL     1      27.266   7.959  49.637  1.00  0.00    -0.374 N 
HETATM   10  C10 UNL     1      26.372   6.790  49.501  1.00  0.00     0.205 C 
HETATM   11  N4  UNL     1      26.692   5.593  48.908  1.00  0.00    -0.223 NA
HETATM   12  C11 UNL     1      28.060  10.236  48.890  1.00  0.00     0.135 A 
HETATM   13  H10 UNL     1      26.933   8.476  50.508  1.00  0.00     0.161 HD
ENDROOT
BRANCH   1  14
HETATM   14  P1  UNL     1      31.700   6.556  47.040  1.00  0.00     0.024 P 
HETATM   15  H6  UNL     1      31.751   7.886  46.453  1.00  0.00     0.086 HD
BRANCH  14  16
HETATM   16  C3  UNL     1      32.935   6.431  48.386  1.00  0.00     0.025 C 
HETATM   17  C2  UNL     1      34.241   6.115  48.296  1.00  0.00     0.001 C 
BRANCH  17  18
HETATM   18  C1  UNL     1      35.495   5.917  49.084  1.00  0.00     0.191 C 
BRANCH  18  19
HETATM   19  O1  UNL     1      35.463   4.687  49.739  1.00  0.00    -0.397 OA
HETATM   20  H1  UNL     1      34.907   4.784  50.554  1.00  0.00     0.209 HD
ENDBRANCH  18  19
ENDBRANCH  17  18
ENDBRANCH  14  16
ENDBRANCH   1  14
BRANCH  12  21
HETATM   21  N5  UNL     1      28.924  11.256  49.343  1.00  0.00    -0.410 N 
HETATM   22  H13 UNL     1      29.337  11.105  50.271  1.00  0.00     0.154 HD
BRANCH  21  23
HETATM   23  C12 UNL     1      28.740  12.600  49.003  1.00  0.00     0.129 C 
BRANCH  23  24
HETATM   24  C13 UNL     1      28.735  12.929  47.539  1.00  0.00     0.134 C 
HETATM   25 CL1  UNL     1      30.191  12.394  46.743  1.00  0.00    -0.129 Cl
ENDBRANCH  23  24
ENDBRANCH  21  23
ENDBRANCH  12  21
TORSDOF 7
ENDMDL
