MODEL 1
REMARK VINA RESULT:      -7.9      0.000      0.000
REMARK  3 active torsions:
REMARK  status: ('A' for Active; 'I' for Inactive)
REMARK       I    between atoms: C2_2  and  N1_4 
REMARK    1  A    between atoms: N1_4  and  C3_5 
REMARK    2  A    between atoms: C9_11  and  N2_12 
REMARK    3  A    between atoms: C14_19  and  N3_20 
ROOT
HETATM    1  C3  UNL     1      27.022   1.297  52.947  1.00  0.00     0.020 A 
HETATM    2  C4  UNL     1      26.387   2.255  53.813  1.00  0.00     0.027 A 
HETATM    3  C5  UNL     1      25.121   2.450  53.332  1.00  0.00     0.066 A 
HETATM    4  C6  UNL     1      24.044   2.512  52.782  1.00  0.00     0.114 A 
HETATM    5  C7  UNL     1      24.737   1.419  51.699  1.00  0.00    -0.045 A 
HETATM    6  C8  UNL     1      25.858   1.295  52.225  1.00  0.00     0.093 A 
HETATM    7  C9  UNL     1      23.417   1.665  51.197  1.00  0.00     0.133 C 
HETATM    8  C15 UNL     1      23.477   3.230  51.477  1.00  0.00     0.109 A 
HETATM    9  N4  UNL     1      24.682   3.201  52.040  1.00  0.00    -0.281 N 
ENDROOT
BRANCH   7  10
HETATM   10  N2  UNL     1      22.258   1.061  51.620  1.00  0.00    -0.346 N 
HETATM   11  C10 UNL     1      22.041   0.156  52.688  1.00  0.00     0.116 A 
HETATM   12  C11 UNL     1      20.964  -0.499  53.085  1.00  0.00     0.087 A 
HETATM   13 CL1  UNL     1      20.868  -1.596  54.443  1.00  0.00    -0.080 Cl
HETATM   14  C12 UNL     1      19.728  -0.270  52.341  1.00  0.00     0.139 A 
HETATM   15  F1  UNL     1      18.532  -0.854  52.584  1.00  0.00    -0.204 F 
HETATM   16  C13 UNL     1      19.882   0.588  51.355  1.00  0.00     0.073 A 
HETATM   17  C14 UNL     1      21.028   1.358  50.858  1.00  0.00     0.346 A 
BRANCH  17  18
HETATM   18  N3  UNL     1      21.377   1.078  49.484  1.00  0.00     0.105 N 
HETATM   19  H12 UNL     1      22.357   0.819  49.340  1.00  0.00     0.315 HD
HETATM   20  H13 UNL     1      21.055   1.761  48.797  1.00  0.00     0.315 HD
ENDBRANCH  17  18
ENDBRANCH   7  10
BRANCH   1  21
HETATM   21  N1  UNL     1      28.261   0.759  53.061  1.00  0.00    -0.331 N 
HETATM   22  C2  UNL     1      28.385  -0.545  53.590  1.00  0.00     0.217 C 
HETATM   23  C1  UNL     1      29.819  -0.946  53.640  1.00  0.00     0.117 C 
HETATM   24  O1  UNL     1      27.376  -1.186  53.934  1.00  0.00    -0.274 OA
HETATM   25  H4  UNL     1      28.911   1.508  52.695  1.00  0.00     0.168 HD
ENDBRANCH   1  21
TORSDOF 3
ENDMDL
MODEL 2
REMARK VINA RESULT:      -7.2      3.506      4.269
REMARK  3 active torsions:
REMARK  status: ('A' for Active; 'I' for Inactive)
REMARK       I    between atoms: C2_2  and  N1_4 
REMARK    1  A    between atoms: N1_4  and  C3_5 
REMARK    2  A    between atoms: C9_11  and  N2_12 
REMARK    3  A    between atoms: C14_19  and  N3_20 
ROOT
HETATM    1  C3  UNL     1      26.968   0.037  52.716  1.00  0.00     0.020 A 
HETATM    2  C4  UNL     1      25.605  -0.352  52.959  1.00  0.00     0.027 A 
HETATM    3  C5  UNL     1      24.822   0.734  52.675  1.00  0.00     0.066 A 
HETATM    4  C6  UNL     1      24.278   1.777  52.388  1.00  0.00     0.114 A 
HETATM    5  C7  UNL     1      25.854   2.318  52.126  1.00  0.00    -0.045 A 
HETATM    6  C8  UNL     1      26.474   1.272  52.388  1.00  0.00     0.093 A 
HETATM    7  C9  UNL     1      25.015   3.452  51.864  1.00  0.00     0.133 C 
HETATM    8  C15 UNL     1      24.065   3.181  53.111  1.00  0.00     0.109 A 
HETATM    9  N4  UNL     1      24.676   2.059  53.482  1.00  0.00    -0.281 N 
ENDROOT
BRANCH   7  10
HETATM   10  N2  UNL     1      24.347   3.719  50.694  1.00  0.00    -0.346 N 
HETATM   11  C10 UNL     1      23.693   2.838  49.797  1.00  0.00     0.116 A 
HETATM   12  C11 UNL     1      23.102   3.043  48.633  1.00  0.00     0.087 A 
HETATM   13 CL1  UNL     1      22.334   1.826  47.641  1.00  0.00    -0.080 Cl
HETATM   14  C12 UNL     1      23.058   4.415  48.136  1.00  0.00     0.139 A 
HETATM   15  F1  UNL     1      22.512   4.821  46.966  1.00  0.00    -0.204 F 
HETATM   16  C13 UNL     1      23.632   5.270  48.955  1.00  0.00     0.073 A 
HETATM   17  C14 UNL     1      24.297   5.129  50.256  1.00  0.00     0.346 A 
BRANCH  17  18
HETATM   18  N3  UNL     1      25.676   5.560  50.265  1.00  0.00     0.105 N 
HETATM   19  H12 UNL     1      25.813   6.547  50.031  1.00  0.00     0.315 HD
HETATM   20  H13 UNL     1      26.332   4.953  49.770  1.00  0.00     0.315 HD
ENDBRANCH  17  18
ENDBRANCH   7  10
BRANCH   1  21
HETATM   21  N1  UNL     1      28.084  -0.724  52.812  1.00  0.00    -0.331 N 
HETATM   22  C2  UNL     1      28.926  -0.552  53.934  1.00  0.00     0.217 C 
HETATM   23  C1  UNL     1      30.096  -1.470  53.846  1.00  0.00     0.117 C 
HETATM   24  O1  UNL     1      28.639   0.276  54.817  1.00  0.00    -0.274 OA
HETATM   25  H4  UNL     1      28.070  -1.329  51.944  1.00  0.00     0.168 HD
ENDBRANCH   1  21
TORSDOF 3
ENDMDL
MODEL 3
REMARK VINA RESULT:      -7.1      4.840      6.532
REMARK  3 active torsions:
REMARK  status: ('A' for Active; 'I' for Inactive)
REMARK       I    between atoms: C2_2  and  N1_4 
REMARK    1  A    between atoms: N1_4  and  C3_5 
REMARK    2  A    between atoms: C9_11  and  N2_12 
REMARK    3  A    between atoms: C14_19  and  N3_20 
ROOT
HETATM    1  C3  UNL     1      22.983   1.062  52.777  1.00  0.00     0.020 A 
HETATM    2  C4  UNL     1      22.194   1.139  51.577  1.00  0.00     0.027 A 
HETATM    3  C5  UNL     1      22.278   2.428  51.124  1.00  0.00     0.066 A 
HETATM    4  C6  UNL     1      22.452   3.598  50.864  1.00  0.00     0.114 A 
HETATM    5  C7  UNL     1      23.359   3.595  52.287  1.00  0.00    -0.045 A 
HETATM    6  C8  UNL     1      23.236   2.397  52.602  1.00  0.00     0.093 A 
HETATM    7  C9  UNL     1      23.406   4.946  51.810  1.00  0.00     0.133 C 
HETATM    8  C15 UNL     1      21.868   4.979  51.405  1.00  0.00     0.109 A 
HETATM    9  N4  UNL     1      21.634   3.711  51.732  1.00  0.00    -0.281 N 
ENDROOT
BRANCH   7  10
HETATM   10  N2  UNL     1      24.253   5.442  50.849  1.00  0.00    -0.346 N 
HETATM   11  C10 UNL     1      25.364   4.835  50.213  1.00  0.00     0.116 A 
HETATM   12  C11 UNL     1      26.242   5.297  49.340  1.00  0.00     0.087 A 
HETATM   13 CL1  UNL     1      27.574   4.401  48.648  1.00  0.00    -0.080 Cl
HETATM   14  C12 UNL     1      26.075   6.675  48.886  1.00  0.00     0.139 A 
HETATM   15  F1  UNL     1      26.874   7.327  48.010  1.00  0.00    -0.204 F 
HETATM   16  C13 UNL     1      25.034   7.266  49.433  1.00  0.00     0.073 A 
HETATM   17  C14 UNL     1      24.015   6.827  50.394  1.00  0.00     0.346 A 
BRANCH  17  18
HETATM   18  N3  UNL     1      23.976   7.606  51.610  1.00  0.00     0.105 N 
HETATM   19  H12 UNL     1      24.890   7.759  52.045  1.00  0.00     0.315 HD
HETATM   20  H13 UNL     1      23.268   7.328  52.292  1.00  0.00     0.315 HD
ENDBRANCH  17  18
ENDBRANCH   7  10
BRANCH   1  21
HETATM   21  N1  UNL     1      23.237  -0.027  53.542  1.00  0.00    -0.331 N 
HETATM   22  C2  UNL     1      22.268  -0.427  54.489  1.00  0.00     0.217 C 
HETATM   23  C1  UNL     1      22.739  -1.631  55.230  1.00  0.00     0.117 C 
HETATM   24  O1  UNL     1      21.202   0.203  54.608  1.00  0.00    -0.274 OA
HETATM   25  H4  UNL     1      24.191  -0.357  53.228  1.00  0.00     0.168 HD
ENDBRANCH   1  21
TORSDOF 3
ENDMDL
MODEL 4
REMARK VINA RESULT:      -7.1      4.217      5.460
REMARK  3 active torsions:
REMARK  status: ('A' for Active; 'I' for Inactive)
REMARK       I    between atoms: C2_2  and  N1_4 
REMARK    1  A    between atoms: N1_4  and  C3_5 
REMARK    2  A    between atoms: C9_11  and  N2_12 
REMARK    3  A    between atoms: C14_19  and  N3_20 
ROOT
HETATM    1  C3  UNL     1      25.560   1.357  53.440  1.00  0.00     0.020 A 
HETATM    2  C4  UNL     1      24.811   0.731  52.384  1.00  0.00     0.027 A 
HETATM    3  C5  UNL     1      24.029   1.701  51.818  1.00  0.00     0.066 A 
HETATM    4  C6  UNL     1      23.405   2.667  51.437  1.00  0.00     0.114 A 
HETATM    5  C7  UNL     1      24.215   3.459  52.687  1.00  0.00    -0.045 A 
HETATM    6  C8  UNL     1      24.900   2.513  53.116  1.00  0.00     0.093 A 
HETATM    7  C9  UNL     1      23.363   4.451  52.098  1.00  0.00     0.133 C 
HETATM    8  C15 UNL     1      22.124   3.464  51.950  1.00  0.00     0.109 A 
HETATM    9  N4  UNL     1      22.769   2.397  52.415  1.00  0.00    -0.281 N 
ENDROOT
BRANCH   7  10
HETATM   10  N2  UNL     1      23.632   5.192  50.974  1.00  0.00    -0.346 N 
HETATM   11  C10 UNL     1      24.841   5.345  50.251  1.00  0.00     0.116 A 
HETATM   12  C11 UNL     1      25.159   6.098  49.212  1.00  0.00     0.087 A 
HETATM   13 CL1  UNL     1      26.722   6.169  48.433  1.00  0.00    -0.080 Cl
HETATM   14  C12 UNL     1      24.104   6.929  48.639  1.00  0.00     0.139 A 
HETATM   15  F1  UNL     1      24.237   7.771  47.588  1.00  0.00    -0.204 F 
HETATM   16  C13 UNL     1      22.955   6.794  49.266  1.00  0.00     0.073 A 
HETATM   17  C14 UNL     1      22.519   5.983  50.410  1.00  0.00     0.346 A 
BRANCH  17  18
HETATM   18  N3  UNL     1      22.022   6.755  51.525  1.00  0.00     0.105 N 
HETATM   19  H12 UNL     1      22.250   6.367  52.444  1.00  0.00     0.315 HD
HETATM   20  H13 UNL     1      21.044   7.044  51.462  1.00  0.00     0.315 HD
ENDBRANCH  17  18
ENDBRANCH   7  10
BRANCH   1  21
HETATM   21  N1  UNL     1      26.500   0.800  54.241  1.00  0.00    -0.331 N 
HETATM   22  C2  UNL     1      27.858   0.915  53.870  1.00  0.00     0.217 C 
HETATM   23  C1  UNL     1      28.725   0.233  54.872  1.00  0.00     0.117 C 
HETATM   24  O1  UNL     1      28.180   1.523  52.834  1.00  0.00    -0.274 OA
HETATM   25  H4  UNL     1      25.952   0.366  55.034  1.00  0.00     0.168 HD
ENDBRANCH   1  21
TORSDOF 3
ENDMDL
MODEL 5
REMARK VINA RESULT:      -6.9      3.506      4.851
REMARK  3 active torsions:
REMARK  status: ('A' for Active; 'I' for Inactive)
REMARK       I    between atoms: C2_2  and  N1_4 
REMARK    1  A    between atoms: N1_4  and  C3_5 
REMARK    2  A    between atoms: C9_11  and  N2_12 
REMARK    3  A    between atoms: C14_19  and  N3_20 
ROOT
HETATM    1  C3  UNL     1      24.150   4.329  51.347  1.00  0.00     0.020 A 
HETATM    2  C4  UNL     1      24.480   3.252  50.452  1.00  0.00     0.027 A 
HETATM    3  C5  UNL     1      23.897   2.121  50.956  1.00  0.00     0.066 A 
HETATM    4  C6  UNL     1      23.325   1.221  51.531  1.00  0.00     0.114 A 
HETATM    5  C7  UNL     1      22.936   2.425  52.648  1.00  0.00    -0.045 A 
HETATM    6  C8  UNL     1      23.486   3.396  52.098  1.00  0.00     0.093 A 
HETATM    7  C9  UNL     1      22.361   1.220  53.172  1.00  0.00     0.133 C 
HETATM    8  C15 UNL     1      23.626   0.323  52.813  1.00  0.00     0.109 A 
HETATM    9  N4  UNL     1      24.300   1.306  52.221  1.00  0.00    -0.281 N 
ENDROOT
BRANCH   7  10
HETATM   10  N2  UNL     1      21.157   0.667  52.810  1.00  0.00    -0.346 N 
HETATM   11  C10 UNL     1      20.318   0.954  51.705  1.00  0.00     0.116 A 
HETATM   12  C11 UNL     1      19.127   0.498  51.360  1.00  0.00     0.087 A 
HETATM   13 CL1  UNL     1      18.216   0.969  49.943  1.00  0.00    -0.080 Cl
HETATM   14  C12 UNL     1      18.520  -0.512  52.221  1.00  0.00     0.139 A 
HETATM   15  F1  UNL     1      17.308  -1.087  52.042  1.00  0.00    -0.204 F 
HETATM   16  C13 UNL     1      19.282  -0.829  53.246  1.00  0.00     0.073 A 
HETATM   17  C14 UNL     1      20.607  -0.381  53.694  1.00  0.00     0.346 A 
BRANCH  17  18
HETATM   18  N3  UNL     1      20.615   0.215  55.010  1.00  0.00     0.105 N 
HETATM   19  H12 UNL     1      20.187  -0.363  55.739  1.00  0.00     0.315 HD
HETATM   20  H13 UNL     1      20.305   1.187  55.058  1.00  0.00     0.315 HD
ENDBRANCH  17  18
ENDBRANCH   7  10
BRANCH   1  21
HETATM   21  N1  UNL     1      24.465   5.641  51.227  1.00  0.00    -0.331 N 
HETATM   22  C2  UNL     1      23.453   6.545  50.833  1.00  0.00     0.217 C 
HETATM   23  C1  UNL     1      24.002   7.928  50.752  1.00  0.00     0.117 C 
HETATM   24  O1  UNL     1      22.297   6.143  50.612  1.00  0.00    -0.274 OA
HETATM   25  H4  UNL     1      25.491   5.694  51.477  1.00  0.00     0.168 HD
ENDBRANCH   1  21
TORSDOF 3
ENDMDL
MODEL 6
REMARK VINA RESULT:      -6.9      3.322      4.201
REMARK  3 active torsions:
REMARK  status: ('A' for Active; 'I' for Inactive)
REMARK       I    between atoms: C2_2  and  N1_4 
REMARK    1  A    between atoms: N1_4  and  C3_5 
REMARK    2  A    between atoms: C9_11  and  N2_12 
REMARK    3  A    between atoms: C14_19  and  N3_20 
ROOT
HETATM    1  C3  UNL     1      25.166   5.127  50.078  1.00  0.00     0.020 A 
HETATM    2  C4  UNL     1      24.422   5.713  51.161  1.00  0.00     0.027 A 
HETATM    3  C5  UNL     1      23.473   4.801  51.535  1.00  0.00     0.066 A 
HETATM    4  C6  UNL     1      22.697   3.894  51.738  1.00  0.00     0.114 A 
HETATM    5  C7  UNL     1      23.495   3.161  50.445  1.00  0.00    -0.045 A 
HETATM    6  C8  UNL     1      24.333   4.046  50.196  1.00  0.00     0.093 A 
HETATM    7  C9  UNL     1      22.472   2.234  50.835  1.00  0.00     0.133 C 
HETATM    8  C15 UNL     1      21.367   3.361  51.038  1.00  0.00     0.109 A 
HETATM    9  N4  UNL     1      22.185   4.375  50.768  1.00  0.00    -0.281 N 
ENDROOT
BRANCH   7  10
HETATM   10  N2  UNL     1      22.544   1.324  51.861  1.00  0.00    -0.346 N 
HETATM   11  C10 UNL     1      23.671   0.836  52.568  1.00  0.00     0.116 A 
HETATM   12  C11 UNL     1      23.793  -0.085  53.508  1.00  0.00     0.087 A 
HETATM   13 CL1  UNL     1      25.281  -0.574  54.283  1.00  0.00    -0.080 Cl
HETATM   14  C12 UNL     1      22.570  -0.739  53.967  1.00  0.00     0.139 A 
HETATM   15  F1  UNL     1      22.492  -1.710  54.906  1.00  0.00    -0.204 F 
HETATM   16  C13 UNL     1      21.495  -0.293  53.353  1.00  0.00     0.073 A 
HETATM   17  C14 UNL     1      21.274   0.721  52.315  1.00  0.00     0.346 A 
BRANCH  17  18
HETATM   18  N3  UNL     1      20.665   0.209  51.110  1.00  0.00     0.105 N 
HETATM   19  H12 UNL     1      19.654   0.063  51.175  1.00  0.00     0.315 HD
HETATM   20  H13 UNL     1      21.141  -0.583  50.675  1.00  0.00     0.315 HD
ENDBRANCH  17  18
ENDBRANCH   7  10
BRANCH   1  21
HETATM   21  N1  UNL     1      26.236   5.640  49.424  1.00  0.00    -0.331 N 
HETATM   22  C2  UNL     1      27.257   4.759  49.003  1.00  0.00     0.217 C 
HETATM   23  C1  UNL     1      28.340   5.518  48.316  1.00  0.00     0.117 C 
HETATM   24  O1  UNL     1      27.167   3.538  49.221  1.00  0.00    -0.274 OA
HETATM   25  H4  UNL     1      26.045   6.679  49.376  1.00  0.00     0.168 HD
ENDBRANCH   1  21
TORSDOF 3
ENDMDL
MODEL 7
REMARK VINA RESULT:      -6.8      9.489     11.761
REMARK  3 active torsions:
REMARK  status: ('A' for Active; 'I' for Inactive)
REMARK       I    between atoms: C2_2  and  N1_4 
REMARK    1  A    between atoms: N1_4  and  C3_5 
REMARK    2  A    between atoms: C9_11  and  N2_12 
REMARK    3  A    between atoms: C14_19  and  N3_20 
ROOT
HETATM    1  C3  UNL     1      28.243   7.125  48.512  1.00  0.00     0.020 A 
HETATM    2  C4  UNL     1      28.380   7.482  47.125  1.00  0.00     0.027 A 
HETATM    3  C5  UNL     1      29.707   7.365  46.811  1.00  0.00     0.066 A 
HETATM    4  C6  UNL     1      30.903   7.217  46.699  1.00  0.00     0.114 A 
HETATM    5  C7  UNL     1      30.827   6.829  48.339  1.00  0.00    -0.045 A 
HETATM    6  C8  UNL     1      29.601   6.944  48.518  1.00  0.00     0.093 A 
HETATM    7  C9  UNL     1      32.216   6.744  47.993  1.00  0.00     0.133 C 
HETATM    8  C15 UNL     1      32.193   8.062  47.102  1.00  0.00     0.109 A 
HETATM    9  N4  UNL     1      30.889   8.280  47.250  1.00  0.00    -0.281 N 
ENDROOT
BRANCH   7  10
HETATM   10  N2  UNL     1      32.846   5.675  47.403  1.00  0.00    -0.346 N 
HETATM   11  C10 UNL     1      32.461   4.313  47.340  1.00  0.00     0.116 A 
HETATM   12  C11 UNL     1      33.066   3.247  46.847  1.00  0.00     0.087 A 
HETATM   13 CL1  UNL     1      32.443   1.614  46.855  1.00  0.00    -0.080 Cl
HETATM   14  C12 UNL     1      34.365   3.449  46.210  1.00  0.00     0.139 A 
HETATM   15  F1  UNL     1      35.140   2.485  45.661  1.00  0.00    -0.204 F 
HETATM   16  C13 UNL     1      34.746   4.708  46.222  1.00  0.00     0.073 A 
HETATM   17  C14 UNL     1      34.137   5.941  46.736  1.00  0.00     0.346 A 
BRANCH  17  18
HETATM   18  N3  UNL     1      34.929   6.618  47.737  1.00  0.00     0.105 N 
HETATM   19  H12 UNL     1      35.186   6.035  48.539  1.00  0.00     0.315 HD
HETATM   20  H13 UNL     1      34.589   7.537  48.023  1.00  0.00     0.315 HD
ENDBRANCH  17  18
ENDBRANCH   7  10
BRANCH   1  21
HETATM   21  N1  UNL     1      27.108   7.043  49.246  1.00  0.00    -0.331 N 
HETATM   22  C2  UNL     1      26.425   5.808  49.300  1.00  0.00     0.217 C 
HETATM   23  C1  UNL     1      25.205   5.930  50.147  1.00  0.00     0.117 C 
HETATM   24  O1  UNL     1      26.866   4.815  48.693  1.00  0.00    -0.274 OA
HETATM   25  H4  UNL     1      26.979   8.014  49.647  1.00  0.00     0.168 HD
ENDBRANCH   1  21
TORSDOF 3
ENDMDL
MODEL 8
REMARK VINA RESULT:      -6.6      3.689      4.534
REMARK  3 active torsions:
REMARK  status: ('A' for Active; 'I' for Inactive)
REMARK       I    between atoms: C2_2  and  N1_4 
REMARK    1  A    between atoms: N1_4  and  C3_5 
REMARK    2  A    between atoms: C9_11  and  N2_12 
REMARK    3  A    between atoms: C14_19  and  N3_20 
ROOT
HETATM    1  C3  UNL     1      26.204   1.755  53.000  1.00  0.00     0.020 A 
HETATM    2  C4  UNL     1      26.147   1.472  51.591  1.00  0.00     0.027 A 
HETATM    3  C5  UNL     1      24.921   1.887  51.148  1.00  0.00     0.066 A 
HETATM    4  C6  UNL     1      23.805   2.299  50.921  1.00  0.00     0.114 A 
HETATM    5  C7  UNL     1      23.781   2.619  52.577  1.00  0.00    -0.045 A 
HETATM    6  C8  UNL     1      24.926   2.231  52.875  1.00  0.00     0.093 A 
HETATM    7  C9  UNL     1      22.491   3.018  52.095  1.00  0.00     0.133 C 
HETATM    8  C15 UNL     1      22.326   1.750  51.148  1.00  0.00     0.109 A 
HETATM    9  N4  UNL     1      23.527   1.246  51.418  1.00  0.00    -0.281 N 
ENDROOT
BRANCH   7  10
HETATM   10  N2  UNL     1      22.178   4.214  51.496  1.00  0.00    -0.346 N 
HETATM   11  C10 UNL     1      22.932   5.410  51.401  1.00  0.00     0.116 A 
HETATM   12  C11 UNL     1      22.643   6.597  50.898  1.00  0.00     0.087 A 
HETATM   13 CL1  UNL     1      23.705   7.986  50.865  1.00  0.00    -0.080 Cl
HETATM   14  C12 UNL     1      21.328   6.765  50.288  1.00  0.00     0.139 A 
HETATM   15  F1  UNL     1      20.846   7.902  49.734  1.00  0.00    -0.204 F 
HETATM   16  C13 UNL     1      20.605   5.666  50.330  1.00  0.00     0.073 A 
HETATM   17  C14 UNL     1      20.850   4.317  50.857  1.00  0.00     0.346 A 
BRANCH  17  18
HETATM   18  N3  UNL     1      19.921   3.906  51.883  1.00  0.00     0.105 N 
HETATM   19  H12 UNL     1      19.760   4.606  52.614  1.00  0.00     0.315 HD
HETATM   20  H13 UNL     1      20.073   2.974  52.271  1.00  0.00     0.315 HD
ENDBRANCH  17  18
ENDBRANCH   7  10
BRANCH   1  21
HETATM   21  N1  UNL     1      27.241   1.565  53.850  1.00  0.00    -0.331 N 
HETATM   22  C2  UNL     1      27.511   0.255  54.304  1.00  0.00     0.217 C 
HETATM   23  C1  UNL     1      28.678   0.262  55.231  1.00  0.00     0.117 C 
HETATM   24  O1  UNL     1      26.815  -0.702  53.921  1.00  0.00    -0.274 OA
HETATM   25  H4  UNL     1      27.648   2.531  53.994  1.00  0.00     0.168 HD
ENDBRANCH   1  21
TORSDOF 3
ENDMDL
MODEL 9
REMARK VINA RESULT:      -6.6      8.062      9.110
REMARK  3 active torsions:
REMARK  status: ('A' for Active; 'I' for Inactive)
REMARK       I    between atoms: C2_2  and  N1_4 
REMARK    1  A    between atoms: N1_4  and  C3_5 
REMARK    2  A    between atoms: C9_11  and  N2_12 
REMARK    3  A    between atoms: C14_19  and  N3_20 
ROOT
HETATM    1  C3  UNL     1      32.818   5.868  47.411  1.00  0.00     0.020 A 
HETATM    2  C4  UNL     1      32.732   6.423  48.735  1.00  0.00     0.027 A 
HETATM    3  C5  UNL     1      31.479   6.960  48.863  1.00  0.00     0.066 A 
HETATM    4  C6  UNL     1      30.346   7.385  48.812  1.00  0.00     0.114 A 
HETATM    5  C7  UNL     1      30.389   6.797  47.231  1.00  0.00    -0.045 A 
HETATM    6  C8  UNL     1      31.539   6.322  47.223  1.00  0.00     0.093 A 
HETATM    7  C9  UNL     1      29.094   7.395  47.379  1.00  0.00     0.133 C 
HETATM    8  C15 UNL     1      29.642   8.662  48.169  1.00  0.00     0.109 A 
HETATM    9  N4  UNL     1      30.905   8.246  48.195  1.00  0.00    -0.281 N 
ENDROOT
BRANCH   7  10
HETATM   10  N2  UNL     1      27.987   6.811  47.946  1.00  0.00    -0.346 N 
HETATM   11  C10 UNL     1      27.807   5.500  48.452  1.00  0.00     0.116 A 
HETATM   12  C11 UNL     1      26.746   4.880  48.939  1.00  0.00     0.087 A 
HETATM   13 CL1  UNL     1      26.696   3.235  49.526  1.00  0.00    -0.080 Cl
HETATM   14  C12 UNL     1      25.504   5.643  49.023  1.00  0.00     0.139 A 
HETATM   15  F1  UNL     1      24.316   5.182  49.478  1.00  0.00    -0.204 F 
HETATM   16  C13 UNL     1      25.636   6.878  48.587  1.00  0.00     0.073 A 
HETATM   17  C14 UNL     1      26.768   7.640  48.044  1.00  0.00     0.346 A 
BRANCH  17  18
HETATM   18  N3  UNL     1      26.557   8.135  46.704  1.00  0.00     0.105 N 
HETATM   19  H12 UNL     1      26.979   9.049  46.518  1.00  0.00     0.315 HD
HETATM   20  H13 UNL     1      25.599   8.076  46.356  1.00  0.00     0.315 HD
ENDBRANCH  17  18
ENDBRANCH   7  10
BRANCH   1  21
HETATM   21  N1  UNL     1      33.850   5.189  46.855  1.00  0.00    -0.331 N 
HETATM   22  C2  UNL     1      33.850   3.778  46.934  1.00  0.00     0.217 C 
HETATM   23  C1  UNL     1      35.067   3.227  46.274  1.00  0.00     0.117 C 
HETATM   24  O1  UNL     1      32.917   3.176  47.493  1.00  0.00    -0.274 OA
HETATM   25  H4  UNL     1      34.478   5.939  46.454  1.00  0.00     0.168 HD
ENDBRANCH   1  21
TORSDOF 3
ENDMDL
