MODEL 1
REMARK VINA RESULT:      -9.0      0.000      0.000
REMARK  1 active torsions:
REMARK  status: ('A' for Active; 'I' for Inactive)
REMARK    1  A    between atoms: C11_15  and  C12_16 
ROOT
HETATM    1  F1  UNL     1      19.845  -2.144  54.508  1.00  0.00    -0.206 F 
HETATM    2  C1  UNL     1      20.726  -1.201  54.099  1.00  0.00     0.117 A 
HETATM    3  C2  UNL     1      20.196  -0.056  53.557  1.00  0.00     0.045 A 
HETATM    4  C3  UNL     1      21.077   0.923  53.132  1.00  0.00     0.041 A 
HETATM    5  C4  UNL     1      22.442   0.763  53.243  1.00  0.00     0.086 A 
HETATM    6  C5  UNL     1      23.002  -0.384  53.786  1.00  0.00    -0.004 A 
HETATM    7  C6  UNL     1      22.092  -1.356  54.208  1.00  0.00     0.054 A 
HETATM    8  C7  UNL     1      24.327  -0.952  54.084  1.00  0.00     0.161 C 
HETATM    9  N1  UNL     1      25.406  -0.002  53.901  1.00  0.00    -0.380 N 
HETATM   10  C8  UNL     1      25.555   1.024  52.889  1.00  0.00     0.112 A 
HETATM   11  C9  UNL     1      24.533   1.859  52.440  1.00  0.00     0.200 A 
HETATM   12  N2  UNL     1      24.913   2.830  51.552  1.00  0.00    -0.215 NA
HETATM   13  C10 UNL     1      26.228   2.894  51.192  1.00  0.00     0.236 A 
HETATM   14  N3  UNL     1      27.187   2.077  51.639  1.00  0.00    -0.239 NA
HETATM   15  C11 UNL     1      26.894   1.087  52.520  1.00  0.00     0.096 A 
HETATM   16  O1  UNL     1      23.180   1.841  52.769  1.00  0.00    -0.289 OA
HETATM   17  H6  UNL     1      26.280   0.089  54.536  1.00  0.00     0.160 HD
ENDROOT
BRANCH  15  18
HETATM   18  C12 UNL     1      27.929   0.123  52.887  1.00  0.00    -0.009 A 
HETATM   19  C13 UNL     1      28.029  -1.179  53.037  1.00  0.00     0.011 A 
HETATM   20  C14 UNL     1      29.326  -1.674  53.436  1.00  0.00    -0.002 A 
HETATM   21  C15 UNL     1      30.049  -0.576  53.532  1.00  0.00    -0.006 A 
HETATM   22  C16 UNL     1      29.306   0.654  53.218  1.00  0.00     0.115 A 
HETATM   23 BR1  UNL     1      29.218   1.861  54.721  1.00  0.00    -0.082 Br
ENDBRANCH  15  18
TORSDOF 1
ENDMDL
MODEL 2
REMARK VINA RESULT:      -8.8      3.702      5.766
REMARK  1 active torsions:
REMARK  status: ('A' for Active; 'I' for Inactive)
REMARK    1  A    between atoms: C11_15  and  C12_16 
ROOT
HETATM    1  F1  UNL     1      26.416  -1.587  53.530  1.00  0.00    -0.206 F 
HETATM    2  C1  UNL     1      25.761  -0.523  53.008  1.00  0.00     0.117 A 
HETATM    3  C2  UNL     1      24.394  -0.518  53.133  1.00  0.00     0.045 A 
HETATM    4  C3  UNL     1      23.703   0.559  52.606  1.00  0.00     0.041 A 
HETATM    5  C4  UNL     1      24.357   1.597  51.977  1.00  0.00     0.086 A 
HETATM    6  C5  UNL     1      25.737   1.616  51.837  1.00  0.00    -0.004 A 
HETATM    7  C6  UNL     1      26.411   0.518  52.377  1.00  0.00     0.054 A 
HETATM    8  C7  UNL     1      26.795   2.468  51.272  1.00  0.00     0.161 C 
HETATM    9  N1  UNL     1      26.310   3.764  50.839  1.00  0.00    -0.380 N 
HETATM   10  C8  UNL     1      25.052   4.101  50.207  1.00  0.00     0.112 A 
HETATM   11  C9  UNL     1      23.810   3.582  50.568  1.00  0.00     0.200 A 
HETATM   12  N2  UNL     1      22.734   4.113  49.908  1.00  0.00    -0.215 NA
HETATM   13  C10 UNL     1      22.965   5.081  48.974  1.00  0.00     0.236 A 
HETATM   14  N3  UNL     1      24.170   5.559  48.647  1.00  0.00    -0.239 NA
HETATM   15  C11 UNL     1      25.288   5.085  49.253  1.00  0.00     0.096 A 
HETATM   16  O1  UNL     1      23.513   2.597  51.508  1.00  0.00    -0.289 OA
HETATM   17  H6  UNL     1      26.838   4.704  50.953  1.00  0.00     0.160 HD
ENDROOT
BRANCH  15  18
HETATM   18  C12 UNL     1      26.601   5.522  48.783  1.00  0.00    -0.009 A 
HETATM   19  C13 UNL     1      27.781   4.984  48.571  1.00  0.00     0.011 A 
HETATM   20  C14 UNL     1      28.808   5.877  48.084  1.00  0.00    -0.002 A 
HETATM   21  C15 UNL     1      28.183   7.035  48.005  1.00  0.00    -0.006 A 
HETATM   22  C16 UNL     1      26.772   6.980  48.417  1.00  0.00     0.115 A 
HETATM   23 BR1  UNL     1      26.411   8.103  49.944  1.00  0.00    -0.082 Br
ENDBRANCH  15  18
TORSDOF 1
ENDMDL
MODEL 3
REMARK VINA RESULT:      -8.7      2.526      3.769
REMARK  1 active torsions:
REMARK  status: ('A' for Active; 'I' for Inactive)
REMARK    1  A    between atoms: C11_15  and  C12_16 
ROOT
HETATM    1  F1  UNL     1      20.334   2.835  49.238  1.00  0.00    -0.206 F 
HETATM    2  C1  UNL     1      20.907   2.017  50.152  1.00  0.00     0.117 A 
HETATM    3  C2  UNL     1      20.094   1.075  50.732  1.00  0.00     0.045 A 
HETATM    4  C3  UNL     1      20.658   0.226  51.669  1.00  0.00     0.041 A 
HETATM    5  C4  UNL     1      21.989   0.316  52.015  1.00  0.00     0.086 A 
HETATM    6  C5  UNL     1      22.832   1.259  51.445  1.00  0.00    -0.004 A 
HETATM    7  C6  UNL     1      22.239   2.103  50.502  1.00  0.00     0.054 A 
HETATM    8  C7  UNL     1      24.237   1.693  51.508  1.00  0.00     0.161 C 
HETATM    9  N1  UNL     1      25.071   0.801  52.291  1.00  0.00    -0.380 N 
HETATM   10  C8  UNL     1      24.747   0.084  53.507  1.00  0.00     0.112 A 
HETATM   11  C9  UNL     1      23.543  -0.572  53.753  1.00  0.00     0.200 A 
HETATM   12  N2  UNL     1      23.484  -1.275  54.926  1.00  0.00    -0.215 NA
HETATM   13  C10 UNL     1      24.582  -1.272  55.735  1.00  0.00     0.236 A 
HETATM   14  N3  UNL     1      25.726  -0.631  55.472  1.00  0.00    -0.239 NA
HETATM   15  C11 UNL     1      25.866   0.091  54.332  1.00  0.00     0.096 A 
HETATM   16  O1  UNL     1      22.391  -0.610  52.970  1.00  0.00    -0.289 OA
HETATM   17  H6  UNL     1      26.090   0.520  52.051  1.00  0.00     0.160 HD
ENDROOT
BRANCH  15  18
HETATM   18  C12 UNL     1      27.071   0.893  54.133  1.00  0.00    -0.009 A 
HETATM   19  C13 UNL     1      27.369   2.108  53.730  1.00  0.00     0.011 A 
HETATM   20  C14 UNL     1      28.774   2.441  53.701  1.00  0.00    -0.002 A 
HETATM   21  C15 UNL     1      29.353   1.333  54.118  1.00  0.00    -0.006 A 
HETATM   22  C16 UNL     1      28.408   0.250  54.432  1.00  0.00     0.115 A 
HETATM   23 BR1  UNL     1      28.673  -1.300  53.314  1.00  0.00    -0.082 Br
ENDBRANCH  15  18
TORSDOF 1
ENDMDL
MODEL 4
REMARK VINA RESULT:      -8.3      3.525      4.852
REMARK  1 active torsions:
REMARK  status: ('A' for Active; 'I' for Inactive)
REMARK    1  A    between atoms: C11_15  and  C12_16 
ROOT
HETATM    1  F1  UNL     1      23.417  -1.726  55.990  1.00  0.00    -0.206 F 
HETATM    2  C1  UNL     1      22.943  -1.130  54.870  1.00  0.00     0.117 A 
HETATM    3  C2  UNL     1      21.722  -1.561  54.412  1.00  0.00     0.045 A 
HETATM    4  C3  UNL     1      21.217  -0.967  53.269  1.00  0.00     0.041 A 
HETATM    5  C4  UNL     1      21.908   0.024  52.605  1.00  0.00     0.086 A 
HETATM    6  C5  UNL     1      23.143   0.477  53.047  1.00  0.00    -0.004 A 
HETATM    7  C6  UNL     1      23.631  -0.138  54.202  1.00  0.00     0.054 A 
HETATM    8  C7  UNL     1      24.177   1.456  52.675  1.00  0.00     0.161 C 
HETATM    9  N1  UNL     1      23.761   2.343  51.606  1.00  0.00    -0.380 N 
HETATM   10  C8  UNL     1      22.956   2.047  50.438  1.00  0.00     0.112 A 
HETATM   11  C9  UNL     1      21.813   1.250  50.435  1.00  0.00     0.200 A 
HETATM   12  N2  UNL     1      21.144   1.184  49.242  1.00  0.00    -0.215 NA
HETATM   13  C10 UNL     1      21.643   1.887  48.184  1.00  0.00     0.236 A 
HETATM   14  N3  UNL     1      22.745   2.643  48.217  1.00  0.00    -0.239 NA
HETATM   15  C11 UNL     1      23.468   2.760  49.360  1.00  0.00     0.096 A 
HETATM   16  O1  UNL     1      21.258   0.512  51.478  1.00  0.00    -0.289 OA
HETATM   17  H6  UNL     1      23.988   3.401  51.541  1.00  0.00     0.160 HD
ENDROOT
BRANCH  15  18
HETATM   18  C12 UNL     1      24.740   3.478  49.335  1.00  0.00    -0.009 A 
HETATM   19  C13 UNL     1      26.015   3.191  49.470  1.00  0.00     0.011 A 
HETATM   20  C14 UNL     1      26.931   4.304  49.363  1.00  0.00    -0.002 A 
HETATM   21  C15 UNL     1      26.132   5.329  49.150  1.00  0.00    -0.006 A 
HETATM   22  C16 UNL     1      24.705   4.973  49.107  1.00  0.00     0.115 A 
HETATM   23 BR1  UNL     1      23.691   5.842  50.500  1.00  0.00    -0.082 Br
ENDBRANCH  15  18
TORSDOF 1
ENDMDL
MODEL 5
REMARK VINA RESULT:      -8.2      3.377      6.509
REMARK  1 active torsions:
REMARK  status: ('A' for Active; 'I' for Inactive)
REMARK    1  A    between atoms: C11_15  and  C12_16 
ROOT
HETATM    1  F1  UNL     1      29.184  -0.968  54.243  1.00  0.00    -0.206 F 
HETATM    2  C1  UNL     1      28.296  -0.059  53.775  1.00  0.00     0.117 A 
HETATM    3  C2  UNL     1      28.789   1.186  53.475  1.00  0.00     0.045 A 
HETATM    4  C3  UNL     1      27.900   2.133  52.996  1.00  0.00     0.041 A 
HETATM    5  C4  UNL     1      26.563   1.843  52.821  1.00  0.00     0.086 A 
HETATM    6  C5  UNL     1      26.040   0.593  53.117  1.00  0.00    -0.004 A 
HETATM    7  C6  UNL     1      26.958  -0.344  53.599  1.00  0.00     0.054 A 
HETATM    8  C7  UNL     1      24.753  -0.120  53.087  1.00  0.00     0.161 C 
HETATM    9  N1  UNL     1      23.705   0.629  52.422  1.00  0.00    -0.380 N 
HETATM   10  C8  UNL     1      23.449   2.054  52.443  1.00  0.00     0.112 A 
HETATM   11  C9  UNL     1      24.427   3.044  52.358  1.00  0.00     0.200 A 
HETATM   12  N2  UNL     1      23.959   4.329  52.293  1.00  0.00    -0.215 NA
HETATM   13  C10 UNL     1      22.609   4.526  52.317  1.00  0.00     0.236 A 
HETATM   14  N3  UNL     1      21.694   3.555  52.400  1.00  0.00    -0.239 NA
HETATM   15  C11 UNL     1      22.074   2.254  52.471  1.00  0.00     0.096 A 
HETATM   16  O1  UNL     1      25.812   2.905  52.332  1.00  0.00    -0.289 OA
HETATM   17  H6  UNL     1      22.947   0.208  51.771  1.00  0.00     0.160 HD
ENDROOT
BRANCH  15  18
HETATM   18  C12 UNL     1      21.064   1.223  52.701  1.00  0.00    -0.009 A 
HETATM   19  C13 UNL     1      20.819   0.291  53.594  1.00  0.00     0.011 A 
HETATM   20  C14 UNL     1      19.642  -0.516  53.364  1.00  0.00    -0.002 A 
HETATM   21  C15 UNL     1      19.155  -0.021  52.243  1.00  0.00    -0.006 A 
HETATM   22  C16 UNL     1      19.946   1.089  51.690  1.00  0.00     0.115 A 
HETATM   23 BR1  UNL     1      20.661   0.681  49.945  1.00  0.00    -0.082 Br
ENDBRANCH  15  18
TORSDOF 1
ENDMDL
MODEL 6
REMARK VINA RESULT:      -8.2      4.780      7.554
REMARK  1 active torsions:
REMARK  status: ('A' for Active; 'I' for Inactive)
REMARK    1  A    between atoms: C11_15  and  C12_16 
ROOT
HETATM    1  F1  UNL     1      29.573   5.799  47.718  1.00  0.00    -0.206 F 
HETATM    2  C1  UNL     1      28.288   5.798  48.146  1.00  0.00     0.117 A 
HETATM    3  C2  UNL     1      27.555   6.932  47.898  1.00  0.00     0.045 A 
HETATM    4  C3  UNL     1      26.239   6.955  48.327  1.00  0.00     0.041 A 
HETATM    5  C4  UNL     1      25.675   5.881  48.982  1.00  0.00     0.086 A 
HETATM    6  C5  UNL     1      26.395   4.724  49.245  1.00  0.00    -0.004 A 
HETATM    7  C6  UNL     1      27.720   4.726  48.802  1.00  0.00     0.054 A 
HETATM    8  C7  UNL     1      26.211   3.408  49.879  1.00  0.00     0.161 C 
HETATM    9  N1  UNL     1      24.830   3.135  50.227  1.00  0.00    -0.380 N 
HETATM   10  C8  UNL     1      23.820   4.042  50.732  1.00  0.00     0.112 A 
HETATM   11  C9  UNL     1      23.612   5.341  50.275  1.00  0.00     0.200 A 
HETATM   12  N2  UNL     1      22.536   5.992  50.819  1.00  0.00    -0.215 NA
HETATM   13  C10 UNL     1      21.780   5.327  51.740  1.00  0.00     0.236 A 
HETATM   14  N3  UNL     1      22.006   4.079  52.161  1.00  0.00    -0.239 NA
HETATM   15  C11 UNL     1      23.053   3.365  51.673  1.00  0.00     0.096 A 
HETATM   16  O1  UNL     1      24.346   6.070  49.342  1.00  0.00    -0.289 OA
HETATM   17  H6  UNL     1      24.336   2.174  50.133  1.00  0.00     0.160 HD
ENDROOT
BRANCH  15  18
HETATM   18  C12 UNL     1      23.360   2.057  52.248  1.00  0.00    -0.009 A 
HETATM   19  C13 UNL     1      24.415   1.433  52.721  1.00  0.00     0.011 A 
HETATM   20  C14 UNL     1      24.197   0.083  53.190  1.00  0.00    -0.002 A 
HETATM   21  C15 UNL     1      22.910  -0.103  52.974  1.00  0.00    -0.006 A 
HETATM   22  C16 UNL     1      22.232   1.057  52.375  1.00  0.00     0.115 A 
HETATM   23 BR1  UNL     1      21.490   0.656  50.640  1.00  0.00    -0.082 Br
ENDBRANCH  15  18
TORSDOF 1
ENDMDL
MODEL 7
REMARK VINA RESULT:      -7.8      3.923      6.440
REMARK  1 active torsions:
REMARK  status: ('A' for Active; 'I' for Inactive)
REMARK    1  A    between atoms: C11_15  and  C12_16 
ROOT
HETATM    1  F1  UNL     1      24.923  -1.283  55.169  1.00  0.00    -0.206 F 
HETATM    2  C1  UNL     1      25.292  -0.492  54.133  1.00  0.00     0.117 A 
HETATM    3  C2  UNL     1      26.629  -0.465  53.824  1.00  0.00     0.045 A 
HETATM    4  C3  UNL     1      27.030   0.336  52.769  1.00  0.00     0.041 A 
HETATM    5  C4  UNL     1      26.125   1.085  52.047  1.00  0.00     0.086 A 
HETATM    6  C5  UNL     1      24.769   1.075  52.339  1.00  0.00    -0.004 A 
HETATM    7  C6  UNL     1      24.390   0.259  53.408  1.00  0.00     0.054 A 
HETATM    8  C7  UNL     1      23.515   1.680  51.863  1.00  0.00     0.161 C 
HETATM    9  N1  UNL     1      23.674   2.411  50.621  1.00  0.00    -0.380 N 
HETATM   10  C8  UNL     1      24.784   3.230  50.181  1.00  0.00     0.112 A 
HETATM   11  C9  UNL     1      26.130   2.909  50.346  1.00  0.00     0.200 A 
HETATM   12  N2  UNL     1      27.018   3.774  49.764  1.00  0.00    -0.215 NA
HETATM   13  C10 UNL     1      26.520   4.850  49.090  1.00  0.00     0.236 A 
HETATM   14  N3  UNL     1      25.221   5.134  48.948  1.00  0.00    -0.239 NA
HETATM   15  C11 UNL     1      24.276   4.329  49.496  1.00  0.00     0.096 A 
HETATM   16  O1  UNL     1      26.696   1.831  51.023  1.00  0.00    -0.289 OA
HETATM   17  H6  UNL     1      22.959   2.429  49.805  1.00  0.00     0.160 HD
ENDROOT
BRANCH  15  18
HETATM   18  C12 UNL     1      22.873   4.732  49.447  1.00  0.00    -0.009 A 
HETATM   19  C13 UNL     1      21.961   5.165  50.288  1.00  0.00     0.011 A 
HETATM   20  C14 UNL     1      20.656   5.433  49.728  1.00  0.00    -0.002 A 
HETATM   21  C15 UNL     1      20.810   5.131  48.454  1.00  0.00    -0.006 A 
HETATM   22  C16 UNL     1      22.163   4.666  48.112  1.00  0.00     0.115 A 
HETATM   23 BR1  UNL     1      22.167   2.858  47.438  1.00  0.00    -0.082 Br
ENDBRANCH  15  18
TORSDOF 1
ENDMDL
MODEL 8
REMARK VINA RESULT:      -7.7      7.612     10.143
REMARK  1 active torsions:
REMARK  status: ('A' for Active; 'I' for Inactive)
REMARK    1  A    between atoms: C11_15  and  C12_16 
ROOT
HETATM    1  F1  UNL     1      23.757   5.672  49.320  1.00  0.00    -0.206 F 
HETATM    2  C1  UNL     1      25.092   5.572  49.115  1.00  0.00     0.117 A 
HETATM    3  C2  UNL     1      25.635   4.313  49.191  1.00  0.00     0.045 A 
HETATM    4  C3  UNL     1      26.998   4.185  48.986  1.00  0.00     0.041 A 
HETATM    5  C4  UNL     1      27.792   5.279  48.714  1.00  0.00     0.086 A 
HETATM    6  C5  UNL     1      27.268   6.561  48.633  1.00  0.00    -0.004 A 
HETATM    7  C6  UNL     1      25.891   6.663  48.844  1.00  0.00     0.054 A 
HETATM    8  C7  UNL     1      27.714   7.941  48.381  1.00  0.00     0.161 C 
HETATM    9  N1  UNL     1      29.093   8.019  47.939  1.00  0.00    -0.380 N 
HETATM   10  C8  UNL     1      30.232   7.230  48.361  1.00  0.00     0.112 A 
HETATM   11  C9  UNL     1      30.215   5.854  48.577  1.00  0.00     0.200 A 
HETATM   12  N2  UNL     1      31.427   5.289  48.873  1.00  0.00    -0.215 NA
HETATM   13  C10 UNL     1      32.520   6.103  48.930  1.00  0.00     0.236 A 
HETATM   14  N3  UNL     1      32.505   7.423  48.718  1.00  0.00    -0.239 NA
HETATM   15  C11 UNL     1      31.345   8.061  48.422  1.00  0.00     0.096 A 
HETATM   16  O1  UNL     1      29.136   4.974  48.535  1.00  0.00    -0.289 OA
HETATM   17  H6  UNL     1      29.474   8.697  47.183  1.00  0.00     0.160 HD
ENDROOT
BRANCH  15  18
HETATM   18  C12 UNL     1      31.330   9.519  48.332  1.00  0.00    -0.009 A 
HETATM   19  C13 UNL     1      30.799  10.524  48.993  1.00  0.00     0.011 A 
HETATM   20  C14 UNL     1      31.088  11.844  48.480  1.00  0.00    -0.002 A 
HETATM   21  C15 UNL     1      31.847  11.598  47.431  1.00  0.00    -0.006 A 
HETATM   22  C16 UNL     1      32.093  10.167  47.197  1.00  0.00     0.115 A 
HETATM   23 BR1  UNL     1      31.401   9.573  45.496  1.00  0.00    -0.082 Br
ENDBRANCH  15  18
TORSDOF 1
ENDMDL
MODEL 9
REMARK VINA RESULT:      -7.7      2.293      4.250
REMARK  1 active torsions:
REMARK  status: ('A' for Active; 'I' for Inactive)
REMARK    1  A    between atoms: C11_15  and  C12_16 
ROOT
HETATM    1  F1  UNL     1      18.565  -0.945  53.390  1.00  0.00    -0.206 F 
HETATM    2  C1  UNL     1      19.911  -0.795  53.402  1.00  0.00     0.117 A 
HETATM    3  C2  UNL     1      20.608  -1.556  54.307  1.00  0.00     0.045 A 
HETATM    4  C3  UNL     1      21.985  -1.420  54.338  1.00  0.00     0.041 A 
HETATM    5  C4  UNL     1      22.643  -0.552  53.493  1.00  0.00     0.086 A 
HETATM    6  C5  UNL     1      21.962   0.228  52.570  1.00  0.00    -0.004 A 
HETATM    7  C6  UNL     1      20.574   0.072  52.558  1.00  0.00     0.054 A 
HETATM    8  C7  UNL     1      22.237   1.232  51.530  1.00  0.00     0.161 C 
HETATM    9  N1  UNL     1      23.652   1.384  51.249  1.00  0.00    -0.380 N 
HETATM   10  C8  UNL     1      24.773   1.342  52.165  1.00  0.00     0.112 A 
HETATM   11  C9  UNL     1      24.918   0.431  53.210  1.00  0.00     0.200 A 
HETATM   12  N2  UNL     1      26.103   0.500  53.892  1.00  0.00    -0.215 NA
HETATM   13  C10 UNL     1      27.018   1.433  53.500  1.00  0.00     0.236 A 
HETATM   14  N3  UNL     1      26.850   2.297  52.493  1.00  0.00    -0.239 NA
HETATM   15  C11 UNL     1      25.703   2.296  51.767  1.00  0.00     0.096 A 
HETATM   16  O1  UNL     1      24.023  -0.539  53.656  1.00  0.00    -0.289 OA
HETATM   17  H6  UNL     1      24.086   1.539  50.267  1.00  0.00     0.160 HD
ENDROOT
BRANCH  15  18
HETATM   18  C12 UNL     1      25.486   3.336  50.765  1.00  0.00    -0.009 A 
HETATM   19  C13 UNL     1      26.173   3.910  49.802  1.00  0.00     0.011 A 
HETATM   20  C14 UNL     1      25.485   4.940  49.059  1.00  0.00    -0.002 A 
HETATM   21  C15 UNL     1      24.298   4.979  49.630  1.00  0.00    -0.006 A 
HETATM   22  C16 UNL     1      24.138   4.022  50.736  1.00  0.00     0.115 A 
HETATM   23 BR1  UNL     1      23.794   4.899  52.420  1.00  0.00    -0.082 Br
ENDBRANCH  15  18
TORSDOF 1
ENDMDL
