MODEL 1
REMARK VINA RESULT:      -7.8      0.000      0.000
REMARK  5 active torsions:
REMARK  status: ('A' for Active; 'I' for Inactive)
REMARK    1  A    between atoms: O1_2  and  C2_3 
REMARK    2  A    between atoms: C3_4  and  N1_5 
REMARK       I    between atoms: N1_5  and  C4_6 
REMARK    3  A    between atoms: C4_6  and  C5_8 
REMARK    4  A    between atoms: C6_9  and  C7_10 
REMARK    5  A    between atoms: C7_10  and  N2_11 
ROOT
HETATM    1  C2  UNL     1      23.642   2.693  50.604  1.00  0.00     0.196 C 
HETATM    2  C3  UNL     1      22.649   3.792  50.932  1.00  0.00     0.056 C 
HETATM    3  C10 UNL     1      21.598   4.598  51.206  1.00  0.00     0.115 C 
HETATM    4  C11 UNL     1      20.180   4.383  51.325  1.00  0.00    -0.004 C 
HETATM    5  C12 UNL     1      19.107   3.511  51.315  1.00  0.00    -0.015 A 
HETATM    6 BR1  UNL     1      17.204   3.409  51.479  1.00  0.00    -0.127 Br
HETATM    7  C13 UNL     1      18.777   1.993  51.572  1.00  0.00     0.077 A 
HETATM    8  C14 UNL     1      18.331   0.587  51.779  1.00  0.00     0.144 C 
HETATM    9  C15 UNL     1      19.660   0.426  52.115  1.00  0.00    -0.093 C 
HETATM   10  C16 UNL     1      20.736   0.316  52.388  1.00  0.00    -0.065 C 
HETATM   11  C17 UNL     1      22.055   0.208  52.720  1.00  0.00     0.042 A 
HETATM   12  C18 UNL     1      22.503   1.185  51.814  1.00  0.00     0.052 A 
HETATM   13  C19 UNL     1      23.804   1.709  51.701  1.00  0.00     0.066 A 
HETATM   14  N3  UNL     1      24.581   1.116  52.607  1.00  0.00    -0.261 NA
HETATM   15  C20 UNL     1      24.150   0.182  53.459  1.00  0.00     0.141 A 
HETATM   16  C21 UNL     1      22.890  -0.348  53.600  1.00  0.00     0.081 A 
HETATM   17  C22 UNL     1      22.291  -1.301  54.418  1.00  0.00     0.102 C 
HETATM   18  N4  UNL     1      21.813  -2.093  55.078  1.00  0.00    -0.191 NA
ENDROOT
BRANCH   1  19
HETATM   19  O1  UNL     1      23.129   1.970  49.493  1.00  0.00    -0.382 OA
HETATM   20  C1  UNL     1      22.868   2.710  48.383  1.00  0.00     0.202 C 
ENDBRANCH   1  19
BRANCH   2  21
HETATM   21  N1  UNL     1      23.440   4.964  51.348  1.00  0.00    -0.349 N 
HETATM   22  C4  UNL     1      23.917   5.849  50.321  1.00  0.00     0.241 C 
HETATM   23  O2  UNL     1      23.700   5.690  49.096  1.00  0.00    -0.269 OA
HETATM   24  H5  UNL     1      23.803   5.381  52.259  1.00  0.00     0.163 HD
BRANCH  22  25
HETATM   25  C5  UNL     1      24.715   7.046  50.558  1.00  0.00     0.072 C 
HETATM   26  C6  UNL     1      25.844   7.505  50.096  1.00  0.00     0.008 C 
BRANCH  26  27
HETATM   27  C7  UNL     1      26.783   8.625  50.187  1.00  0.00     0.299 C 
BRANCH  27  28
HETATM   28  N2  UNL     1      27.611   8.679  48.982  1.00  0.00     0.083 N 
HETATM   29  C8  UNL     1      28.911   9.228  49.372  1.00  0.00     0.309 C 
HETATM   30  C9  UNL     1      27.856   7.310  48.498  1.00  0.00     0.309 C 
ENDBRANCH  27  28
ENDBRANCH  26  27
ENDBRANCH  22  25
ENDBRANCH   2  21
TORSDOF 5
ENDMDL
MODEL 2
REMARK VINA RESULT:      -7.5      3.801      8.621
REMARK  5 active torsions:
REMARK  status: ('A' for Active; 'I' for Inactive)
REMARK    1  A    between atoms: O1_2  and  C2_3 
REMARK    2  A    between atoms: C3_4  and  N1_5 
REMARK       I    between atoms: N1_5  and  C4_6 
REMARK    3  A    between atoms: C4_6  and  C5_8 
REMARK    4  A    between atoms: C6_9  and  C7_10 
REMARK    5  A    between atoms: C7_10  and  N2_11 
ROOT
HETATM    1  C2  UNL     1      20.149   1.192  52.851  1.00  0.00     0.196 C 
HETATM    2  C3  UNL     1      19.770   0.990  51.396  1.00  0.00     0.056 C 
HETATM    3  C10 UNL     1      19.610   0.966  50.054  1.00  0.00     0.115 C 
HETATM    4  C11 UNL     1      20.281   1.612  48.957  1.00  0.00    -0.004 C 
HETATM    5  C12 UNL     1      21.291   2.442  48.507  1.00  0.00    -0.015 A 
HETATM    6 BR1  UNL     1      22.048   3.239  46.941  1.00  0.00    -0.127 Br
HETATM    7  C13 UNL     1      22.722   2.948  48.929  1.00  0.00     0.077 A 
HETATM    8  C14 UNL     1      24.074   3.506  49.210  1.00  0.00     0.144 C 
HETATM    9  C15 UNL     1      23.971   2.673  50.306  1.00  0.00    -0.093 C 
HETATM   10  C16 UNL     1      23.871   1.990  51.183  1.00  0.00    -0.065 C 
HETATM   11  C17 UNL     1      23.726   1.145  52.245  1.00  0.00     0.042 A 
HETATM   12  C18 UNL     1      22.335   1.305  52.356  1.00  0.00     0.052 A 
HETATM   13  C19 UNL     1      21.459   0.595  53.200  1.00  0.00     0.066 A 
HETATM   14  N3  UNL     1      22.172  -0.279  53.910  1.00  0.00    -0.261 NA
HETATM   15  C20 UNL     1      23.496  -0.420  53.804  1.00  0.00     0.141 A 
HETATM   16  C21 UNL     1      24.377   0.251  52.991  1.00  0.00     0.081 A 
HETATM   17  C22 UNL     1      25.750   0.223  52.764  1.00  0.00     0.102 C 
HETATM   18  N4  UNL     1      26.874   0.207  52.597  1.00  0.00    -0.191 NA
ENDROOT
BRANCH   1  19
HETATM   19  O1  UNL     1      20.276   2.591  53.070  1.00  0.00    -0.382 OA
HETATM   20  C1  UNL     1      19.647   3.384  52.165  1.00  0.00     0.202 C 
ENDBRANCH   1  19
BRANCH   2  21
HETATM   21  N1  UNL     1      18.830  -0.145  51.359  1.00  0.00    -0.349 N 
HETATM   22  C4  UNL     1      17.438   0.131  51.588  1.00  0.00     0.241 C 
HETATM   23  O2  UNL     1      16.973   1.273  51.812  1.00  0.00    -0.269 OA
HETATM   24  H5  UNL     1      18.879  -1.199  51.212  1.00  0.00     0.163 HD
BRANCH  22  25
HETATM   25  C5  UNL     1      16.380  -0.873  51.592  1.00  0.00     0.072 C 
HETATM   26  C6  UNL     1      16.142  -1.956  52.277  1.00  0.00     0.008 C 
BRANCH  26  27
HETATM   27  C7  UNL     1      15.192  -3.058  52.442  1.00  0.00     0.299 C 
BRANCH  27  28
HETATM   28  N2  UNL     1      15.909  -4.285  52.790  1.00  0.00     0.083 N 
HETATM   29  C8  UNL     1      17.032  -3.903  53.647  1.00  0.00     0.309 C 
HETATM   30  C9  UNL     1      15.031  -5.148  53.598  1.00  0.00     0.309 C 
ENDBRANCH  27  28
ENDBRANCH  26  27
ENDBRANCH  22  25
ENDBRANCH   2  21
TORSDOF 5
ENDMDL
MODEL 3
REMARK VINA RESULT:      -7.4      4.078      5.833
REMARK  5 active torsions:
REMARK  status: ('A' for Active; 'I' for Inactive)
REMARK    1  A    between atoms: O1_2  and  C2_3 
REMARK    2  A    between atoms: C3_4  and  N1_5 
REMARK       I    between atoms: N1_5  and  C4_6 
REMARK    3  A    between atoms: C4_6  and  C5_8 
REMARK    4  A    between atoms: C6_9  and  C7_10 
REMARK    5  A    between atoms: C7_10  and  N2_11 
ROOT
HETATM    1  C2  UNL     1      20.089   2.606  51.103  1.00  0.00     0.196 C 
HETATM    2  C3  UNL     1      21.489   2.148  50.737  1.00  0.00     0.056 C 
HETATM    3  C10 UNL     1      22.746   1.660  50.639  1.00  0.00     0.115 C 
HETATM    4  C11 UNL     1      23.623   0.971  51.548  1.00  0.00    -0.004 C 
HETATM    5  C12 UNL     1      23.836   0.402  52.790  1.00  0.00    -0.015 A 
HETATM    6 BR1  UNL     1      25.136  -0.489  53.875  1.00  0.00    -0.127 Br
HETATM    7  C13 UNL     1      23.033  -0.253  53.976  1.00  0.00     0.077 A 
HETATM    8  C14 UNL     1      22.397  -0.886  55.165  1.00  0.00     0.144 C 
HETATM    9  C15 UNL     1      21.261  -0.717  54.399  1.00  0.00    -0.093 C 
HETATM   10  C16 UNL     1      20.355  -0.577  53.763  1.00  0.00    -0.065 C 
HETATM   11  C17 UNL     1      19.263  -0.397  52.965  1.00  0.00     0.042 A 
HETATM   12  C18 UNL     1      19.729   0.783  52.361  1.00  0.00     0.052 A 
HETATM   13  C19 UNL     1      19.140   1.483  51.291  1.00  0.00     0.066 A 
HETATM   14  N3  UNL     1      18.031   0.842  50.924  1.00  0.00    -0.261 NA
HETATM   15  C20 UNL     1      17.590  -0.275  51.508  1.00  0.00     0.141 A 
HETATM   16  C21 UNL     1      18.140  -0.985  52.549  1.00  0.00     0.081 A 
HETATM   17  C22 UNL     1      17.814  -2.140  53.255  1.00  0.00     0.102 C 
HETATM   18  N4  UNL     1      17.534  -3.073  53.839  1.00  0.00    -0.191 NA
ENDROOT
BRANCH   1  19
HETATM   19  O1  UNL     1      20.170   3.273  52.355  1.00  0.00    -0.382 OA
HETATM   20  C1  UNL     1      21.136   4.224  52.449  1.00  0.00     0.202 C 
ENDBRANCH   1  19
BRANCH   2  21
HETATM   21  N1  UNL     1      21.615   2.302  49.277  1.00  0.00    -0.349 N 
HETATM   22  C4  UNL     1      22.163   3.534  48.779  1.00  0.00     0.241 C 
HETATM   23  O2  UNL     1      22.543   4.482  49.505  1.00  0.00    -0.269 OA
HETATM   24  H5  UNL     1      21.393   1.730  48.406  1.00  0.00     0.163 HD
BRANCH  22  25
HETATM   25  C5  UNL     1      22.350   3.851  47.367  1.00  0.00     0.072 C 
HETATM   26  C6  UNL     1      21.553   4.076  46.362  1.00  0.00     0.008 C 
BRANCH  26  27
HETATM   27  C7  UNL     1      21.523   4.398  44.933  1.00  0.00     0.299 C 
BRANCH  27  28
HETATM   28  N2  UNL     1      20.139   4.441  44.461  1.00  0.00     0.083 N 
HETATM   29  C8  UNL     1      20.124   3.881  43.109  1.00  0.00     0.309 C 
HETATM   30  C9  UNL     1      19.313   3.554  45.298  1.00  0.00     0.309 C 
ENDBRANCH  27  28
ENDBRANCH  26  27
ENDBRANCH  22  25
ENDBRANCH   2  21
TORSDOF 5
ENDMDL
MODEL 4
REMARK VINA RESULT:      -7.3      5.730      8.953
REMARK  5 active torsions:
REMARK  status: ('A' for Active; 'I' for Inactive)
REMARK    1  A    between atoms: O1_2  and  C2_3 
REMARK    2  A    between atoms: C3_4  and  N1_5 
REMARK       I    between atoms: N1_5  and  C4_6 
REMARK    3  A    between atoms: C4_6  and  C5_8 
REMARK    4  A    between atoms: C6_9  and  C7_10 
REMARK    5  A    between atoms: C7_10  and  N2_11 
ROOT
HETATM    1  C2  UNL     1      28.227   7.918  47.975  1.00  0.00     0.196 C 
HETATM    2  C3  UNL     1      28.321   6.423  48.213  1.00  0.00     0.056 C 
HETATM    3  C10 UNL     1      28.180   5.111  48.509  1.00  0.00     0.115 C 
HETATM    4  C11 UNL     1      27.111   4.322  49.064  1.00  0.00    -0.004 C 
HETATM    5  C12 UNL     1      25.813   4.246  49.536  1.00  0.00    -0.015 A 
HETATM    6 BR1  UNL     1      24.514   3.061  50.286  1.00  0.00    -0.127 Br
HETATM    7  C13 UNL     1      24.426   4.977  49.388  1.00  0.00     0.077 A 
HETATM    8  C14 UNL     1      23.064   5.577  49.345  1.00  0.00     0.144 C 
HETATM    9  C15 UNL     1      23.670   6.394  48.413  1.00  0.00    -0.093 C 
HETATM   10  C16 UNL     1      24.177   7.042  47.658  1.00  0.00    -0.065 C 
HETATM   11  C17 UNL     1      24.818   7.818  46.737  1.00  0.00     0.042 A 
HETATM   12  C18 UNL     1      26.070   7.775  47.372  1.00  0.00     0.052 A 
HETATM   13  C19 UNL     1      27.292   8.277  46.883  1.00  0.00     0.066 A 
HETATM   14  N3  UNL     1      27.076   8.827  45.688  1.00  0.00    -0.261 NA
HETATM   15  C20 UNL     1      25.881   8.871  45.095  1.00  0.00     0.141 A 
HETATM   16  C21 UNL     1      24.673   8.389  45.540  1.00  0.00     0.081 A 
HETATM   17  C22 UNL     1      23.369   8.354  45.054  1.00  0.00     0.102 C 
HETATM   18  N4  UNL     1      22.303   8.344  44.659  1.00  0.00    -0.191 NA
ENDROOT
BRANCH   1  19
HETATM   19  O1  UNL     1      27.704   8.507  49.158  1.00  0.00    -0.382 OA
HETATM   20  C1  UNL     1      28.453   9.505  49.696  1.00  0.00     0.202 C 
ENDBRANCH   1  19
BRANCH   2  21
HETATM   21  N1  UNL     1      29.545   5.963  47.532  1.00  0.00    -0.349 N 
HETATM   22  C4  UNL     1      30.809   6.318  48.118  1.00  0.00     0.241 C 
HETATM   23  O2  UNL     1      30.936   6.987  49.170  1.00  0.00    -0.269 OA
HETATM   24  H5  UNL     1      29.795   5.410  46.657  1.00  0.00     0.163 HD
BRANCH  22  25
HETATM   25  C5  UNL     1      32.111   5.951  47.573  1.00  0.00     0.072 C 
HETATM   26  C6  UNL     1      32.539   5.036  46.749  1.00  0.00     0.008 C 
BRANCH  26  27
HETATM   27  C7  UNL     1      33.739   4.512  46.094  1.00  0.00     0.299 C 
BRANCH  27  28
HETATM   28  N2  UNL     1      34.047   3.179  46.613  1.00  0.00     0.083 N 
HETATM   29  C8  UNL     1      34.733   3.361  47.894  1.00  0.00     0.309 C 
HETATM   30  C9  UNL     1      32.791   2.467  46.900  1.00  0.00     0.309 C 
ENDBRANCH  27  28
ENDBRANCH  26  27
ENDBRANCH  22  25
ENDBRANCH   2  21
TORSDOF 5
ENDMDL
MODEL 5
REMARK VINA RESULT:      -7.2      3.659      7.972
REMARK  5 active torsions:
REMARK  status: ('A' for Active; 'I' for Inactive)
REMARK    1  A    between atoms: O1_2  and  C2_3 
REMARK    2  A    between atoms: C3_4  and  N1_5 
REMARK       I    between atoms: N1_5  and  C4_6 
REMARK    3  A    between atoms: C4_6  and  C5_8 
REMARK    4  A    between atoms: C6_9  and  C7_10 
REMARK    5  A    between atoms: C7_10  and  N2_11 
ROOT
HETATM    1  C2  UNL     1      24.130   6.240  50.820  1.00  0.00     0.196 C 
HETATM    2  C3  UNL     1      23.804   4.907  50.174  1.00  0.00     0.056 C 
HETATM    3  C10 UNL     1      23.415   3.852  49.423  1.00  0.00     0.115 C 
HETATM    4  C11 UNL     1      22.742   3.722  48.157  1.00  0.00    -0.004 C 
HETATM    5  C12 UNL     1      22.183   4.321  47.043  1.00  0.00    -0.015 A 
HETATM    6 BR1  UNL     1      21.274   3.968  45.397  1.00  0.00    -0.127 Br
HETATM    7  C13 UNL     1      22.286   5.647  46.200  1.00  0.00     0.077 A 
HETATM    8  C14 UNL     1      22.278   6.850  45.323  1.00  0.00     0.144 C 
HETATM    9  C15 UNL     1      23.299   7.229  46.171  1.00  0.00    -0.093 C 
HETATM   10  C16 UNL     1      24.125   7.517  46.865  1.00  0.00    -0.065 C 
HETATM   11  C17 UNL     1      25.134   7.843  47.723  1.00  0.00     0.042 A 
HETATM   12  C18 UNL     1      24.581   7.189  48.837  1.00  0.00     0.052 A 
HETATM   13  C19 UNL     1      25.180   6.996  50.096  1.00  0.00     0.066 A 
HETATM   14  N3  UNL     1      26.390   7.553  50.080  1.00  0.00    -0.261 NA
HETATM   15  C20 UNL     1      26.906   8.180  49.020  1.00  0.00     0.141 A 
HETATM   16  C21 UNL     1      26.353   8.382  47.777  1.00  0.00     0.081 A 
HETATM   17  C22 UNL     1      26.750   8.997  46.594  1.00  0.00     0.102 C 
HETATM   18  N4  UNL     1      27.073   9.517  45.636  1.00  0.00    -0.191 NA
ENDROOT
BRANCH   1  19
HETATM   19  O1  UNL     1      22.956   7.039  50.769  1.00  0.00    -0.382 OA
HETATM   20  C1  UNL     1      21.813   6.426  51.172  1.00  0.00     0.202 C 
ENDBRANCH   1  19
BRANCH   2  21
HETATM   21  N1  UNL     1      24.532   3.878  50.939  1.00  0.00    -0.349 N 
HETATM   22  C4  UNL     1      25.823   3.473  50.454  1.00  0.00     0.241 C 
HETATM   23  O2  UNL     1      26.369   3.940  49.427  1.00  0.00    -0.269 OA
HETATM   24  H5  UNL     1      24.369   3.288  51.811  1.00  0.00     0.163 HD
BRANCH  22  25
HETATM   25  C5  UNL     1      26.670   2.467  51.084  1.00  0.00     0.072 C 
HETATM   26  C6  UNL     1      26.464   1.466  51.892  1.00  0.00     0.008 C 
BRANCH  26  27
HETATM   27  C7  UNL     1      27.131   0.380  52.614  1.00  0.00     0.299 C 
BRANCH  27  28
HETATM   28  N2  UNL     1      27.388   0.786  53.996  1.00  0.00     0.083 N 
HETATM   29  C8  UNL     1      26.362   0.159  54.830  1.00  0.00     0.309 C 
HETATM   30  C9  UNL     1      28.684   0.237  54.431  1.00  0.00     0.309 C 
ENDBRANCH  27  28
ENDBRANCH  26  27
ENDBRANCH  22  25
ENDBRANCH   2  21
TORSDOF 5
ENDMDL
MODEL 6
REMARK VINA RESULT:      -7.0      2.693      4.203
REMARK  5 active torsions:
REMARK  status: ('A' for Active; 'I' for Inactive)
REMARK    1  A    between atoms: O1_2  and  C2_3 
REMARK    2  A    between atoms: C3_4  and  N1_5 
REMARK       I    between atoms: N1_5  and  C4_6 
REMARK    3  A    between atoms: C4_6  and  C5_8 
REMARK    4  A    between atoms: C6_9  and  C7_10 
REMARK    5  A    between atoms: C7_10  and  N2_11 
ROOT
HETATM    1  C2  UNL     1      22.422   4.573  51.378  1.00  0.00     0.196 C 
HETATM    2  C3  UNL     1      23.686   3.850  50.951  1.00  0.00     0.056 C 
HETATM    3  C10 UNL     1      24.762   3.056  50.752  1.00  0.00     0.115 C 
HETATM    4  C11 UNL     1      25.260   1.870  51.397  1.00  0.00    -0.004 C 
HETATM    5  C12 UNL     1      25.105   0.886  52.357  1.00  0.00    -0.015 A 
HETATM    6 BR1  UNL     1      25.920  -0.669  53.115  1.00  0.00    -0.127 Br
HETATM    7  C13 UNL     1      23.972   0.161  53.176  1.00  0.00     0.077 A 
HETATM    8  C14 UNL     1      23.004  -0.597  54.016  1.00  0.00     0.144 C 
HETATM    9  C15 UNL     1      22.097   0.160  53.302  1.00  0.00    -0.093 C 
HETATM   10  C16 UNL     1      21.379   0.777  52.710  1.00  0.00    -0.065 C 
HETATM   11  C17 UNL     1      20.522   1.540  51.973  1.00  0.00     0.042 A 
HETATM   12  C18 UNL     1      21.382   2.646  51.866  1.00  0.00     0.052 A 
HETATM   13  C19 UNL     1      21.188   3.805  51.092  1.00  0.00     0.066 A 
HETATM   14  N3  UNL     1      20.021   3.700  50.456  1.00  0.00    -0.261 NA
HETATM   15  C20 UNL     1      19.205   2.649  50.569  1.00  0.00     0.141 A 
HETATM   16  C21 UNL     1      19.365   1.502  51.309  1.00  0.00     0.081 A 
HETATM   17  C22 UNL     1      18.628   0.341  51.528  1.00  0.00     0.102 C 
HETATM   18  N4  UNL     1      18.014  -0.596  51.716  1.00  0.00    -0.191 NA
ENDROOT
BRANCH   1  19
HETATM   19  O1  UNL     1      22.477   4.730  52.790  1.00  0.00    -0.382 OA
HETATM   20  C1  UNL     1      23.706   4.994  53.303  1.00  0.00     0.202 C 
ENDBRANCH   1  19
BRANCH   2  21
HETATM   21  N1  UNL     1      24.086   4.430  49.656  1.00  0.00    -0.349 N 
HETATM   22  C4  UNL     1      24.755   5.702  49.670  1.00  0.00     0.241 C 
HETATM   23  O2  UNL     1      25.024   6.346  50.711  1.00  0.00    -0.269 OA
HETATM   24  H5  UNL     1      24.011   4.171  48.625  1.00  0.00     0.163 HD
BRANCH  22  25
HETATM   25  C5  UNL     1      25.211   6.415  48.482  1.00  0.00     0.072 C 
HETATM   26  C6  UNL     1      26.227   7.182  48.203  1.00  0.00     0.008 C 
BRANCH  26  27
HETATM   27  C7  UNL     1      26.851   7.964  47.135  1.00  0.00     0.299 C 
BRANCH  27  28
HETATM   28  N2  UNL     1      28.140   8.487  47.589  1.00  0.00     0.083 N 
HETATM   29  C8  UNL     1      28.326   9.793  46.954  1.00  0.00     0.309 C 
HETATM   30  C9  UNL     1      28.083   8.725  49.041  1.00  0.00     0.309 C 
ENDBRANCH  27  28
ENDBRANCH  26  27
ENDBRANCH  22  25
ENDBRANCH   2  21
TORSDOF 5
ENDMDL
MODEL 7
REMARK VINA RESULT:      -7.0      5.547     11.321
REMARK  5 active torsions:
REMARK  status: ('A' for Active; 'I' for Inactive)
REMARK    1  A    between atoms: O1_2  and  C2_3 
REMARK    2  A    between atoms: C3_4  and  N1_5 
REMARK       I    between atoms: N1_5  and  C4_6 
REMARK    3  A    between atoms: C4_6  and  C5_8 
REMARK    4  A    between atoms: C6_9  and  C7_10 
REMARK    5  A    between atoms: C7_10  and  N2_11 
ROOT
HETATM    1  C2  UNL     1      30.715   7.226  49.155  1.00  0.00     0.196 C 
HETATM    2  C3  UNL     1      29.522   7.498  48.256  1.00  0.00     0.056 C 
HETATM    3  C10 UNL     1      28.623   7.832  47.303  1.00  0.00     0.115 C 
HETATM    4  C11 UNL     1      28.725   8.447  46.006  1.00  0.00    -0.004 C 
HETATM    5  C12 UNL     1      29.516   8.970  44.999  1.00  0.00    -0.015 A 
HETATM    6 BR1  UNL     1      29.468   9.799  43.276  1.00  0.00    -0.127 Br
HETATM    7  C13 UNL     1      30.978   8.857  44.425  1.00  0.00     0.077 A 
HETATM    8  C14 UNL     1      32.324   8.851  43.789  1.00  0.00     0.144 C 
HETATM    9  C15 UNL     1      32.549   7.876  44.740  1.00  0.00    -0.093 C 
HETATM   10  C16 UNL     1      32.711   7.087  45.512  1.00  0.00    -0.065 C 
HETATM   11  C17 UNL     1      32.882   6.123  46.462  1.00  0.00     0.042 A 
HETATM   12  C18 UNL     1      32.024   6.710  47.407  1.00  0.00     0.052 A 
HETATM   13  C19 UNL     1      31.605   6.162  48.635  1.00  0.00     0.066 A 
HETATM   14  N3  UNL     1      32.169   4.964  48.779  1.00  0.00    -0.261 NA
HETATM   15  C20 UNL     1      32.991   4.415  47.879  1.00  0.00     0.141 A 
HETATM   16  C21 UNL     1      33.415   4.918  46.673  1.00  0.00     0.081 A 
HETATM   17  C22 UNL     1      34.247   4.483  45.645  1.00  0.00     0.102 C 
HETATM   18  N4  UNL     1      34.941   4.130  44.817  1.00  0.00    -0.191 NA
ENDROOT
BRANCH   1  19
HETATM   19  O1  UNL     1      31.495   8.414  49.200  1.00  0.00    -0.382 OA
HETATM   20  C1  UNL     1      30.818   9.547  49.521  1.00  0.00     0.202 C 
ENDBRANCH   1  19
BRANCH   2  21
HETATM   21  N1  UNL     1      28.377   6.783  48.848  1.00  0.00    -0.349 N 
HETATM   22  C4  UNL     1      28.243   5.381  48.560  1.00  0.00     0.241 C 
HETATM   23  O2  UNL     1      29.038   4.728  47.843  1.00  0.00    -0.269 OA
HETATM   24  H5  UNL     1      27.543   7.016  49.468  1.00  0.00     0.163 HD
BRANCH  22  25
HETATM   25  C5  UNL     1      27.169   4.528  49.058  1.00  0.00     0.072 C 
HETATM   26  C6  UNL     1      25.902   4.697  49.309  1.00  0.00     0.008 C 
BRANCH  26  27
HETATM   27  C7  UNL     1      24.697   4.017  49.787  1.00  0.00     0.299 C 
BRANCH  27  28
HETATM   28  N2  UNL     1      24.251   4.619  51.044  1.00  0.00     0.083 N 
HETATM   29  C8  UNL     1      24.275   6.071  50.863  1.00  0.00     0.309 C 
HETATM   30  C9  UNL     1      22.849   4.244  51.293  1.00  0.00     0.309 C 
ENDBRANCH  27  28
ENDBRANCH  26  27
ENDBRANCH  22  25
ENDBRANCH   2  21
TORSDOF 5
ENDMDL
MODEL 8
REMARK VINA RESULT:      -7.0      3.662      5.773
REMARK  5 active torsions:
REMARK  status: ('A' for Active; 'I' for Inactive)
REMARK    1  A    between atoms: O1_2  and  C2_3 
REMARK    2  A    between atoms: C3_4  and  N1_5 
REMARK       I    between atoms: N1_5  and  C4_6 
REMARK    3  A    between atoms: C4_6  and  C5_8 
REMARK    4  A    between atoms: C6_9  and  C7_10 
REMARK    5  A    between atoms: C7_10  and  N2_11 
ROOT
HETATM    1  C2  UNL     1      24.959   6.157  49.283  1.00  0.00     0.196 C 
HETATM    2  C3  UNL     1      25.982   5.053  49.477  1.00  0.00     0.056 C 
HETATM    3  C10 UNL     1      26.725   3.968  49.789  1.00  0.00     0.115 C 
HETATM    4  C11 UNL     1      26.494   2.799  50.595  1.00  0.00    -0.004 C 
HETATM    5  C12 UNL     1      25.641   2.052  51.387  1.00  0.00    -0.015 A 
HETATM    6 BR1  UNL     1      25.513   0.460  52.440  1.00  0.00    -0.127 Br
HETATM    7  C13 UNL     1      24.101   1.805  51.611  1.00  0.00     0.077 A 
HETATM    8  C14 UNL     1      22.682   1.483  51.927  1.00  0.00     0.144 C 
HETATM    9  C15 UNL     1      22.460   2.350  50.876  1.00  0.00    -0.093 C 
HETATM   10  C16 UNL     1      22.300   3.049  50.021  1.00  0.00    -0.065 C 
HETATM   11  C17 UNL     1      22.132   3.905  48.971  1.00  0.00     0.042 A 
HETATM   12  C18 UNL     1      23.257   4.695  49.259  1.00  0.00     0.052 A 
HETATM   13  C19 UNL     1      23.792   5.735  48.474  1.00  0.00     0.066 A 
HETATM   14  N3  UNL     1      23.042   5.869  47.381  1.00  0.00    -0.261 NA
HETATM   15  C20 UNL     1      21.969   5.119  47.118  1.00  0.00     0.141 A 
HETATM   16  C21 UNL     1      21.423   4.096  47.857  1.00  0.00     0.081 A 
HETATM   17  C22 UNL     1      20.337   3.236  47.726  1.00  0.00     0.102 C 
HETATM   18  N4  UNL     1      19.439   2.548  47.621  1.00  0.00    -0.191 NA
ENDROOT
BRANCH   1  19
HETATM   19  O1  UNL     1      24.453   6.500  50.566  1.00  0.00    -0.382 OA
HETATM   20  C1  UNL     1      24.097   7.802  50.727  1.00  0.00     0.202 C 
ENDBRANCH   1  19
BRANCH   2  21
HETATM   21  N1  UNL     1      27.057   5.298  48.498  1.00  0.00    -0.349 N 
HETATM   22  C4  UNL     1      27.670   6.598  48.490  1.00  0.00     0.241 C 
HETATM   23  O2  UNL     1      27.353   7.533  49.262  1.00  0.00    -0.269 OA
HETATM   24  H5  UNL     1      27.549   4.758  47.723  1.00  0.00     0.163 HD
BRANCH  22  25
HETATM   25  C5  UNL     1      28.740   7.008  47.586  1.00  0.00     0.072 C 
HETATM   26  C6  UNL     1      30.003   6.713  47.463  1.00  0.00     0.008 C 
BRANCH  26  27
HETATM   27  C7  UNL     1      31.203   6.988  46.670  1.00  0.00     0.299 C 
BRANCH  27  28
HETATM   28  N2  UNL     1      32.395   6.844  47.506  1.00  0.00     0.083 N 
HETATM   29  C8  UNL     1      32.459   8.019  48.376  1.00  0.00     0.309 C 
HETATM   30  C9  UNL     1      32.235   5.672  48.383  1.00  0.00     0.309 C 
ENDBRANCH  27  28
ENDBRANCH  26  27
ENDBRANCH  22  25
ENDBRANCH   2  21
TORSDOF 5
ENDMDL
MODEL 9
REMARK VINA RESULT:      -6.9      6.484      9.261
REMARK  5 active torsions:
REMARK  status: ('A' for Active; 'I' for Inactive)
REMARK    1  A    between atoms: O1_2  and  C2_3 
REMARK    2  A    between atoms: C3_4  and  N1_5 
REMARK       I    between atoms: N1_5  and  C4_6 
REMARK    3  A    between atoms: C4_6  and  C5_8 
REMARK    4  A    between atoms: C6_9  and  C7_10 
REMARK    5  A    between atoms: C7_10  and  N2_11 
ROOT
HETATM    1  C2  UNL     1      27.561   9.367  46.570  1.00  0.00     0.196 C 
HETATM    2  C3  UNL     1      26.752   9.536  47.843  1.00  0.00     0.056 C 
HETATM    3  C10 UNL     1      26.010   9.447  48.969  1.00  0.00     0.115 C 
HETATM    4  C11 UNL     1      25.432   8.350  49.699  1.00  0.00    -0.004 C 
HETATM    5  C12 UNL     1      25.251   6.987  49.847  1.00  0.00    -0.015 A 
HETATM    6 BR1  UNL     1      24.392   5.653  50.917  1.00  0.00    -0.127 Br
HETATM    7  C13 UNL     1      25.956   5.625  49.487  1.00  0.00     0.077 A 
HETATM    8  C14 UNL     1      26.511   4.272  49.207  1.00  0.00     0.144 C 
HETATM    9  C15 UNL     1      27.537   5.023  48.669  1.00  0.00    -0.093 C 
HETATM   10  C16 UNL     1      28.358   5.648  48.244  1.00  0.00    -0.065 C 
HETATM   11  C17 UNL     1      29.350   6.433  47.734  1.00  0.00     0.042 A 
HETATM   12  C18 UNL     1      28.501   7.471  47.317  1.00  0.00     0.052 A 
HETATM   13  C19 UNL     1      28.877   8.725  46.798  1.00  0.00     0.066 A 
HETATM   14  N3  UNL     1      30.208   8.782  46.751  1.00  0.00    -0.261 NA
HETATM   15  C20 UNL     1      31.009   7.788  47.142  1.00  0.00     0.141 A 
HETATM   16  C21 UNL     1      30.677   6.556  47.655  1.00  0.00     0.081 A 
HETATM   17  C22 UNL     1      31.373   5.437  48.102  1.00  0.00     0.102 C 
HETATM   18  N4  UNL     1      31.948   4.520  48.448  1.00  0.00    -0.191 NA
ENDROOT
BRANCH   1  19
HETATM   19  O1  UNL     1      26.834   8.497  45.714  1.00  0.00    -0.382 OA
HETATM   20  C1  UNL     1      26.003   9.105  44.829  1.00  0.00     0.202 C 
ENDBRANCH   1  19
BRANCH   2  21
HETATM   21  N1  UNL     1      26.930  10.935  48.273  1.00  0.00    -0.349 N 
HETATM   22  C4  UNL     1      25.990  11.909  47.789  1.00  0.00     0.241 C 
HETATM   23  O2  UNL     1      25.028  11.644  47.029  1.00  0.00    -0.269 OA
HETATM   24  H5  UNL     1      27.610  11.489  48.877  1.00  0.00     0.163 HD
BRANCH  22  25
HETATM   25  C5  UNL     1      26.024  13.331  48.111  1.00  0.00     0.072 C 
HETATM   26  C6  UNL     1      25.184  14.320  47.996  1.00  0.00     0.008 C 
BRANCH  26  27
HETATM   27  C7  UNL     1      25.015  15.754  48.241  1.00  0.00     0.299 C 
BRANCH  27  28
HETATM   28  N2  UNL     1      24.662  16.434  46.995  1.00  0.00     0.083 N 
HETATM   29  C8  UNL     1      23.810  17.571  47.348  1.00  0.00     0.309 C 
HETATM   30  C9  UNL     1      25.881  16.990  46.383  1.00  0.00     0.309 C 
ENDBRANCH  27  28
ENDBRANCH  26  27
ENDBRANCH  22  25
ENDBRANCH   2  21
TORSDOF 5
ENDMDL
