MODEL 1
REMARK VINA RESULT:      -8.3      0.000      0.000
REMARK  0 active torsions:
REMARK  status: ('A' for Active; 'I' for Inactive)
ROOT
HETATM    1 BR1  UNL     1      22.316  -1.013  54.583  1.00  0.00    -0.115 Br
HETATM    2  C1  UNL     1      23.631  -0.197  53.470  1.00  0.00    -0.001 A 
HETATM    3  C2  UNL     1      22.760   0.599  52.885  1.00  0.00     0.012 A 
HETATM    4  C3  UNL     1      21.391   0.469  53.340  1.00  0.00     0.117 A 
HETATM    5  C4  UNL     1      20.504   1.254  52.753  1.00  0.00     0.128 C 
HETATM    6  N1  UNL     1      20.757   2.193  51.739  1.00  0.00    -0.078 NA
HETATM    7  C5  UNL     1      21.306   3.335  51.782  1.00  0.00     0.721 C 
HETATM    8  N2  UNL     1      21.032   3.323  50.350  1.00  0.00    -0.079 NA
HETATM    9  C6  UNL     1      21.776   3.340  49.258  1.00  0.00     0.114 C 
HETATM   10  C7  UNL     1      23.157   3.517  48.736  1.00  0.00     0.085 C 
HETATM   11  C8  UNL     1      24.159   3.822  49.807  1.00  0.00    -0.056 C 
HETATM   12  C9  UNL     1      23.767   4.450  50.942  1.00  0.00     0.001 C 
HETATM   13  C10 UNL     1      23.315   4.991  52.278  1.00  0.00     0.166 C 
HETATM   14  N3  UNL     1      21.961   4.433  52.480  1.00  0.00    -0.219 N 
HETATM   15  C11 UNL     1      25.572   3.509  49.769  1.00  0.00     0.007 C 
HETATM   16  C12 UNL     1      26.569   2.778  50.203  1.00  0.00     0.001 C 
HETATM   17  C13 UNL     1      26.247   1.767  51.191  1.00  0.00     0.000 C 
HETATM   18  C14 UNL     1      26.588   0.793  52.003  1.00  0.00     0.000 C 
HETATM   19  C15 UNL     1      26.222  -0.198  52.979  1.00  0.00     0.001 C 
HETATM   20  C16 UNL     1      25.041  -0.492  53.474  1.00  0.00     0.018 C 
HETATM   21  H10 UNL     1      21.343   4.839  53.211  1.00  0.00     0.178 HD
ENDROOT
TORSDOF 0
ENDMDL
MODEL 2
REMARK VINA RESULT:      -7.9      2.309      4.646
REMARK  0 active torsions:
REMARK  status: ('A' for Active; 'I' for Inactive)
ROOT
HETATM    1 BR1  UNL     1      26.793   4.164  49.333  1.00  0.00    -0.115 Br
HETATM    2  C1  UNL     1      26.019   2.904  50.536  1.00  0.00    -0.001 A 
HETATM    3  C2  UNL     1      24.788   3.307  50.295  1.00  0.00     0.012 A 
HETATM    4  C3  UNL     1      24.660   4.385  49.336  1.00  0.00     0.117 A 
HETATM    5  C4  UNL     1      23.431   4.807  49.094  1.00  0.00     0.128 C 
HETATM    6  N1  UNL     1      22.248   4.318  49.673  1.00  0.00    -0.078 NA
HETATM    7  C5  UNL     1      21.606   3.244  49.470  1.00  0.00     0.721 C 
HETATM    8  N2  UNL     1      20.719   3.791  50.490  1.00  0.00    -0.079 NA
HETATM    9  C6  UNL     1      20.357   3.423  51.706  1.00  0.00     0.114 C 
HETATM   10  C7  UNL     1      20.417   2.325  52.708  1.00  0.00     0.085 C 
HETATM   11  C8  UNL     1      21.138   1.110  52.210  1.00  0.00    -0.056 C 
HETATM   12  C9  UNL     1      21.162   0.833  50.883  1.00  0.00     0.001 C 
HETATM   13  C10 UNL     1      21.343   0.608  49.400  1.00  0.00     0.166 C 
HETATM   14  N3  UNL     1      21.400   1.962  48.810  1.00  0.00    -0.219 N 
HETATM   15  C11 UNL     1      21.848   0.145  53.022  1.00  0.00     0.007 C 
HETATM   16  C12 UNL     1      22.989  -0.361  53.418  1.00  0.00     0.001 C 
HETATM   17  C13 UNL     1      24.188   0.228  52.855  1.00  0.00     0.000 C 
HETATM   18  C14 UNL     1      25.493   0.300  52.731  1.00  0.00     0.000 C 
HETATM   19  C15 UNL     1      26.654   0.917  52.149  1.00  0.00     0.001 C 
HETATM   20  C16 UNL     1      26.737   1.923  51.307  1.00  0.00     0.018 C 
HETATM   21  H10 UNL     1      21.285   2.079  47.783  1.00  0.00     0.178 HD
ENDROOT
TORSDOF 0
ENDMDL
MODEL 3
REMARK VINA RESULT:      -7.8      1.967      4.406
REMARK  0 active torsions:
REMARK  status: ('A' for Active; 'I' for Inactive)
ROOT
HETATM    1 BR1  UNL     1      26.919  -0.322  52.519  1.00  0.00    -0.115 Br
HETATM    2  C1  UNL     1      25.089   0.142  52.787  1.00  0.00    -0.001 A 
HETATM    3  C2  UNL     1      25.196   1.278  52.129  1.00  0.00     0.012 A 
HETATM    4  C3  UNL     1      26.509   1.565  51.588  1.00  0.00     0.117 A 
HETATM    5  C4  UNL     1      26.633   2.709  50.935  1.00  0.00     0.128 C 
HETATM    6  N1  UNL     1      25.626   3.664  50.719  1.00  0.00    -0.078 NA
HETATM    7  C5  UNL     1      24.631   3.659  49.932  1.00  0.00     0.721 C 
HETATM    8  N2  UNL     1      24.380   4.966  50.527  1.00  0.00    -0.079 NA
HETATM    9  C6  UNL     1      23.414   5.486  51.261  1.00  0.00     0.114 C 
HETATM   10  C7  UNL     1      22.046   5.260  51.799  1.00  0.00     0.085 C 
HETATM   11  C8  UNL     1      21.448   3.957  51.363  1.00  0.00    -0.056 C 
HETATM   12  C9  UNL     1      21.826   3.398  50.188  1.00  0.00     0.001 C 
HETATM   13  C10 UNL     1      22.363   2.681  48.971  1.00  0.00     0.166 C 
HETATM   14  N3  UNL     1      23.792   3.052  48.907  1.00  0.00    -0.219 N 
HETATM   15  C11 UNL     1      20.459   3.187  52.087  1.00  0.00     0.007 C 
HETATM   16  C12 UNL     1      20.169   2.128  52.801  1.00  0.00     0.001 C 
HETATM   17  C13 UNL     1      21.258   1.210  53.069  1.00  0.00     0.000 C 
HETATM   18  C14 UNL     1      21.740   0.108  53.598  1.00  0.00     0.000 C 
HETATM   19  C15 UNL     1      22.851  -0.772  53.840  1.00  0.00     0.001 C 
HETATM   20  C16 UNL     1      24.108  -0.657  53.475  1.00  0.00     0.018 C 
HETATM   21  H10 UNL     1      24.328   2.879  48.033  1.00  0.00     0.178 HD
ENDROOT
TORSDOF 0
ENDMDL
MODEL 4
REMARK VINA RESULT:      -7.7      2.316      3.339
REMARK  0 active torsions:
REMARK  status: ('A' for Active; 'I' for Inactive)
ROOT
HETATM    1 BR1  UNL     1      17.806  -1.596  53.453  1.00  0.00    -0.115 Br
HETATM    2  C1  UNL     1      19.616  -1.019  53.285  1.00  0.00    -0.001 A 
HETATM    3  C2  UNL     1      19.364  -0.266  52.234  1.00  0.00     0.012 A 
HETATM    4  C3  UNL     1      17.985  -0.255  51.790  1.00  0.00     0.117 A 
HETATM    5  C4  UNL     1      17.721   0.488  50.728  1.00  0.00     0.128 C 
HETATM    6  N1  UNL     1      18.639   1.259  49.995  1.00  0.00    -0.078 NA
HETATM    7  C5  UNL     1      19.199   2.363  50.266  1.00  0.00     0.721 C 
HETATM    8  N2  UNL     1      19.818   2.165  48.961  1.00  0.00    -0.079 NA
HETATM    9  C6  UNL     1      21.055   1.987  48.533  1.00  0.00     0.114 C 
HETATM   10  C7  UNL     1      22.489   2.012  48.927  1.00  0.00     0.085 C 
HETATM   11  C8  UNL     1      22.701   2.408  50.356  1.00  0.00    -0.056 C 
HETATM   12  C9  UNL     1      21.803   3.211  50.977  1.00  0.00     0.001 C 
HETATM   13  C10 UNL     1      20.728   3.959  51.729  1.00  0.00     0.166 C 
HETATM   14  N3  UNL     1      19.455   3.511  51.126  1.00  0.00    -0.219 N 
HETATM   15  C11 UNL     1      23.814   2.015  51.195  1.00  0.00     0.007 C 
HETATM   16  C12 UNL     1      24.263   1.299  52.195  1.00  0.00     0.001 C 
HETATM   17  C13 UNL     1      23.296   0.456  52.872  1.00  0.00     0.000 C 
HETATM   18  C14 UNL     1      22.968  -0.411  53.802  1.00  0.00     0.000 C 
HETATM   19  C15 UNL     1      21.975  -1.232  54.442  1.00  0.00     0.001 C 
HETATM   20  C16 UNL     1      20.703  -1.388  54.155  1.00  0.00     0.018 C 
HETATM   21  H10 UNL     1      18.584   4.049  51.307  1.00  0.00     0.178 HD
ENDROOT
TORSDOF 0
ENDMDL
MODEL 5
REMARK VINA RESULT:      -7.7      1.469      2.417
REMARK  0 active torsions:
REMARK  status: ('A' for Active; 'I' for Inactive)
ROOT
HETATM    1 BR1  UNL     1      25.364  -0.663  54.488  1.00  0.00    -0.115 Br
HETATM    2  C1  UNL     1      25.443   0.585  53.048  1.00  0.00    -0.001 A 
HETATM    3  C2  UNL     1      24.175   0.422  52.730  1.00  0.00     0.012 A 
HETATM    4  C3  UNL     1      23.441  -0.518  53.552  1.00  0.00     0.117 A 
HETATM    5  C4  UNL     1      22.170  -0.700  53.236  1.00  0.00     0.128 C 
HETATM    6  N1  UNL     1      21.469  -0.077  52.189  1.00  0.00    -0.078 NA
HETATM    7  C5  UNL     1      21.026   1.106  52.074  1.00  0.00     0.721 C 
HETATM    8  N2  UNL     1      20.573   0.619  50.777  1.00  0.00    -0.079 NA
HETATM    9  C6  UNL     1      20.846   0.921  49.521  1.00  0.00     0.114 C 
HETATM   10  C7  UNL     1      21.542   1.888  48.631  1.00  0.00     0.085 C 
HETATM   11  C8  UNL     1      22.203   3.007  49.377  1.00  0.00    -0.056 C 
HETATM   12  C9  UNL     1      21.711   3.405  50.575  1.00  0.00     0.001 C 
HETATM   13  C10 UNL     1      21.280   3.742  51.984  1.00  0.00     0.166 C 
HETATM   14  N3  UNL     1      20.813   2.463  52.559  1.00  0.00    -0.219 N 
HETATM   15  C11 UNL     1      23.366   3.752  48.944  1.00  0.00     0.007 C 
HETATM   16  C12 UNL     1      24.641   4.017  49.082  1.00  0.00     0.001 C 
HETATM   17  C13 UNL     1      25.343   3.290  50.122  1.00  0.00     0.000 C 
HETATM   18  C14 UNL     1      26.427   3.011  50.808  1.00  0.00     0.000 C 
HETATM   19  C15 UNL     1      27.082   2.266  51.850  1.00  0.00     0.001 C 
HETATM   20  C16 UNL     1      26.599   1.350  52.657  1.00  0.00     0.018 C 
HETATM   21  H10 UNL     1      20.250   2.469  53.433  1.00  0.00     0.178 HD
ENDROOT
TORSDOF 0
ENDMDL
MODEL 6
REMARK VINA RESULT:      -7.5      2.041      4.700
REMARK  0 active torsions:
REMARK  status: ('A' for Active; 'I' for Inactive)
ROOT
HETATM    1 BR1  UNL     1      25.813   0.486  53.889  1.00  0.00    -0.115 Br
HETATM    2  C1  UNL     1      23.945   0.117  53.781  1.00  0.00    -0.001 A 
HETATM    3  C2  UNL     1      23.710   1.127  52.969  1.00  0.00     0.012 A 
HETATM    4  C3  UNL     1      24.868   1.918  52.604  1.00  0.00     0.117 A 
HETATM    5  C4  UNL     1      24.644   2.942  51.799  1.00  0.00     0.128 C 
HETATM    6  N1  UNL     1      23.404   3.336  51.268  1.00  0.00    -0.078 NA
HETATM    7  C5  UNL     1      22.697   2.831  50.345  1.00  0.00     0.721 C 
HETATM    8  N2  UNL     1      21.804   3.938  50.666  1.00  0.00    -0.079 NA
HETATM    9  C6  UNL     1      20.576   4.038  51.141  1.00  0.00     0.114 C 
HETATM   10  C7  UNL     1      19.344   3.277  51.483  1.00  0.00     0.085 C 
HETATM   11  C8  UNL     1      19.450   1.814  51.181  1.00  0.00    -0.056 C 
HETATM   12  C9  UNL     1      20.270   1.385  50.191  1.00  0.00     0.001 C 
HETATM   13  C10 UNL     1      21.305   0.881  49.212  1.00  0.00     0.166 C 
HETATM   14  N3  UNL     1      22.428   1.836  49.315  1.00  0.00    -0.219 N 
HETATM   15  C11 UNL     1      18.740   0.748  51.856  1.00  0.00     0.007 C 
HETATM   16  C12 UNL     1      18.769  -0.268  52.681  1.00  0.00     0.001 C 
HETATM   17  C13 UNL     1      20.056  -0.589  53.268  1.00  0.00     0.000 C 
HETATM   18  C14 UNL     1      20.824  -1.319  54.043  1.00  0.00     0.000 C 
HETATM   19  C15 UNL     1      22.119  -1.599  54.601  1.00  0.00     0.001 C 
HETATM   20  C16 UNL     1      23.261  -0.973  54.427  1.00  0.00     0.018 C 
HETATM   21  H10 UNL     1      23.162   1.846  48.579  1.00  0.00     0.178 HD
ENDROOT
TORSDOF 0
ENDMDL
MODEL 7
REMARK VINA RESULT:      -7.4      2.660      5.071
REMARK  0 active torsions:
REMARK  status: ('A' for Active; 'I' for Inactive)
ROOT
HETATM    1 BR1  UNL     1      20.135   3.367  47.950  1.00  0.00    -0.115 Br
HETATM    2  C1  UNL     1      20.752   2.246  49.364  1.00  0.00    -0.001 A 
HETATM    3  C2  UNL     1      21.936   2.822  49.412  1.00  0.00     0.012 A 
HETATM    4  C3  UNL     1      22.145   3.903  48.472  1.00  0.00     0.117 A 
HETATM    5  C4  UNL     1      23.333   4.481  48.502  1.00  0.00     0.128 C 
HETATM    6  N1  UNL     1      24.405   4.152  49.349  1.00  0.00    -0.078 NA
HETATM    7  C5  UNL     1      24.587   4.376  50.583  1.00  0.00     0.721 C 
HETATM    8  N2  UNL     1      25.841   3.671  50.343  1.00  0.00    -0.079 NA
HETATM    9  C6  UNL     1      26.375   2.544  50.777  1.00  0.00     0.114 C 
HETATM   10  C7  UNL     1      26.233   1.436  51.759  1.00  0.00     0.085 C 
HETATM   11  C8  UNL     1      25.054   1.600  52.669  1.00  0.00    -0.056 C 
HETATM   12  C9  UNL     1      24.590   2.840  52.959  1.00  0.00     0.001 C 
HETATM   13  C10 UNL     1      23.958   4.199  53.151  1.00  0.00     0.166 C 
HETATM   14  N3  UNL     1      24.185   4.912  51.877  1.00  0.00    -0.219 N 
HETATM   15  C11 UNL     1      24.315   0.533  53.310  1.00  0.00     0.007 C 
HETATM   16  C12 UNL     1      23.220  -0.182  53.385  1.00  0.00     0.001 C 
HETATM   17  C13 UNL     1      22.171   0.140  52.437  1.00  0.00     0.000 C 
HETATM   18  C14 UNL     1      20.976  -0.046  51.927  1.00  0.00     0.000 C 
HETATM   19  C15 UNL     1      19.965   0.307  50.967  1.00  0.00     0.001 C 
HETATM   20  C16 UNL     1      19.989   1.216  50.019  1.00  0.00     0.018 C 
HETATM   21  H10 UNL     1      24.054   5.942  51.835  1.00  0.00     0.178 HD
ENDROOT
TORSDOF 0
ENDMDL
MODEL 8
REMARK VINA RESULT:      -7.1      3.873      6.160
REMARK  0 active torsions:
REMARK  status: ('A' for Active; 'I' for Inactive)
ROOT
HETATM    1 BR1  UNL     1      25.097   9.469  47.997  1.00  0.00    -0.115 Br
HETATM    2  C1  UNL     1      25.723   7.738  48.493  1.00  0.00    -0.001 A 
HETATM    3  C2  UNL     1      24.633   7.451  49.175  1.00  0.00     0.012 A 
HETATM    4  C3  UNL     1      23.618   8.483  49.194  1.00  0.00     0.117 A 
HETATM    5  C4  UNL     1      22.523   8.212  49.885  1.00  0.00     0.128 C 
HETATM    6  N1  UNL     1      22.252   7.031  50.596  1.00  0.00    -0.078 NA
HETATM    7  C5  UNL     1      21.933   5.872  50.192  1.00  0.00     0.721 C 
HETATM    8  N2  UNL     1      21.925   5.571  51.619  1.00  0.00    -0.079 NA
HETATM    9  C6  UNL     1      22.625   4.776  52.408  1.00  0.00     0.114 C 
HETATM   10  C7  UNL     1      23.629   3.679  52.440  1.00  0.00     0.085 C 
HETATM   11  C8  UNL     1      24.050   3.224  51.076  1.00  0.00    -0.056 C 
HETATM   12  C9  UNL     1      23.199   3.348  50.029  1.00  0.00     0.001 C 
HETATM   13  C10 UNL     1      22.331   3.637  48.826  1.00  0.00     0.166 C 
HETATM   14  N3  UNL     1      21.634   4.899  49.150  1.00  0.00    -0.219 N 
HETATM   15  C11 UNL     1      25.326   2.635  50.728  1.00  0.00     0.007 C 
HETATM   16  C12 UNL     1      26.489   2.752  50.138  1.00  0.00     0.001 C 
HETATM   17  C13 UNL     1      26.758   4.018  49.485  1.00  0.00     0.000 C 
HETATM   18  C14 UNL     1      27.529   4.818  48.784  1.00  0.00     0.000 C 
HETATM   19  C15 UNL     1      27.752   6.090  48.152  1.00  0.00     0.001 C 
HETATM   20  C16 UNL     1      26.978   7.151  48.104  1.00  0.00     0.018 C 
HETATM   21  H10 UNL     1      20.808   5.188  48.589  1.00  0.00     0.178 HD
ENDROOT
TORSDOF 0
ENDMDL
MODEL 9
REMARK VINA RESULT:      -6.9      7.217      9.544
REMARK  0 active torsions:
REMARK  status: ('A' for Active; 'I' for Inactive)
ROOT
HETATM    1 BR1  UNL     1      31.699  10.498  47.319  1.00  0.00    -0.115 Br
HETATM    2  C1  UNL     1      30.842   8.831  47.662  1.00  0.00    -0.001 A 
HETATM    3  C2  UNL     1      29.714   9.396  48.041  1.00  0.00     0.012 A 
HETATM    4  C3  UNL     1      29.697  10.843  48.002  1.00  0.00     0.117 A 
HETATM    5  C4  UNL     1      28.574  11.424  48.390  1.00  0.00     0.128 C 
HETATM    6  N1  UNL     1      27.407  10.779  48.835  1.00  0.00    -0.078 NA
HETATM    7  C5  UNL     1      26.515  10.143  48.197  1.00  0.00     0.721 C 
HETATM    8  N2  UNL     1      25.933   9.982  49.524  1.00  0.00    -0.079 NA
HETATM    9  C6  UNL     1      25.678   8.953  50.311  1.00  0.00     0.114 C 
HETATM   10  C7  UNL     1      25.631   7.468  50.387  1.00  0.00     0.085 C 
HETATM   11  C8  UNL     1      25.976   6.799  49.091  1.00  0.00    -0.056 C 
HETATM   12  C9  UNL     1      25.744   7.436  47.918  1.00  0.00     0.001 C 
HETATM   13  C10 UNL     1      25.651   8.199  46.617  1.00  0.00     0.166 C 
HETATM   14  N3  UNL     1      25.929   9.605  46.976  1.00  0.00    -0.219 N 
HETATM   15  C11 UNL     1      26.557   5.482  48.938  1.00  0.00     0.007 C 
HETATM   16  C12 UNL     1      27.598   4.746  48.637  1.00  0.00     0.001 C 
HETATM   17  C13 UNL     1      28.805   5.456  48.262  1.00  0.00     0.000 C 
HETATM   18  C14 UNL     1      30.061   5.481  47.877  1.00  0.00     0.000 C 
HETATM   19  C15 UNL     1      31.235   6.228  47.513  1.00  0.00     0.001 C 
HETATM   20  C16 UNL     1      31.422   7.527  47.465  1.00  0.00     0.018 C 
HETATM   21  H10 UNL     1      25.697  10.362  46.302  1.00  0.00     0.178 HD
ENDROOT
TORSDOF 0
ENDMDL
