MODEL 1
REMARK VINA RESULT:      -8.7      0.000      0.000
REMARK  4 active torsions:
REMARK  status: ('A' for Active; 'I' for Inactive)
REMARK    1  A    between atoms: C3_3  and  C4_4 
REMARK    2  A    between atoms: C4_4  and  C5_5 
REMARK    3  A    between atoms: C9_9  and  N1_10 
REMARK    4  A    between atoms: N1_10  and  C10_11 
ROOT
HETATM    1  C5  UNL     1      21.399   1.123  52.720  1.00  0.00    -0.074 C 
HETATM    2  C6  UNL     1      22.550   1.896  52.892  1.00  0.00     0.062 C 
HETATM    3  C7  UNL     1      23.740   2.261  52.373  1.00  0.00    -0.005 C 
HETATM    4  C8  UNL     1      24.724   2.613  51.650  1.00  0.00     0.032 A 
HETATM    5  C9  UNL     1      26.045   2.922  51.640  1.00  0.00     0.141 A 
HETATM    6  N2  UNL     1      26.768   3.390  50.601  1.00  0.00    -0.224 NA
HETATM    7  C16 UNL     1      26.268   3.616  49.408  1.00  0.00     0.235 A 
HETATM    8  N3  UNL     1      24.928   3.356  49.216  1.00  0.00    -0.245 NA
HETATM    9  C17 UNL     1      24.261   2.885  50.303  1.00  0.00     0.060 A 
HETATM   10  C18 UNL     1      23.149   2.569  49.566  1.00  0.00     0.106 C 
HETATM   11  C19 UNL     1      21.899   2.113  48.995  1.00  0.00     0.159 C 
HETATM   12  N4  UNL     1      21.088   1.412  49.625  1.00  0.00    -0.464 NA
HETATM   13  C20 UNL     1      20.409   0.704  50.459  1.00  0.00     0.221 C 
HETATM   14  C21 UNL     1      20.209   1.076  51.903  1.00  0.00     0.068 C 
ENDROOT
BRANCH   5  15
HETATM   15  N1  UNL     1      26.519   2.644  52.979  1.00  0.00    -0.340 N 
HETATM   16  H10 UNL     1      26.116   3.321  53.657  1.00  0.00     0.167 HD
BRANCH  15  17
HETATM   17  C10 UNL     1      27.420   1.534  53.171  1.00  0.00     0.035 A 
HETATM   18  C11 UNL     1      28.614   1.938  53.722  1.00  0.00     0.029 A 
HETATM   19  C12 UNL     1      29.533   0.899  53.944  1.00  0.00     0.004 A 
HETATM   20  C13 UNL     1      29.187  -0.399  53.610  1.00  0.00     0.019 A 
HETATM   21  C14 UNL     1      27.955  -0.753  53.051  1.00  0.00     0.013 A 
HETATM   22 BR1  UNL     1      27.341  -2.475  52.550  1.00  0.00    -0.051 Br
HETATM   23  C15 UNL     1      27.013   0.284  52.816  1.00  0.00     0.048 A 
ENDBRANCH  15  17
ENDBRANCH   5  15
BRANCH   1  24
HETATM   24  C4  UNL     1      21.281   0.161  53.698  1.00  0.00     0.003 C 
BRANCH  24  25
HETATM   25  C3  UNL     1      21.743  -0.849  54.691  1.00  0.00    -0.004 C 
HETATM   26  C2  UNL     1      22.746  -1.468  55.343  1.00  0.00    -0.031 C 
HETATM   27  C1  UNL     1      24.105  -0.996  54.975  1.00  0.00     0.036 C 
ENDBRANCH  24  25
ENDBRANCH   1  24
TORSDOF 4
ENDMDL
MODEL 2
REMARK VINA RESULT:      -8.6      3.065      5.969
REMARK  4 active torsions:
REMARK  status: ('A' for Active; 'I' for Inactive)
REMARK    1  A    between atoms: C3_3  and  C4_4 
REMARK    2  A    between atoms: C4_4  and  C5_5 
REMARK    3  A    between atoms: C9_9  and  N1_10 
REMARK    4  A    between atoms: N1_10  and  C10_11 
ROOT
HETATM    1  C5  UNL     1      26.691   0.789  54.358  1.00  0.00    -0.074 C 
HETATM    2  C6  UNL     1      26.555   1.857  53.468  1.00  0.00     0.062 C 
HETATM    3  C7  UNL     1      26.055   2.271  52.286  1.00  0.00    -0.005 C 
HETATM    4  C8  UNL     1      25.367   2.515  51.246  1.00  0.00     0.032 A 
HETATM    5  C9  UNL     1      25.340   3.163  50.054  1.00  0.00     0.141 A 
HETATM    6  N2  UNL     1      24.296   3.275  49.206  1.00  0.00    -0.224 NA
HETATM    7  C16 UNL     1      23.116   2.744  49.430  1.00  0.00     0.235 A 
HETATM    8  N3  UNL     1      22.945   2.034  50.598  1.00  0.00    -0.245 NA
HETATM    9  C17 UNL     1      24.037   1.960  51.404  1.00  0.00     0.060 A 
HETATM   10  C18 UNL     1      23.459   1.013  52.211  1.00  0.00     0.106 C 
HETATM   11  C19 UNL     1      23.081  -0.012  53.160  1.00  0.00     0.159 C 
HETATM   12  N4  UNL     1      23.892  -0.537  53.943  1.00  0.00    -0.464 NA
HETATM   13  C20 UNL     1      24.895  -0.930  54.650  1.00  0.00     0.221 C 
HETATM   14  C21 UNL     1      25.896   0.004  55.273  1.00  0.00     0.068 C 
ENDROOT
BRANCH   5  15
HETATM   15  N1  UNL     1      26.668   3.713  49.881  1.00  0.00    -0.340 N 
HETATM   16  H10 UNL     1      27.389   3.029  50.184  1.00  0.00     0.167 HD
BRANCH  15  17
HETATM   17  C10 UNL     1      26.795   5.044  49.340  1.00  0.00     0.035 A 
HETATM   18  C11 UNL     1      27.897   5.158  48.525  1.00  0.00     0.029 A 
HETATM   19  C12 UNL     1      28.071   6.432  47.957  1.00  0.00     0.004 A 
HETATM   20  C13 UNL     1      27.161   7.434  48.244  1.00  0.00     0.019 A 
HETATM   21  C14 UNL     1      26.055   7.262  49.083  1.00  0.00     0.013 A 
HETATM   22 BR1  UNL     1      24.731   8.530  49.562  1.00  0.00    -0.051 Br
HETATM   23  C15 UNL     1      25.864   5.982  49.668  1.00  0.00     0.048 A 
ENDBRANCH  15  17
ENDBRANCH   5  15
BRANCH   1  24
HETATM   24  C4  UNL     1      28.008   0.424  54.518  1.00  0.00     0.003 C 
BRANCH  24  25
HETATM   25  C3  UNL     1      29.313  -0.198  54.155  1.00  0.00    -0.004 C 
HETATM   26  C2  UNL     1      30.009  -1.234  53.649  1.00  0.00    -0.031 C 
HETATM   27  C1  UNL     1      29.174  -2.376  53.196  1.00  0.00     0.036 C 
ENDBRANCH  24  25
ENDBRANCH   1  24
TORSDOF 4
ENDMDL
MODEL 3
REMARK VINA RESULT:      -8.5      2.970      5.393
REMARK  4 active torsions:
REMARK  status: ('A' for Active; 'I' for Inactive)
REMARK    1  A    between atoms: C3_3  and  C4_4 
REMARK    2  A    between atoms: C4_4  and  C5_5 
REMARK    3  A    between atoms: C9_9  and  N1_10 
REMARK    4  A    between atoms: N1_10  and  C10_11 
ROOT
HETATM    1  C5  UNL     1      21.856  -0.475  52.994  1.00  0.00    -0.074 C 
HETATM    2  C6  UNL     1      22.806   0.069  52.127  1.00  0.00     0.062 C 
HETATM    3  C7  UNL     1      23.935   0.799  52.020  1.00  0.00    -0.005 C 
HETATM    4  C8  UNL     1      25.076   1.344  52.137  1.00  0.00     0.032 A 
HETATM    5  C9  UNL     1      25.929   2.267  51.624  1.00  0.00     0.141 A 
HETATM    6  N2  UNL     1      27.205   2.499  51.997  1.00  0.00    -0.224 NA
HETATM    7  C16 UNL     1      27.818   1.836  52.950  1.00  0.00     0.235 A 
HETATM    8  N3  UNL     1      27.108   0.850  53.602  1.00  0.00    -0.245 NA
HETATM    9  C17 UNL     1      25.830   0.671  53.177  1.00  0.00     0.060 A 
HETATM   10  C18 UNL     1      25.525  -0.152  54.231  1.00  0.00     0.106 C 
HETATM   11  C19 UNL     1      24.966  -0.995  55.267  1.00  0.00     0.159 C 
HETATM   12  N4  UNL     1      23.746  -1.215  55.369  1.00  0.00    -0.464 NA
HETATM   13  C20 UNL     1      22.464  -1.299  55.278  1.00  0.00     0.221 C 
HETATM   14  C21 UNL     1      21.731  -1.520  53.983  1.00  0.00     0.068 C 
ENDROOT
BRANCH   5  15
HETATM   15  N1  UNL     1      25.183   2.953  50.590  1.00  0.00    -0.340 N 
HETATM   16  H10 UNL     1      24.285   2.464  50.403  1.00  0.00     0.167 HD
BRANCH  15  17
HETATM   17  C10 UNL     1      25.751   4.144  50.009  1.00  0.00     0.035 A 
HETATM   18  C11 UNL     1      26.844   3.854  49.225  1.00  0.00     0.029 A 
HETATM   19  C12 UNL     1      27.439   4.975  48.621  1.00  0.00     0.004 A 
HETATM   20  C13 UNL     1      26.906   6.232  48.845  1.00  0.00     0.019 A 
HETATM   21  C14 UNL     1      25.790   6.469  49.655  1.00  0.00     0.013 A 
HETATM   22 BR1  UNL     1      24.950   8.121  50.050  1.00  0.00    -0.051 Br
HETATM   23  C15 UNL     1      25.177   5.349  50.277  1.00  0.00     0.048 A 
ENDBRANCH  15  17
ENDBRANCH   5  15
BRANCH   1  24
HETATM   24  C4  UNL     1      20.605   0.059  52.779  1.00  0.00     0.003 C 
BRANCH  24  25
HETATM   25  C3  UNL     1      19.170   0.072  52.381  1.00  0.00    -0.004 C 
HETATM   26  C2  UNL     1      17.945  -0.488  52.417  1.00  0.00    -0.031 C 
HETATM   27  C1  UNL     1      17.862  -1.737  53.216  1.00  0.00     0.036 C 
ENDBRANCH  24  25
ENDBRANCH   1  24
TORSDOF 4
ENDMDL
MODEL 4
REMARK VINA RESULT:      -8.4      3.546      7.262
REMARK  4 active torsions:
REMARK  status: ('A' for Active; 'I' for Inactive)
REMARK    1  A    between atoms: C3_3  and  C4_4 
REMARK    2  A    between atoms: C4_4  and  C5_5 
REMARK    3  A    between atoms: C9_9  and  N1_10 
REMARK    4  A    between atoms: N1_10  and  C10_11 
ROOT
HETATM    1  C5  UNL     1      28.510   5.906  48.230  1.00  0.00    -0.074 C 
HETATM    2  C6  UNL     1      27.452   5.034  48.493  1.00  0.00     0.062 C 
HETATM    3  C7  UNL     1      26.496   4.667  49.371  1.00  0.00    -0.005 C 
HETATM    4  C8  UNL     1      25.565   4.590  50.232  1.00  0.00     0.032 A 
HETATM    5  C9  UNL     1      24.776   3.750  50.948  1.00  0.00     0.141 A 
HETATM    6  N2  UNL     1      23.743   4.081  51.750  1.00  0.00    -0.224 NA
HETATM    7  C16 UNL     1      23.348   5.317  51.957  1.00  0.00     0.235 A 
HETATM    8  N3  UNL     1      24.035   6.324  51.315  1.00  0.00    -0.245 NA
HETATM    9  C17 UNL     1      25.065   5.919  50.525  1.00  0.00     0.060 A 
HETATM   10  C18 UNL     1      25.529   7.200  50.360  1.00  0.00     0.106 C 
HETATM   11  C19 UNL     1      26.222   8.440  50.086  1.00  0.00     0.159 C 
HETATM   12  N4  UNL     1      27.352   8.480  49.570  1.00  0.00    -0.464 NA
HETATM   13  C20 UNL     1      28.505   8.278  49.033  1.00  0.00     0.221 C 
HETATM   14  C21 UNL     1      28.747   7.296  47.918  1.00  0.00     0.068 C 
ENDROOT
BRANCH   5  15
HETATM   15  N1  UNL     1      25.274   2.419  50.671  1.00  0.00    -0.340 N 
HETATM   16  H10 UNL     1      25.275   2.236  49.648  1.00  0.00     0.167 HD
BRANCH  15  17
HETATM   17  C10 UNL     1      25.678   1.593  51.782  1.00  0.00     0.035 A 
HETATM   18  C11 UNL     1      24.625   0.860  52.279  1.00  0.00     0.029 A 
HETATM   19  C12 UNL     1      24.957   0.026  53.360  1.00  0.00     0.004 A 
HETATM   20  C13 UNL     1      26.260  -0.002  53.823  1.00  0.00     0.019 A 
HETATM   21  C14 UNL     1      27.294   0.767  53.278  1.00  0.00     0.013 A 
HETATM   22 BR1  UNL     1      29.115   0.832  53.800  1.00  0.00    -0.051 Br
HETATM   23  C15 UNL     1      26.977   1.620  52.187  1.00  0.00     0.048 A 
ENDBRANCH  15  17
ENDBRANCH   5  15
BRANCH   1  24
HETATM   24  C4  UNL     1      29.707   5.235  48.114  1.00  0.00     0.003 C 
BRANCH  24  25
HETATM   25  C3  UNL     1      31.147   5.047  47.784  1.00  0.00    -0.004 C 
HETATM   26  C2  UNL     1      32.133   4.299  47.252  1.00  0.00    -0.031 C 
HETATM   27  C1  UNL     1      31.685   3.002  46.684  1.00  0.00     0.036 C 
ENDBRANCH  24  25
ENDBRANCH   1  24
TORSDOF 4
ENDMDL
MODEL 5
REMARK VINA RESULT:      -8.3      2.886      5.942
REMARK  4 active torsions:
REMARK  status: ('A' for Active; 'I' for Inactive)
REMARK    1  A    between atoms: C3_3  and  C4_4 
REMARK    2  A    between atoms: C4_4  and  C5_5 
REMARK    3  A    between atoms: C9_9  and  N1_10 
REMARK    4  A    between atoms: N1_10  and  C10_11 
ROOT
HETATM    1  C5  UNL     1      25.066  -0.335  53.736  1.00  0.00    -0.074 C 
HETATM    2  C6  UNL     1      24.651   0.721  52.922  1.00  0.00     0.062 C 
HETATM    3  C7  UNL     1      23.654   1.226  52.166  1.00  0.00    -0.005 C 
HETATM    4  C8  UNL     1      22.557   1.614  51.657  1.00  0.00     0.032 A 
HETATM    5  C9  UNL     1      21.976   2.231  50.598  1.00  0.00     0.141 A 
HETATM    6  N2  UNL     1      20.679   2.579  50.463  1.00  0.00    -0.224 NA
HETATM    7  C16 UNL     1      19.765   2.352  51.378  1.00  0.00     0.235 A 
HETATM    8  N3  UNL     1      20.162   1.722  52.537  1.00  0.00    -0.245 NA
HETATM    9  C17 UNL     1      21.481   1.399  52.605  1.00  0.00     0.060 A 
HETATM   10  C18 UNL     1      21.302   0.631  53.728  1.00  0.00     0.106 C 
HETATM   11  C19 UNL     1      21.349  -0.258  54.869  1.00  0.00     0.159 C 
HETATM   12  N4  UNL     1      22.345  -0.952  55.142  1.00  0.00    -0.464 NA
HETATM   13  C20 UNL     1      23.474  -1.565  55.226  1.00  0.00     0.221 C 
HETATM   14  C21 UNL     1      24.807  -0.891  55.044  1.00  0.00     0.068 C 
ENDROOT
BRANCH   5  15
HETATM   15  N1  UNL     1      23.041   2.442  49.640  1.00  0.00    -0.340 N 
HETATM   16  H10 UNL     1      23.081   1.656  48.961  1.00  0.00     0.167 HD
BRANCH  15  17
HETATM   17  C10 UNL     1      23.838   3.638  49.751  1.00  0.00     0.035 A 
HETATM   18  C11 UNL     1      25.169   3.386  49.514  1.00  0.00     0.029 A 
HETATM   19  C12 UNL     1      25.999   4.516  49.598  1.00  0.00     0.004 A 
HETATM   20  C13 UNL     1      25.444   5.748  49.897  1.00  0.00     0.019 A 
HETATM   21  C14 UNL     1      24.079   5.947  50.130  1.00  0.00     0.013 A 
HETATM   22 BR1  UNL     1      23.178   7.563  50.543  1.00  0.00    -0.051 Br
HETATM   23  C15 UNL     1      23.224   4.816  50.053  1.00  0.00     0.048 A 
ENDBRANCH  15  17
ENDBRANCH   5  15
BRANCH   1  24
HETATM   24  C4  UNL     1      26.139  -1.005  53.194  1.00  0.00     0.003 C 
BRANCH  24  25
HETATM   25  C3  UNL     1      27.557  -1.446  53.063  1.00  0.00    -0.004 C 
HETATM   26  C2  UNL     1      28.869  -1.225  53.268  1.00  0.00    -0.031 C 
HETATM   27  C1  UNL     1      29.180   0.055  53.954  1.00  0.00     0.036 C 
ENDBRANCH  24  25
ENDBRANCH   1  24
TORSDOF 4
ENDMDL
MODEL 6
REMARK VINA RESULT:      -8.2      3.002      6.065
REMARK  4 active torsions:
REMARK  status: ('A' for Active; 'I' for Inactive)
REMARK    1  A    between atoms: C3_3  and  C4_4 
REMARK    2  A    between atoms: C4_4  and  C5_5 
REMARK    3  A    between atoms: C9_9  and  N1_10 
REMARK    4  A    between atoms: N1_10  and  C10_11 
ROOT
HETATM    1  C5  UNL     1      26.183   1.302  53.989  1.00  0.00    -0.074 C 
HETATM    2  C6  UNL     1      25.463   2.492  53.868  1.00  0.00     0.062 C 
HETATM    3  C7  UNL     1      24.497   3.152  53.198  1.00  0.00    -0.005 C 
HETATM    4  C8  UNL     1      23.457   3.535  52.576  1.00  0.00     0.032 A 
HETATM    5  C9  UNL     1      22.848   4.580  51.960  1.00  0.00     0.141 A 
HETATM    6  N2  UNL     1      21.590   4.623  51.474  1.00  0.00    -0.224 NA
HETATM    7  C16 UNL     1      20.752   3.614  51.530  1.00  0.00     0.235 A 
HETATM    8  N3  UNL     1      21.192   2.449  52.121  1.00  0.00    -0.245 NA
HETATM    9  C17 UNL     1      22.469   2.475  52.588  1.00  0.00     0.060 A 
HETATM   10  C18 UNL     1      22.485   1.121  52.807  1.00  0.00     0.106 C 
HETATM   11  C19 UNL     1      22.751  -0.277  53.073  1.00  0.00     0.159 C 
HETATM   12  N4  UNL     1      23.892  -0.712  53.311  1.00  0.00    -0.464 NA
HETATM   13  C20 UNL     1      25.142  -0.929  53.532  1.00  0.00     0.221 C 
HETATM   14  C21 UNL     1      25.997  -0.065  54.419  1.00  0.00     0.068 C 
ENDROOT
BRANCH   5  15
HETATM   15  N1  UNL     1      23.831   5.642  51.934  1.00  0.00    -0.340 N 
HETATM   16  H10 UNL     1      24.007   6.000  52.894  1.00  0.00     0.167 HD
BRANCH  15  17
HETATM   17  C10 UNL     1      24.396   6.024  50.663  1.00  0.00     0.035 A 
HETATM   18  C11 UNL     1      23.595   6.926  50.003  1.00  0.00     0.029 A 
HETATM   19  C12 UNL     1      24.095   7.346  48.758  1.00  0.00     0.004 A 
HETATM   20  C13 UNL     1      25.305   6.846  48.309  1.00  0.00     0.019 A 
HETATM   21  C14 UNL     1      26.080   5.927  49.024  1.00  0.00     0.013 A 
HETATM   22 BR1  UNL     1      27.746   5.163  48.542  1.00  0.00    -0.051 Br
HETATM   23  C15 UNL     1      25.589   5.489  50.282  1.00  0.00     0.048 A 
ENDBRANCH  15  17
ENDBRANCH   5  15
BRANCH   1  24
HETATM   24  C4  UNL     1      27.523   1.488  53.732  1.00  0.00     0.003 C 
BRANCH  24  25
HETATM   25  C3  UNL     1      28.943   1.098  53.510  1.00  0.00    -0.004 C 
HETATM   26  C2  UNL     1      29.884   0.142  53.390  1.00  0.00    -0.031 C 
HETATM   27  C1  UNL     1      29.374  -1.246  53.528  1.00  0.00     0.036 C 
ENDBRANCH  24  25
ENDBRANCH   1  24
TORSDOF 4
ENDMDL
MODEL 7
REMARK VINA RESULT:      -8.2      2.503      5.065
REMARK  4 active torsions:
REMARK  status: ('A' for Active; 'I' for Inactive)
REMARK    1  A    between atoms: C3_3  and  C4_4 
REMARK    2  A    between atoms: C4_4  and  C5_5 
REMARK    3  A    between atoms: C9_9  and  N1_10 
REMARK    4  A    between atoms: N1_10  and  C10_11 
ROOT
HETATM    1  C5  UNL     1      19.940   0.958  50.206  1.00  0.00    -0.074 C 
HETATM    2  C6  UNL     1      21.167   0.465  50.655  1.00  0.00     0.062 C 
HETATM    3  C7  UNL     1      21.930   0.172  51.728  1.00  0.00    -0.005 C 
HETATM    4  C8  UNL     1      22.416  -0.200  52.841  1.00  0.00     0.032 A 
HETATM    5  C9  UNL     1      23.540  -0.276  53.597  1.00  0.00     0.141 A 
HETATM    6  N2  UNL     1      23.685  -0.889  54.790  1.00  0.00    -0.224 NA
HETATM    7  C16 UNL     1      22.712  -1.519  55.409  1.00  0.00     0.235 A 
HETATM    8  N3  UNL     1      21.478  -1.548  54.796  1.00  0.00    -0.245 NA
HETATM    9  C17 UNL     1      21.403  -0.909  53.598  1.00  0.00     0.060 A 
HETATM   10  C18 UNL     1      20.035  -1.000  53.561  1.00  0.00     0.106 C 
HETATM   11  C19 UNL     1      18.608  -0.934  53.328  1.00  0.00     0.159 C 
HETATM   12  N4  UNL     1      18.103  -0.230  52.436  1.00  0.00    -0.464 NA
HETATM   13  C20 UNL     1      17.812   0.561  51.462  1.00  0.00     0.221 C 
HETATM   14  C21 UNL     1      18.548   0.577  50.150  1.00  0.00     0.068 C 
ENDROOT
BRANCH   5  15
HETATM   15  N1  UNL     1      24.557   0.438  52.854  1.00  0.00    -0.340 N 
HETATM   16  H10 UNL     1      24.125   1.175  52.261  1.00  0.00     0.167 HD
BRANCH  15  17
HETATM   17  C10 UNL     1      25.936   0.057  53.036  1.00  0.00     0.035 A 
HETATM   18  C11 UNL     1      26.166  -1.232  52.612  1.00  0.00     0.029 A 
HETATM   19  C12 UNL     1      27.496  -1.662  52.755  1.00  0.00     0.004 A 
HETATM   20  C13 UNL     1      28.438  -0.796  53.283  1.00  0.00     0.019 A 
HETATM   21  C14 UNL     1      28.146   0.507  53.699  1.00  0.00     0.013 A 
HETATM   22 BR1  UNL     1      29.323   1.800  54.433  1.00  0.00    -0.051 Br
HETATM   23  C15 UNL     1      26.807   0.959  53.566  1.00  0.00     0.048 A 
ENDBRANCH  15  17
ENDBRANCH   5  15
BRANCH   1  24
HETATM   24  C4  UNL     1      20.092   2.121  49.484  1.00  0.00     0.003 C 
BRANCH  24  25
HETATM   25  C3  UNL     1      20.762   3.366  49.015  1.00  0.00    -0.004 C 
HETATM   26  C2  UNL     1      21.890   4.060  48.768  1.00  0.00    -0.031 C 
HETATM   27  C1  UNL     1      23.145   3.329  49.078  1.00  0.00     0.036 C 
ENDBRANCH  24  25
ENDBRANCH   1  24
TORSDOF 4
ENDMDL
MODEL 8
REMARK VINA RESULT:      -8.0      2.949      5.309
REMARK  4 active torsions:
REMARK  status: ('A' for Active; 'I' for Inactive)
REMARK    1  A    between atoms: C3_3  and  C4_4 
REMARK    2  A    between atoms: C4_4  and  C5_5 
REMARK    3  A    between atoms: C9_9  and  N1_10 
REMARK    4  A    between atoms: N1_10  and  C10_11 
ROOT
HETATM    1  C5  UNL     1      24.392   0.235  53.226  1.00  0.00    -0.074 C 
HETATM    2  C6  UNL     1      24.597   1.445  52.559  1.00  0.00     0.062 C 
HETATM    3  C7  UNL     1      24.348   2.165  51.446  1.00  0.00    -0.005 C 
HETATM    4  C8  UNL     1      23.863   2.740  50.422  1.00  0.00     0.032 A 
HETATM    5  C9  UNL     1      24.123   3.576  49.386  1.00  0.00     0.141 A 
HETATM    6  N2  UNL     1      23.241   4.072  48.493  1.00  0.00    -0.224 NA
HETATM    7  C16 UNL     1      21.957   3.797  48.507  1.00  0.00     0.235 A 
HETATM    8  N3  UNL     1      21.494   2.951  49.492  1.00  0.00    -0.245 NA
HETATM    9  C17 UNL     1      22.437   2.487  50.355  1.00  0.00     0.060 A 
HETATM   10  C18 UNL     1      21.576   1.572  50.906  1.00  0.00     0.106 C 
HETATM   11  C19 UNL     1      20.874   0.511  51.596  1.00  0.00     0.159 C 
HETATM   12  N4  UNL     1      21.452  -0.316  52.324  1.00  0.00    -0.464 NA
HETATM   13  C20 UNL     1      22.252  -1.048  53.019  1.00  0.00     0.221 C 
HETATM   14  C21 UNL     1      23.341  -0.494  53.897  1.00  0.00     0.068 C 
ENDROOT
BRANCH   5  15
HETATM   15  N1  UNL     1      25.548   3.826  49.437  1.00  0.00    -0.340 N 
HETATM   16  H10 UNL     1      26.073   2.932  49.499  1.00  0.00     0.167 HD
BRANCH  15  17
HETATM   17  C10 UNL     1      26.006   5.193  49.389  1.00  0.00     0.035 A 
HETATM   18  C11 UNL     1      25.291   5.999  50.245  1.00  0.00     0.029 A 
HETATM   19  C12 UNL     1      25.697   7.344  50.252  1.00  0.00     0.004 A 
HETATM   20  C13 UNL     1      26.742   7.744  49.438  1.00  0.00     0.019 A 
HETATM   21  C14 UNL     1      27.436   6.879  48.585  1.00  0.00     0.013 A 
HETATM   22 BR1  UNL     1      28.879   7.277  47.424  1.00  0.00    -0.051 Br
HETATM   23  C15 UNL     1      27.038   5.516  48.561  1.00  0.00     0.048 A 
ENDBRANCH  15  17
ENDBRANCH   5  15
BRANCH   1  24
HETATM   24  C4  UNL     1      25.572  -0.446  53.419  1.00  0.00     0.003 C 
BRANCH  24  25
HETATM   25  C3  UNL     1      26.900  -1.018  53.060  1.00  0.00    -0.004 C 
HETATM   26  C2  UNL     1      28.240  -1.032  53.201  1.00  0.00    -0.031 C 
HETATM   27  C1  UNL     1      28.770  -0.029  54.158  1.00  0.00     0.036 C 
ENDBRANCH  24  25
ENDBRANCH   1  24
TORSDOF 4
ENDMDL
MODEL 9
REMARK VINA RESULT:      -7.8      4.184      8.477
REMARK  4 active torsions:
REMARK  status: ('A' for Active; 'I' for Inactive)
REMARK    1  A    between atoms: C3_3  and  C4_4 
REMARK    2  A    between atoms: C4_4  and  C5_5 
REMARK    3  A    between atoms: C9_9  and  N1_10 
REMARK    4  A    between atoms: N1_10  and  C10_11 
ROOT
HETATM    1  C5  UNL     1      29.064   6.440  48.085  1.00  0.00    -0.074 C 
HETATM    2  C6  UNL     1      27.808   5.832  48.150  1.00  0.00     0.062 C 
HETATM    3  C7  UNL     1      26.698   5.635  48.890  1.00  0.00    -0.005 C 
HETATM    4  C8  UNL     1      25.680   5.713  49.647  1.00  0.00     0.032 A 
HETATM    5  C9  UNL     1      24.640   5.032  50.189  1.00  0.00     0.141 A 
HETATM    6  N2  UNL     1      23.626   5.534  50.924  1.00  0.00    -0.224 NA
HETATM    7  C16 UNL     1      23.508   6.806  51.230  1.00  0.00     0.235 A 
HETATM    8  N3  UNL     1      24.481   7.667  50.770  1.00  0.00    -0.245 NA
HETATM    9  C17 UNL     1      25.473   7.093  50.038  1.00  0.00     0.060 A 
HETATM   10  C18 UNL     1      26.237   8.232  50.060  1.00  0.00     0.106 C 
HETATM   11  C19 UNL     1      27.227   9.286  49.991  1.00  0.00     0.159 C 
HETATM   12  N4  UNL     1      28.388   9.094  49.589  1.00  0.00    -0.464 NA
HETATM   13  C20 UNL     1      29.516   8.664  49.142  1.00  0.00     0.221 C 
HETATM   14  C21 UNL     1      29.652   7.752  47.952  1.00  0.00     0.068 C 
ENDROOT
BRANCH   5  15
HETATM   15  N1  UNL     1      24.843   3.648  49.814  1.00  0.00    -0.340 N 
HETATM   16  H10 UNL     1      25.821   3.497  49.495  1.00  0.00     0.167 HD
BRANCH  15  17
HETATM   17  C10 UNL     1      23.734   2.734  49.933  1.00  0.00     0.035 A 
HETATM   18  C11 UNL     1      22.966   2.716  48.792  1.00  0.00     0.029 A 
HETATM   19  C12 UNL     1      21.872   1.836  48.842  1.00  0.00     0.004 A 
HETATM   20  C13 UNL     1      21.657   1.082  49.983  1.00  0.00     0.019 A 
HETATM   21  C14 UNL     1      22.472   1.142  51.118  1.00  0.00     0.013 A 
HETATM   22 BR1  UNL     1      22.307   0.175  52.739  1.00  0.00    -0.051 Br
HETATM   23  C15 UNL     1      23.581   2.028  51.087  1.00  0.00     0.048 A 
ENDBRANCH  15  17
ENDBRANCH   5  15
BRANCH   1  24
HETATM   24  C4  UNL     1      30.076   5.511  48.006  1.00  0.00     0.003 C 
BRANCH  24  25
HETATM   25  C3  UNL     1      31.478   5.014  47.913  1.00  0.00    -0.004 C 
HETATM   26  C2  UNL     1      32.797   5.206  48.106  1.00  0.00    -0.031 C 
HETATM   27  C1  UNL     1      33.149   6.522  48.696  1.00  0.00     0.036 C 
ENDBRANCH  24  25
ENDBRANCH   1  24
TORSDOF 4
ENDMDL
