MODEL 1
REMARK VINA RESULT:      -7.9      0.000      0.000
REMARK  6 active torsions:
REMARK  status: ('A' for Active; 'I' for Inactive)
REMARK    1  A    between atoms: C2_2  and  C3_4 
REMARK    2  A    between atoms: C5_6  and  N1_8 
REMARK    3  A    between atoms: N1_8  and  C6_9 
REMARK    4  A    between atoms: C6_9  and  C7_10 
REMARK    5  A    between atoms: C7_10  and  N2_11 
REMARK    6  A    between atoms: C16_24  and  C17_25 
ROOT
HETATM    1  C3  UNL     1      23.918   1.431  52.378  1.00  0.00     0.192 A 
HETATM    2  C4  UNL     1      24.573   2.626  52.381  1.00  0.00     0.115 A 
HETATM    3  C5  UNL     1      23.253   3.030  52.399  1.00  0.00     0.225 A 
HETATM    4  O1  UNL     1      22.161   3.557  52.421  1.00  0.00    -0.273 OA
HETATM    5  N4  UNL     1      25.958   2.873  52.468  1.00  0.00    -0.361 N 
HETATM    6  C13 UNL     1      26.941   2.052  51.756  1.00  0.00     0.109 C 
HETATM    7  C14 UNL     1      27.780   1.794  52.783  1.00  0.00     0.158 C 
HETATM    8  N5  UNL     1      27.171   2.482  53.941  1.00  0.00    -0.159 NA
HETATM    9  N6  UNL     1      26.124   1.775  54.383  1.00  0.00    -0.133 NA
HETATM   10  C15 UNL     1      26.032   0.584  53.507  1.00  0.00     0.143 C 
HETATM   11  C16 UNL     1      26.936  -0.437  53.612  1.00  0.00     0.025 C 
HETATM   12  N7  UNL     1      25.055   0.595  52.435  1.00  0.00    -0.347 N 
HETATM   13  H19 UNL     1      25.966   3.691  53.069  1.00  0.00     0.165 HD
HETATM   14  H28 UNL     1      25.077   0.027  51.590  1.00  0.00     0.163 HD
ENDROOT
BRANCH   3  15
HETATM   15  N1  UNL     1      23.487   4.548  52.527  1.00  0.00    -0.359 N 
HETATM   16  H3  UNL     1      23.687   5.239  53.359  1.00  0.00     0.162 HD
BRANCH  15  17
HETATM   17  C6  UNL     1      23.438   5.244  51.215  1.00  0.00     0.142 C 
BRANCH  17  18
HETATM   18  C7  UNL     1      24.253   6.529  51.349  1.00  0.00     0.136 C 
BRANCH  18  19
HETATM   19  N2  UNL     1      25.194   6.674  50.312  1.00  0.00    -0.408 N 
HETATM   20  C8  UNL     1      25.616   5.476  49.767  1.00  0.00     0.147 C 
HETATM   21  C9  UNL     1      26.853   5.509  48.877  1.00  0.00     0.291 C 
HETATM   22  N3  UNL     1      27.085   6.808  48.346  1.00  0.00     0.087 N 
HETATM   23  C10 UNL     1      28.379   6.866  47.674  1.00  0.00     0.310 C 
HETATM   24  C11 UNL     1      27.085   7.850  49.310  1.00  0.00     0.291 C 
HETATM   25  C12 UNL     1      25.710   7.931  49.978  1.00  0.00     0.147 C 
ENDBRANCH  18  19
ENDBRANCH  17  18
ENDBRANCH  15  17
ENDBRANCH   3  15
BRANCH   1  26
HETATM   26  C2  UNL     1      22.659   0.625  52.358  1.00  0.00     0.034 C 
HETATM   27  C1  UNL     1      22.279  -0.249  53.383  1.00  0.00     0.055 C 
HETATM   28 CL1  UNL     1      21.524   0.427  50.991  1.00  0.00    -0.090 Cl
ENDBRANCH   1  26
BRANCH  11  29
HETATM   29  C17 UNL     1      26.812  -1.584  52.741  1.00  0.00     0.026 C 
HETATM   30  C18 UNL     1      28.028  -2.488  52.816  1.00  0.00     0.009 C 
ENDBRANCH  11  29
TORSDOF 6
ENDMDL
MODEL 2
REMARK VINA RESULT:      -7.4      1.983      2.598
REMARK  6 active torsions:
REMARK  status: ('A' for Active; 'I' for Inactive)
REMARK    1  A    between atoms: C2_2  and  C3_4 
REMARK    2  A    between atoms: C5_6  and  N1_8 
REMARK    3  A    between atoms: N1_8  and  C6_9 
REMARK    4  A    between atoms: C6_9  and  C7_10 
REMARK    5  A    between atoms: C7_10  and  N2_11 
REMARK    6  A    between atoms: C16_24  and  C17_25 
ROOT
HETATM    1  C3  UNL     1      24.103   1.456  52.444  1.00  0.00     0.192 A 
HETATM    2  C4  UNL     1      24.787   2.633  52.517  1.00  0.00     0.115 A 
HETATM    3  C5  UNL     1      23.478   3.070  52.524  1.00  0.00     0.225 A 
HETATM    4  O1  UNL     1      22.399   3.625  52.547  1.00  0.00    -0.273 OA
HETATM    5  N4  UNL     1      26.176   2.839  52.645  1.00  0.00    -0.361 N 
HETATM    6  C13 UNL     1      27.153   2.025  51.917  1.00  0.00     0.109 C 
HETATM    7  C14 UNL     1      27.962   1.699  52.949  1.00  0.00     0.158 C 
HETATM    8  N5  UNL     1      27.344   2.349  54.124  1.00  0.00    -0.159 NA
HETATM    9  N6  UNL     1      26.270   1.650  54.510  1.00  0.00    -0.133 NA
HETATM   10  C15 UNL     1      26.168   0.504  53.578  1.00  0.00     0.143 C 
HETATM   11  C16 UNL     1      27.043  -0.544  53.656  1.00  0.00     0.025 C 
HETATM   12  N7  UNL     1      25.216   0.590  52.487  1.00  0.00    -0.347 N 
HETATM   13  H19 UNL     1      26.191   3.628  53.283  1.00  0.00     0.165 HD
HETATM   14  H28 UNL     1      25.243   0.060  51.618  1.00  0.00     0.163 HD
ENDROOT
BRANCH   3  15
HETATM   15  N1  UNL     1      23.748   4.574  52.727  1.00  0.00    -0.359 N 
HETATM   16  H3  UNL     1      24.339   5.171  53.436  1.00  0.00     0.162 HD
BRANCH  15  17
HETATM   17  C6  UNL     1      23.048   5.419  51.724  1.00  0.00     0.142 C 
BRANCH  17  18
HETATM   18  C7  UNL     1      24.044   5.716  50.604  1.00  0.00     0.136 C 
BRANCH  18  19
HETATM   19  N2  UNL     1      23.540   5.364  49.338  1.00  0.00    -0.408 N 
HETATM   20  C8  UNL     1      23.533   6.405  48.429  1.00  0.00     0.147 C 
HETATM   21  C9  UNL     1      22.720   6.217  47.153  1.00  0.00     0.291 C 
HETATM   22  N3  UNL     1      22.508   4.840  46.864  1.00  0.00     0.087 N 
HETATM   23  C10 UNL     1      21.559   4.685  45.766  1.00  0.00     0.310 C 
HETATM   24  C11 UNL     1      21.997   4.079  47.948  1.00  0.00     0.291 C 
HETATM   25  C12 UNL     1      23.001   4.094  49.103  1.00  0.00     0.147 C 
ENDBRANCH  18  19
ENDBRANCH  17  18
ENDBRANCH  15  17
ENDBRANCH   3  15
BRANCH   1  26
HETATM   26  C2  UNL     1      22.824   0.686  52.360  1.00  0.00     0.034 C 
HETATM   27  C1  UNL     1      22.400  -0.227  53.332  1.00  0.00     0.055 C 
HETATM   28 CL1  UNL     1      21.713   0.585  50.962  1.00  0.00    -0.090 Cl
ENDBRANCH   1  26
BRANCH  11  29
HETATM   29  C17 UNL     1      26.909  -1.647  52.731  1.00  0.00     0.026 C 
HETATM   30  C18 UNL     1      28.084  -2.604  52.814  1.00  0.00     0.009 C 
ENDBRANCH  11  29
TORSDOF 6
ENDMDL
MODEL 3
REMARK VINA RESULT:      -7.3      2.320      4.073
REMARK  6 active torsions:
REMARK  status: ('A' for Active; 'I' for Inactive)
REMARK    1  A    between atoms: C2_2  and  C3_4 
REMARK    2  A    between atoms: C5_6  and  N1_8 
REMARK    3  A    between atoms: N1_8  and  C6_9 
REMARK    4  A    between atoms: C6_9  and  C7_10 
REMARK    5  A    between atoms: C7_10  and  N2_11 
REMARK    6  A    between atoms: C16_24  and  C17_25 
ROOT
HETATM    1  C3  UNL     1      25.143   1.389  52.829  1.00  0.00     0.192 A 
HETATM    2  C4  UNL     1      25.010   2.554  52.134  1.00  0.00     0.115 A 
HETATM    3  C5  UNL     1      26.370   2.335  52.056  1.00  0.00     0.225 A 
HETATM    4  O1  UNL     1      27.571   2.297  51.883  1.00  0.00    -0.273 OA
HETATM    5  N4  UNL     1      23.830   3.239  51.780  1.00  0.00    -0.361 N 
HETATM    6  C13 UNL     1      22.698   3.366  52.701  1.00  0.00     0.109 C 
HETATM    7  C14 UNL     1      21.708   2.968  51.873  1.00  0.00     0.158 C 
HETATM    8  N5  UNL     1      22.394   2.655  50.601  1.00  0.00    -0.159 NA
HETATM    9  N6  UNL     1      23.023   1.478  50.708  1.00  0.00    -0.133 NA
HETATM   10  C15 UNL     1      22.749   0.989  52.079  1.00  0.00     0.143 C 
HETATM   11  C16 UNL     1      21.513   0.511  52.420  1.00  0.00     0.025 C 
HETATM   12  N7  UNL     1      23.773   1.169  53.089  1.00  0.00    -0.347 N 
HETATM   13  H19 UNL     1      24.069   3.554  50.845  1.00  0.00     0.165 HD
HETATM   14  H28 UNL     1      23.633   1.181  54.098  1.00  0.00     0.163 HD
ENDROOT
BRANCH   3  15
HETATM   15  N1  UNL     1      26.731   3.517  51.133  1.00  0.00    -0.359 N 
HETATM   16  H3  UNL     1      27.123   4.532  51.284  1.00  0.00     0.162 HD
BRANCH  15  17
HETATM   17  C6  UNL     1      26.500   3.208  49.697  1.00  0.00     0.142 C 
BRANCH  17  18
HETATM   18  C7  UNL     1      25.891   4.452  49.055  1.00  0.00     0.136 C 
BRANCH  18  19
HETATM   19  N2  UNL     1      26.824   5.499  48.932  1.00  0.00    -0.408 N 
HETATM   20  C8  UNL     1      26.309   6.747  49.224  1.00  0.00     0.147 C 
HETATM   21  C9  UNL     1      27.135   7.961  48.812  1.00  0.00     0.291 C 
HETATM   22  N3  UNL     1      28.509   7.630  48.650  1.00  0.00     0.087 N 
HETATM   23  C10 UNL     1      29.241   8.745  48.058  1.00  0.00     0.310 C 
HETATM   24  C11 UNL     1      28.753   6.504  47.821  1.00  0.00     0.291 C 
HETATM   25  C12 UNL     1      28.114   5.260  48.444  1.00  0.00     0.147 C 
ENDBRANCH  18  19
ENDBRANCH  17  18
ENDBRANCH  15  17
ENDBRANCH   3  15
BRANCH   1  26
HETATM   26  C2  UNL     1      25.983   0.293  53.403  1.00  0.00     0.034 C 
HETATM   27  C1  UNL     1      26.028  -1.006  52.884  1.00  0.00     0.055 C 
HETATM   28 CL1  UNL     1      26.896   0.323  54.940  1.00  0.00    -0.090 Cl
ENDBRANCH   1  26
BRANCH  11  29
HETATM   29  C17 UNL     1      21.285   0.039  53.767  1.00  0.00     0.026 C 
HETATM   30  C18 UNL     1      21.563  -1.446  53.903  1.00  0.00     0.009 C 
ENDBRANCH  11  29
TORSDOF 6
ENDMDL
MODEL 4
REMARK VINA RESULT:      -7.2      2.169      3.420
REMARK  6 active torsions:
REMARK  status: ('A' for Active; 'I' for Inactive)
REMARK    1  A    between atoms: C2_2  and  C3_4 
REMARK    2  A    between atoms: C5_6  and  N1_8 
REMARK    3  A    between atoms: N1_8  and  C6_9 
REMARK    4  A    between atoms: C6_9  and  C7_10 
REMARK    5  A    between atoms: C7_10  and  N2_11 
REMARK    6  A    between atoms: C16_24  and  C17_25 
ROOT
HETATM    1  C3  UNL     1      24.408   2.438  50.755  1.00  0.00     0.192 A 
HETATM    2  C4  UNL     1      25.721   2.751  50.943  1.00  0.00     0.115 A 
HETATM    3  C5  UNL     1      25.317   3.748  50.078  1.00  0.00     0.225 A 
HETATM    4  O1  UNL     1      25.136   4.689  49.334  1.00  0.00    -0.273 OA
HETATM    5  N4  UNL     1      26.655   2.150  51.812  1.00  0.00    -0.361 N 
HETATM    6  C13 UNL     1      26.712   0.700  52.010  1.00  0.00     0.109 C 
HETATM    7  C14 UNL     1      26.711   0.673  53.360  1.00  0.00     0.158 C 
HETATM    8  N5  UNL     1      26.641   2.095  53.758  1.00  0.00    -0.159 NA
HETATM    9  N6  UNL     1      25.393   2.548  53.587  1.00  0.00    -0.133 NA
HETATM   10  C15 UNL     1      24.608   1.405  53.067  1.00  0.00     0.143 C 
HETATM   11  C16 UNL     1      24.261   0.363  53.883  1.00  0.00     0.025 C 
HETATM   12  N7  UNL     1      24.348   1.342  51.642  1.00  0.00    -0.347 N 
HETATM   13  H19 UNL     1      27.164   2.967  52.133  1.00  0.00     0.165 HD
HETATM   14  H28 UNL     1      24.115   0.508  51.106  1.00  0.00     0.163 HD
ENDROOT
BRANCH   3  15
HETATM   15  N1  UNL     1      26.628   4.560  50.049  1.00  0.00    -0.359 N 
HETATM   16  H3  UNL     1      27.468   4.710  50.742  1.00  0.00     0.162 HD
BRANCH  15  17
HETATM   17  C6  UNL     1      26.801   5.315  48.780  1.00  0.00     0.142 C 
BRANCH  17  18
HETATM   18  C7  UNL     1      28.290   5.298  48.439  1.00  0.00     0.136 C 
BRANCH  18  19
HETATM   19  N2  UNL     1      28.855   6.586  48.462  1.00  0.00    -0.408 N 
HETATM   20  C8  UNL     1      30.237   6.592  48.513  1.00  0.00     0.147 C 
HETATM   21  C9  UNL     1      30.920   7.908  48.865  1.00  0.00     0.291 C 
HETATM   22  N3  UNL     1      30.080   9.024  48.599  1.00  0.00     0.087 N 
HETATM   23  C10 UNL     1      30.666  10.249  49.133  1.00  0.00     0.310 C 
HETATM   24  C11 UNL     1      28.776   8.928  49.150  1.00  0.00     0.291 C 
HETATM   25  C12 UNL     1      28.048   7.727  48.542  1.00  0.00     0.147 C 
ENDBRANCH  18  19
ENDBRANCH  17  18
ENDBRANCH  15  17
ENDBRANCH   3  15
BRANCH   1  26
HETATM   26  C2  UNL     1      23.079   2.685  50.114  1.00  0.00     0.034 C 
HETATM   27  C1  UNL     1      21.928   3.042  50.825  1.00  0.00     0.055 C 
HETATM   28 CL1  UNL     1      22.625   2.374  48.413  1.00  0.00    -0.090 Cl
ENDBRANCH   1  26
BRANCH  11  29
HETATM   29  C17 UNL     1      23.491  -0.733  53.341  1.00  0.00     0.026 C 
HETATM   30  C18 UNL     1      22.049  -0.703  53.813  1.00  0.00     0.009 C 
ENDBRANCH  11  29
TORSDOF 6
ENDMDL
MODEL 5
REMARK VINA RESULT:      -7.1      2.349      4.376
REMARK  6 active torsions:
REMARK  status: ('A' for Active; 'I' for Inactive)
REMARK    1  A    between atoms: C2_2  and  C3_4 
REMARK    2  A    between atoms: C5_6  and  N1_8 
REMARK    3  A    between atoms: N1_8  and  C6_9 
REMARK    4  A    between atoms: C6_9  and  C7_10 
REMARK    5  A    between atoms: C7_10  and  N2_11 
REMARK    6  A    between atoms: C16_24  and  C17_25 
ROOT
HETATM    1  C3  UNL     1      25.170   1.321  52.896  1.00  0.00     0.192 A 
HETATM    2  C4  UNL     1      25.008   2.486  52.208  1.00  0.00     0.115 A 
HETATM    3  C5  UNL     1      26.371   2.293  52.114  1.00  0.00     0.225 A 
HETATM    4  O1  UNL     1      27.570   2.278  51.928  1.00  0.00    -0.273 OA
HETATM    5  N4  UNL     1      23.812   3.152  51.870  1.00  0.00    -0.361 N 
HETATM    6  C13 UNL     1      22.688   3.254  52.804  1.00  0.00     0.109 C 
HETATM    7  C14 UNL     1      21.696   2.842  51.984  1.00  0.00     0.158 C 
HETATM    8  N5  UNL     1      22.375   2.547  50.703  1.00  0.00    -0.159 NA
HETATM    9  N6  UNL     1      23.025   1.381  50.799  1.00  0.00    -0.133 NA
HETATM   10  C15 UNL     1      22.775   0.881  52.170  1.00  0.00     0.143 C 
HETATM   11  C16 UNL     1      21.552   0.379  52.522  1.00  0.00     0.025 C 
HETATM   12  N7  UNL     1      23.807   1.074  53.170  1.00  0.00    -0.347 N 
HETATM   13  H19 UNL     1      24.035   3.476  50.935  1.00  0.00     0.165 HD
HETATM   14  H28 UNL     1      23.677   1.080  54.180  1.00  0.00     0.163 HD
ENDROOT
BRANCH   3  15
HETATM   15  N1  UNL     1      26.701   3.485  51.193  1.00  0.00    -0.359 N 
HETATM   16  H3  UNL     1      27.195   4.458  51.324  1.00  0.00     0.162 HD
BRANCH  15  17
HETATM   17  C6  UNL     1      26.248   3.265  49.794  1.00  0.00     0.142 C 
BRANCH  17  18
HETATM   18  C7  UNL     1      26.398   4.592  49.053  1.00  0.00     0.136 C 
BRANCH  18  19
HETATM   19  N2  UNL     1      25.294   5.441  49.253  1.00  0.00    -0.408 N 
HETATM   20  C8  UNL     1      25.561   6.524  50.069  1.00  0.00     0.147 C 
HETATM   21  C9  UNL     1      24.369   7.311  50.603  1.00  0.00     0.291 C 
HETATM   22  N3  UNL     1      23.213   7.125  49.795  1.00  0.00     0.087 N 
HETATM   23  C10 UNL     1      22.039   7.712  50.433  1.00  0.00     0.310 C 
HETATM   24  C11 UNL     1      22.889   5.770  49.526  1.00  0.00     0.291 C 
HETATM   25  C12 UNL     1      24.031   5.114  48.745  1.00  0.00     0.147 C 
ENDBRANCH  18  19
ENDBRANCH  17  18
ENDBRANCH  15  17
ENDBRANCH   3  15
BRANCH   1  26
HETATM   26  C2  UNL     1      26.035   0.237  53.456  1.00  0.00     0.034 C 
HETATM   27  C1  UNL     1      26.031  -1.081  52.987  1.00  0.00     0.055 C 
HETATM   28 CL1  UNL     1      27.052   0.316  54.925  1.00  0.00    -0.090 Cl
ENDBRANCH   1  26
BRANCH  11  29
HETATM   29  C17 UNL     1      21.347  -0.104  53.869  1.00  0.00     0.026 C 
HETATM   30  C18 UNL     1      21.603  -1.595  53.983  1.00  0.00     0.009 C 
ENDBRANCH  11  29
TORSDOF 6
ENDMDL
MODEL 6
REMARK VINA RESULT:      -6.9      3.027      6.046
REMARK  6 active torsions:
REMARK  status: ('A' for Active; 'I' for Inactive)
REMARK    1  A    between atoms: C2_2  and  C3_4 
REMARK    2  A    between atoms: C5_6  and  N1_8 
REMARK    3  A    between atoms: N1_8  and  C6_9 
REMARK    4  A    between atoms: C6_9  and  C7_10 
REMARK    5  A    between atoms: C7_10  and  N2_11 
REMARK    6  A    between atoms: C16_24  and  C17_25 
ROOT
HETATM    1  C3  UNL     1      25.140   1.806  51.561  1.00  0.00     0.192 A 
HETATM    2  C4  UNL     1      23.800   2.004  51.402  1.00  0.00     0.115 A 
HETATM    3  C5  UNL     1      23.829   1.132  52.471  1.00  0.00     0.225 A 
HETATM    4  O1  UNL     1      23.670   0.382  53.411  1.00  0.00    -0.273 OA
HETATM    5  N4  UNL     1      23.137   2.884  50.522  1.00  0.00    -0.361 N 
HETATM    6  C13 UNL     1      23.586   3.088  49.142  1.00  0.00     0.109 C 
HETATM    7  C14 UNL     1      23.605   4.439  49.127  1.00  0.00     0.158 C 
HETATM    8  N5  UNL     1      23.182   4.830  50.489  1.00  0.00    -0.159 NA
HETATM    9  N6  UNL     1      24.196   4.646  51.343  1.00  0.00    -0.133 NA
HETATM   10  C15 UNL     1      25.324   4.125  50.538  1.00  0.00     0.143 C 
HETATM   11  C16 UNL     1      26.015   4.942  49.686  1.00  0.00     0.025 C 
HETATM   12  N7  UNL     1      25.580   2.698  50.559  1.00  0.00    -0.347 N 
HETATM   13  H19 UNL     1      22.379   3.206  51.114  1.00  0.00     0.165 HD
HETATM   14  H28 UNL     1      26.084   2.163  49.853  1.00  0.00     0.163 HD
ENDROOT
BRANCH   3  15
HETATM   15  N1  UNL     1      22.319   1.110  52.780  1.00  0.00    -0.359 N 
HETATM   16  H3  UNL     1      21.653   1.666  53.455  1.00  0.00     0.162 HD
BRANCH  15  17
HETATM   17  C6  UNL     1      21.587   0.103  51.968  1.00  0.00     0.142 C 
BRANCH  17  18
HETATM   18  C7  UNL     1      20.104   0.467  52.018  1.00  0.00     0.136 C 
BRANCH  18  19
HETATM   19  N2  UNL     1      19.784   1.516  51.136  1.00  0.00    -0.408 N 
HETATM   20  C8  UNL     1      19.993   1.213  49.804  1.00  0.00     0.147 C 
HETATM   21  C9  UNL     1      19.987   2.370  48.812  1.00  0.00     0.291 C 
HETATM   22  N3  UNL     1      19.283   3.496  49.322  1.00  0.00     0.087 N 
HETATM   23  C10 UNL     1      19.466   4.655  48.454  1.00  0.00     0.310 C 
HETATM   24  C11 UNL     1      19.679   3.902  50.624  1.00  0.00     0.291 C 
HETATM   25  C12 UNL     1      19.403   2.773  51.620  1.00  0.00     0.147 C 
ENDBRANCH  18  19
ENDBRANCH  17  18
ENDBRANCH  15  17
ENDBRANCH   3  15
BRANCH   1  26
HETATM   26  C2  UNL     1      26.297   1.154  52.247  1.00  0.00     0.034 C 
HETATM   27  C1  UNL     1      27.274   1.855  52.961  1.00  0.00     0.055 C 
HETATM   28 CL1  UNL     1      26.799  -0.558  52.127  1.00  0.00    -0.090 Cl
ENDBRANCH   1  26
BRANCH  11  29
HETATM   29  C17 UNL     1      27.113   4.399  48.919  1.00  0.00     0.026 C 
HETATM   30  C18 UNL     1      28.057   5.482  48.433  1.00  0.00     0.009 C 
ENDBRANCH  11  29
TORSDOF 6
ENDMDL
MODEL 7
REMARK VINA RESULT:      -6.8      3.672      7.464
REMARK  6 active torsions:
REMARK  status: ('A' for Active; 'I' for Inactive)
REMARK    1  A    between atoms: C2_2  and  C3_4 
REMARK    2  A    between atoms: C5_6  and  N1_8 
REMARK    3  A    between atoms: N1_8  and  C6_9 
REMARK    4  A    between atoms: C6_9  and  C7_10 
REMARK    5  A    between atoms: C7_10  and  N2_11 
REMARK    6  A    between atoms: C16_24  and  C17_25 
ROOT
HETATM    1  C3  UNL     1      24.931   1.717  51.687  1.00  0.00     0.192 A 
HETATM    2  C4  UNL     1      23.594   1.938  51.534  1.00  0.00     0.115 A 
HETATM    3  C5  UNL     1      23.614   1.083  52.617  1.00  0.00     0.225 A 
HETATM    4  O1  UNL     1      23.448   0.353  53.571  1.00  0.00    -0.273 OA
HETATM    5  N4  UNL     1      22.941   2.816  50.644  1.00  0.00    -0.361 N 
HETATM    6  C13 UNL     1      23.384   2.989  49.259  1.00  0.00     0.109 C 
HETATM    7  C14 UNL     1      23.429   4.339  49.220  1.00  0.00     0.158 C 
HETATM    8  N5  UNL     1      23.023   4.761  50.579  1.00  0.00    -0.159 NA
HETATM    9  N6  UNL     1      24.040   4.571  51.429  1.00  0.00    -0.133 NA
HETATM   10  C15 UNL     1      25.152   4.015  50.624  1.00  0.00     0.143 C 
HETATM   11  C16 UNL     1      25.852   4.805  49.754  1.00  0.00     0.025 C 
HETATM   12  N7  UNL     1      25.381   2.584  50.667  1.00  0.00    -0.347 N 
HETATM   13  H19 UNL     1      22.194   3.163  51.237  1.00  0.00     0.165 HD
HETATM   14  H28 UNL     1      25.869   2.028  49.967  1.00  0.00     0.163 HD
ENDROOT
BRANCH   3  15
HETATM   15  N1  UNL     1      22.106   1.096  52.937  1.00  0.00    -0.359 N 
HETATM   16  H3  UNL     1      21.437   1.752  53.511  1.00  0.00     0.162 HD
BRANCH  15  17
HETATM   17  C6  UNL     1      21.384  -0.047  52.319  1.00  0.00     0.142 C 
BRANCH  17  18
HETATM   18  C7  UNL     1      20.064  -0.212  53.070  1.00  0.00     0.136 C 
BRANCH  18  19
HETATM   19  N2  UNL     1      18.965  -0.317  52.197  1.00  0.00    -0.408 N 
HETATM   20  C8  UNL     1      19.094   0.430  51.041  1.00  0.00     0.147 C 
HETATM   21  C9  UNL     1      17.841   0.638  50.198  1.00  0.00     0.291 C 
HETATM   22  N3  UNL     1      16.863  -0.362  50.454  1.00  0.00     0.087 N 
HETATM   23  C10 UNL     1      15.602  -0.028  49.799  1.00  0.00     0.310 C 
HETATM   24  C11 UNL     1      16.563  -0.560  51.827  1.00  0.00     0.291 C 
HETATM   25  C12 UNL     1      17.819  -1.032  52.563  1.00  0.00     0.147 C 
ENDBRANCH  18  19
ENDBRANCH  17  18
ENDBRANCH  15  17
ENDBRANCH   3  15
BRANCH   1  26
HETATM   26  C2  UNL     1      26.080   1.054  52.376  1.00  0.00     0.034 C 
HETATM   27  C1  UNL     1      27.083   1.749  53.059  1.00  0.00     0.055 C 
HETATM   28 CL1  UNL     1      26.539  -0.672  52.293  1.00  0.00    -0.090 Cl
ENDBRANCH   1  26
BRANCH  11  29
HETATM   29  C17 UNL     1      26.933   4.227  48.989  1.00  0.00     0.026 C 
HETATM   30  C18 UNL     1      27.953   5.270  48.570  1.00  0.00     0.009 C 
ENDBRANCH  11  29
TORSDOF 6
ENDMDL
MODEL 8
REMARK VINA RESULT:      -6.7      2.094      2.886
REMARK  6 active torsions:
REMARK  status: ('A' for Active; 'I' for Inactive)
REMARK    1  A    between atoms: C2_2  and  C3_4 
REMARK    2  A    between atoms: C5_6  and  N1_8 
REMARK    3  A    between atoms: N1_8  and  C6_9 
REMARK    4  A    between atoms: C6_9  and  C7_10 
REMARK    5  A    between atoms: C7_10  and  N2_11 
REMARK    6  A    between atoms: C16_24  and  C17_25 
ROOT
HETATM    1  C3  UNL     1      21.795   1.342  52.660  1.00  0.00     0.192 A 
HETATM    2  C4  UNL     1      22.020   2.491  51.961  1.00  0.00     0.115 A 
HETATM    3  C5  UNL     1      20.708   2.656  52.355  1.00  0.00     0.225 A 
HETATM    4  O1  UNL     1      19.565   2.967  52.618  1.00  0.00    -0.273 OA
HETATM    5  N4  UNL     1      23.223   2.953  51.389  1.00  0.00    -0.361 N 
HETATM    6  C13 UNL     1      24.153   2.054  50.701  1.00  0.00     0.109 C 
HETATM    7  C14 UNL     1      25.296   2.420  51.321  1.00  0.00     0.158 C 
HETATM    8  N5  UNL     1      24.876   3.461  52.284  1.00  0.00    -0.159 NA
HETATM    9  N6  UNL     1      24.278   2.886  53.334  1.00  0.00    -0.133 NA
HETATM   10  C15 UNL     1      24.300   1.428  53.073  1.00  0.00     0.143 C 
HETATM   11  C16 UNL     1      25.463   0.714  53.175  1.00  0.00     0.025 C 
HETATM   12  N7  UNL     1      23.096   0.804  52.560  1.00  0.00    -0.347 N 
HETATM   13  H19 UNL     1      23.157   3.946  51.589  1.00  0.00     0.165 HD
HETATM   14  H28 UNL     1      23.040  -0.076  52.051  1.00  0.00     0.163 HD
ENDROOT
BRANCH   3  15
HETATM   15  N1  UNL     1      20.492   4.083  51.811  1.00  0.00    -0.359 N 
HETATM   16  H3  UNL     1      20.559   5.096  52.232  1.00  0.00     0.162 HD
BRANCH  15  17
HETATM   17  C6  UNL     1      20.108   4.091  50.375  1.00  0.00     0.142 C 
BRANCH  17  18
HETATM   18  C7  UNL     1      20.283   5.520  49.865  1.00  0.00     0.136 C 
BRANCH  18  19
HETATM   19  N2  UNL     1      21.638   5.887  49.763  1.00  0.00    -0.408 N 
HETATM   20  C8  UNL     1      22.329   5.210  48.776  1.00  0.00     0.147 C 
HETATM   21  C9  UNL     1      23.851   5.296  48.801  1.00  0.00     0.291 C 
HETATM   22  N3  UNL     1      24.301   6.441  49.515  1.00  0.00     0.087 N 
HETATM   23  C10 UNL     1      25.747   6.394  49.706  1.00  0.00     0.310 C 
HETATM   24  C11 UNL     1      23.730   6.597  50.804  1.00  0.00     0.291 C 
HETATM   25  C12 UNL     1      22.215   6.776  50.677  1.00  0.00     0.147 C 
ENDBRANCH  18  19
ENDBRANCH  17  18
ENDBRANCH  15  17
ENDBRANCH   3  15
BRANCH   1  26
HETATM   26  C2  UNL     1      20.897   0.438  53.444  1.00  0.00     0.034 C 
HETATM   27  C1  UNL     1      21.189  -0.021  54.733  1.00  0.00     0.055 C 
HETATM   28 CL1  UNL     1      19.434  -0.404  52.857  1.00  0.00    -0.090 Cl
ENDBRANCH   1  26
BRANCH  11  29
HETATM   29  C17 UNL     1      25.445  -0.708  52.916  1.00  0.00     0.026 C 
HETATM   30  C18 UNL     1      26.837  -1.258  52.670  1.00  0.00     0.009 C 
ENDBRANCH  11  29
TORSDOF 6
ENDMDL
MODEL 9
REMARK VINA RESULT:      -6.6      2.479      6.631
REMARK  6 active torsions:
REMARK  status: ('A' for Active; 'I' for Inactive)
REMARK    1  A    between atoms: C2_2  and  C3_4 
REMARK    2  A    between atoms: C5_6  and  N1_8 
REMARK    3  A    between atoms: N1_8  and  C6_9 
REMARK    4  A    between atoms: C6_9  and  C7_10 
REMARK    5  A    between atoms: C7_10  and  N2_11 
REMARK    6  A    between atoms: C16_24  and  C17_25 
ROOT
HETATM    1  C3  UNL     1      22.194   2.484  50.526  1.00  0.00     0.192 A 
HETATM    2  C4  UNL     1      23.103   2.689  51.521  1.00  0.00     0.115 A 
HETATM    3  C5  UNL     1      22.661   1.412  51.804  1.00  0.00     0.225 A 
HETATM    4  O1  UNL     1      22.395   0.294  52.192  1.00  0.00    -0.273 OA
HETATM    5  N4  UNL     1      23.969   3.784  51.712  1.00  0.00    -0.361 N 
HETATM    6  C13 UNL     1      23.541   5.165  51.475  1.00  0.00     0.109 C 
HETATM    7  C14 UNL     1      24.568   5.573  50.698  1.00  0.00     0.158 C 
HETATM    8  N5  UNL     1      25.437   4.382  50.580  1.00  0.00    -0.159 NA
HETATM    9  N6  UNL     1      24.894   3.514  49.718  1.00  0.00    -0.133 NA
HETATM   10  C15 UNL     1      23.636   4.137  49.245  1.00  0.00     0.143 C 
HETATM   11  C16 UNL     1      23.660   5.192  48.374  1.00  0.00     0.025 C 
HETATM   12  N7  UNL     1      22.388   3.703  49.841  1.00  0.00    -0.347 N 
HETATM   13  H19 UNL     1      24.805   3.308  52.036  1.00  0.00     0.165 HD
HETATM   14  H28 UNL     1      21.513   4.224  49.861  1.00  0.00     0.163 HD
ENDROOT
BRANCH   3  15
HETATM   15  N1  UNL     1      23.610   1.105  52.980  1.00  0.00    -0.359 N 
HETATM   16  H3  UNL     1      24.213   1.709  53.672  1.00  0.00     0.162 HD
BRANCH  15  17
HETATM   17  C6  UNL     1      23.735  -0.352  53.244  1.00  0.00     0.142 C 
BRANCH  17  18
HETATM   18  C7  UNL     1      24.534  -0.514  54.535  1.00  0.00     0.136 C 
BRANCH  18  19
HETATM   19  N2  UNL     1      25.919  -0.602  54.297  1.00  0.00    -0.408 N 
HETATM   20  C8  UNL     1      26.691   0.065  55.229  1.00  0.00     0.147 C 
HETATM   21  C9  UNL     1      28.157   0.301  54.884  1.00  0.00     0.291 C 
HETATM   22  N3  UNL     1      28.621  -0.619  53.905  1.00  0.00     0.087 N 
HETATM   23  C10 UNL     1      29.954  -0.248  53.438  1.00  0.00     0.310 C 
HETATM   24  C11 UNL     1      27.804  -0.717  52.749  1.00  0.00     0.291 C 
HETATM   25  C12 UNL     1      26.414  -1.222  53.144  1.00  0.00     0.147 C 
ENDBRANCH  18  19
ENDBRANCH  17  18
ENDBRANCH  15  17
ENDBRANCH   3  15
BRANCH   1  26
HETATM   26  C2  UNL     1      21.164   1.641  49.843  1.00  0.00     0.034 C 
HETATM   27  C1  UNL     1      21.331   1.092  48.567  1.00  0.00     0.055 C 
HETATM   28 CL1  UNL     1      19.482   1.348  50.373  1.00  0.00    -0.090 Cl
ENDBRANCH   1  26
BRANCH  11  29
HETATM   29  C17 UNL     1      22.412   5.771  47.931  1.00  0.00     0.026 C 
HETATM   30  C18 UNL     1      22.143   5.488  46.465  1.00  0.00     0.009 C 
ENDBRANCH  11  29
TORSDOF 6
ENDMDL
