MODEL 1
REMARK VINA RESULT:     -10.4      0.000      0.000
REMARK  4 active torsions:
REMARK  status: ('A' for Active; 'I' for Inactive)
REMARK    1  A    between atoms: C15_19  and  C16_20 
REMARK    2  A    between atoms: C16_20  and  O4_21 
REMARK    3  A    between atoms: O4_21  and  C17_22 
REMARK    4  A    between atoms: C17_22  and  C18_23 
ROOT
HETATM    1  O1  UNL     1      21.544  -1.706  54.903  1.00  0.00    -0.194 OA
HETATM    2  C1  UNL     1      21.386  -0.886  53.902  1.00  0.00     0.119 A 
HETATM    3  C2  UNL     1      20.049  -0.601  53.123  1.00  0.00     0.089 A 
HETATM    4  C3  UNL     1      18.925  -1.478  53.754  1.00  0.00     0.077 A 
HETATM    5  S1  UNL     1      18.992  -0.530  52.683  1.00  0.00    -0.184 SA
HETATM    6  C4  UNL     1      19.075   0.267  51.791  1.00  0.00    -0.025 A 
HETATM    7  C5  UNL     1      19.176   0.997  50.983  1.00  0.00     0.063 A 
HETATM    8  C6  UNL     1      20.303   0.520  51.914  1.00  0.00     0.099 A 
HETATM    9  C7  UNL     1      21.801   1.037  51.823  1.00  0.00     0.206 A 
HETATM   10  O2  UNL     1      22.004   1.874  50.923  1.00  0.00    -0.288 OA
HETATM   11  C8  UNL     1      22.858   0.599  52.685  1.00  0.00     0.136 A 
HETATM   12  O3  UNL     1      24.050   1.013  52.610  1.00  0.00    -0.305 OA
HETATM   13  C9  UNL     1      24.787   0.452  53.507  1.00  0.00     0.088 A 
HETATM   14  C10 UNL     1      26.187   0.719  53.674  1.00  0.00     0.006 A 
HETATM   15  C11 UNL     1      26.777   0.010  54.696  1.00  0.00     0.015 A 
HETATM   16  C12 UNL     1      28.114   0.164  54.966  1.00  0.00     0.001 A 
HETATM   17  C13 UNL     1      28.863   1.035  54.205  1.00  0.00     0.001 A 
HETATM   18  C14 UNL     1      28.208   1.710  53.202  1.00  0.00     0.010 A 
HETATM   19  C15 UNL     1      26.876   1.614  52.865  1.00  0.00    -0.022 A 
HETATM   20  C23 UNL     1      23.968  -0.390  54.202  1.00  0.00     0.055 A 
HETATM   21  C24 UNL     1      22.753  -0.304  53.693  1.00  0.00     0.038 A 
ENDROOT
BRANCH  19  22
HETATM   22  C16 UNL     1      26.189   2.367  51.793  1.00  0.00     0.207 C 
BRANCH  22  23
HETATM   23  O4  UNL     1      26.973   2.909  50.837  1.00  0.00    -0.385 OA
BRANCH  23  24
HETATM   24  C17 UNL     1      26.520   3.153  49.593  1.00  0.00     0.203 C 
BRANCH  24  25
HETATM   25  C18 UNL     1      26.461   4.562  49.124  1.00  0.00     0.244 C 
HETATM   26  C19 UNL     1      27.800   4.951  48.481  1.00  0.00     0.038 C 
HETATM   27  C20 UNL     1      27.910   6.480  48.507  1.00  0.00     0.004 C 
HETATM   28  C21 UNL     1      26.524   7.011  48.182  1.00  0.00     0.030 C 
HETATM   29  C22 UNL     1      25.626   6.736  49.383  1.00  0.00     0.270 C 
HETATM   30  N1  UNL     1      26.084   5.546  50.090  1.00  0.00     0.090 N 
HETATM   31  H20 UNL     1      26.889   5.798  50.712  1.00  0.00     0.316 HD
ENDBRANCH  24  25
ENDBRANCH  23  24
ENDBRANCH  22  23
ENDBRANCH  19  22
TORSDOF 4
ENDMDL
MODEL 2
REMARK VINA RESULT:      -9.9      2.870      6.467
REMARK  4 active torsions:
REMARK  status: ('A' for Active; 'I' for Inactive)
REMARK    1  A    between atoms: C15_19  and  C16_20 
REMARK    2  A    between atoms: C16_20  and  O4_21 
REMARK    3  A    between atoms: O4_21  and  C17_22 
REMARK    4  A    between atoms: C17_22  and  C18_23 
ROOT
HETATM    1  O1  UNL     1      25.132  -1.234  55.237  1.00  0.00    -0.194 OA
HETATM    2  C1  UNL     1      25.183  -0.375  54.258  1.00  0.00     0.119 A 
HETATM    3  C2  UNL     1      26.453   0.412  53.765  1.00  0.00     0.089 A 
HETATM    4  C3  UNL     1      27.660  -0.011  54.656  1.00  0.00     0.077 A 
HETATM    5  S1  UNL     1      27.477   0.885  53.555  1.00  0.00    -0.184 SA
HETATM    6  C4  UNL     1      27.296   1.629  52.632  1.00  0.00    -0.025 A 
HETATM    7  C5  UNL     1      27.106   2.301  51.789  1.00  0.00     0.063 A 
HETATM    8  C6  UNL     1      26.065   1.406  52.483  1.00  0.00     0.099 A 
HETATM    9  C7  UNL     1      24.538   1.337  52.057  1.00  0.00     0.206 A 
HETATM   10  O2  UNL     1      24.235   2.075  51.100  1.00  0.00    -0.288 OA
HETATM   11  C8  UNL     1      23.560   0.507  52.696  1.00  0.00     0.136 A 
HETATM   12  O3  UNL     1      22.344   0.454  52.354  1.00  0.00    -0.305 OA
HETATM   13  C9  UNL     1      21.695  -0.374  53.099  1.00  0.00     0.088 A 
HETATM   14  C10 UNL     1      20.294  -0.651  52.954  1.00  0.00     0.006 A 
HETATM   15  C11 UNL     1      19.807  -1.571  53.856  1.00  0.00     0.015 A 
HETATM   16  C12 UNL     1      18.482  -1.929  53.835  1.00  0.00     0.001 A 
HETATM   17  C13 UNL     1      17.641  -1.359  52.904  1.00  0.00     0.001 A 
HETATM   18  C14 UNL     1      18.196  -0.449  52.035  1.00  0.00     0.010 A 
HETATM   19  C15 UNL     1      19.509  -0.035  51.988  1.00  0.00    -0.022 A 
HETATM   20  C23 UNL     1      22.600  -0.880  53.987  1.00  0.00     0.055 A 
HETATM   21  C24 UNL     1      23.776  -0.332  53.741  1.00  0.00     0.038 A 
ENDROOT
BRANCH  19  22
HETATM   22  C16 UNL     1      20.087   0.931  51.030  1.00  0.00     0.207 C 
BRANCH  22  23
HETATM   23  O4  UNL     1      19.473   2.129  50.934  1.00  0.00    -0.385 OA
BRANCH  23  24
HETATM   24  C17 UNL     1      19.635   3.092  51.861  1.00  0.00     0.203 C 
BRANCH  24  25
HETATM   25  C18 UNL     1      20.728   4.081  51.671  1.00  0.00     0.244 C 
HETATM   26  C19 UNL     1      20.912   4.369  50.173  1.00  0.00     0.038 C 
HETATM   27  C20 UNL     1      22.324   4.927  49.969  1.00  0.00     0.004 C 
HETATM   28  C21 UNL     1      22.587   5.858  51.142  1.00  0.00     0.030 C 
HETATM   29  C22 UNL     1      22.761   4.997  52.388  1.00  0.00     0.270 C 
HETATM   30  N1  UNL     1      21.991   3.766  52.261  1.00  0.00     0.090 N 
HETATM   31  H20 UNL     1      22.525   3.080  51.677  1.00  0.00     0.316 HD
ENDBRANCH  24  25
ENDBRANCH  23  24
ENDBRANCH  22  23
ENDBRANCH  19  22
TORSDOF 4
ENDMDL
MODEL 3
REMARK VINA RESULT:      -9.8      3.186      6.788
REMARK  4 active torsions:
REMARK  status: ('A' for Active; 'I' for Inactive)
REMARK    1  A    between atoms: C15_19  and  C16_20 
REMARK    2  A    between atoms: C16_20  and  O4_21 
REMARK    3  A    between atoms: O4_21  and  C17_22 
REMARK    4  A    between atoms: C17_22  and  C18_23 
ROOT
HETATM    1  O1  UNL     1      27.034   2.654  50.497  1.00  0.00    -0.194 OA
HETATM    2  C1  UNL     1      26.050   3.479  50.274  1.00  0.00     0.119 A 
HETATM    3  C2  UNL     1      26.105   4.793  49.409  1.00  0.00     0.089 A 
HETATM    4  C3  UNL     1      27.555   4.948  48.856  1.00  0.00     0.077 A 
HETATM    5  S1  UNL     1      26.342   5.702  48.750  1.00  0.00    -0.184 SA
HETATM    6  C4  UNL     1      25.313   6.314  48.677  1.00  0.00    -0.025 A 
HETATM    7  C5  UNL     1      24.364   6.855  48.625  1.00  0.00     0.063 A 
HETATM    8  C6  UNL     1      24.617   5.545  49.391  1.00  0.00     0.099 A 
HETATM    9  C7  UNL     1      23.503   4.785  50.229  1.00  0.00     0.206 A 
HETATM   10  O2  UNL     1      22.387   5.337  50.224  1.00  0.00    -0.288 OA
HETATM   11  C8  UNL     1      23.728   3.565  50.946  1.00  0.00     0.136 A 
HETATM   12  O3  UNL     1      22.839   2.961  51.612  1.00  0.00    -0.305 OA
HETATM   13  C9  UNL     1      23.318   1.893  52.151  1.00  0.00     0.088 A 
HETATM   14  C10 UNL     1      22.550   0.995  52.968  1.00  0.00     0.006 A 
HETATM   15  C11 UNL     1      23.262  -0.085  53.438  1.00  0.00     0.015 A 
HETATM   16  C12 UNL     1      22.654  -1.023  54.235  1.00  0.00     0.001 A 
HETATM   17  C13 UNL     1      21.324  -0.874  54.562  1.00  0.00     0.001 A 
HETATM   18  C14 UNL     1      20.676   0.228  54.057  1.00  0.00     0.010 A 
HETATM   19  C15 UNL     1      21.208   1.213  53.254  1.00  0.00    -0.022 A 
HETATM   20  C23 UNL     1      24.630   1.832  51.779  1.00  0.00     0.055 A 
HETATM   21  C24 UNL     1      24.897   2.879  51.021  1.00  0.00     0.038 A 
ENDROOT
BRANCH  19  22
HETATM   22  C16 UNL     1      20.485   2.380  52.706  1.00  0.00     0.207 C 
BRANCH  22  23
HETATM   23  O4  UNL     1      19.469   2.117  51.855  1.00  0.00    -0.385 OA
BRANCH  23  24
HETATM   24  C17 UNL     1      19.604   1.265  50.821  1.00  0.00     0.203 C 
BRANCH  24  25
HETATM   25  C18 UNL     1      20.145   1.789  49.539  1.00  0.00     0.244 C 
HETATM   26  C19 UNL     1      21.431   1.033  49.172  1.00  0.00     0.038 C 
HETATM   27  C20 UNL     1      22.231   1.908  48.201  1.00  0.00     0.004 C 
HETATM   28  C21 UNL     1      21.216   2.543  47.264  1.00  0.00     0.030 C 
HETATM   29  C22 UNL     1      20.436   3.583  48.060  1.00  0.00     0.270 C 
HETATM   30  N1  UNL     1      20.374   3.198  49.465  1.00  0.00     0.090 N 
HETATM   31  H20 UNL     1      21.270   3.465  49.939  1.00  0.00     0.316 HD
ENDBRANCH  24  25
ENDBRANCH  23  24
ENDBRANCH  22  23
ENDBRANCH  19  22
TORSDOF 4
ENDMDL
MODEL 4
REMARK VINA RESULT:      -9.7      3.246      7.949
REMARK  4 active torsions:
REMARK  status: ('A' for Active; 'I' for Inactive)
REMARK    1  A    between atoms: C15_19  and  C16_20 
REMARK    2  A    between atoms: C16_20  and  O4_21 
REMARK    3  A    between atoms: O4_21  and  C17_22 
REMARK    4  A    between atoms: C17_22  and  C18_23 
ROOT
HETATM    1  O1  UNL     1      23.314   7.216  48.972  1.00  0.00    -0.194 OA
HETATM    2  C1  UNL     1      24.404   6.506  49.064  1.00  0.00     0.119 A 
HETATM    3  C2  UNL     1      25.812   6.865  48.458  1.00  0.00     0.089 A 
HETATM    4  C3  UNL     1      25.686   8.229  47.715  1.00  0.00     0.077 A 
HETATM    5  S1  UNL     1      26.745   7.294  47.947  1.00  0.00    -0.184 SA
HETATM    6  C4  UNL     1      27.614   6.494  48.154  1.00  0.00    -0.025 A 
HETATM    7  C5  UNL     1      28.390   5.750  48.357  1.00  0.00     0.063 A 
HETATM    8  C6  UNL     1      26.924   5.675  48.819  1.00  0.00     0.099 A 
HETATM    9  C7  UNL     1      26.329   4.477  49.672  1.00  0.00     0.206 A 
HETATM   10  O2  UNL     1      27.150   3.581  49.947  1.00  0.00    -0.288 OA
HETATM   11  C8  UNL     1      24.966   4.397  50.107  1.00  0.00     0.136 A 
HETATM   12  O3  UNL     1      24.494   3.441  50.787  1.00  0.00    -0.305 OA
HETATM   13  C9  UNL     1      23.244   3.630  51.036  1.00  0.00     0.088 A 
HETATM   14  C10 UNL     1      22.432   2.718  51.791  1.00  0.00     0.006 A 
HETATM   15  C11 UNL     1      21.123   3.120  51.938  1.00  0.00     0.015 A 
HETATM   16  C12 UNL     1      20.232   2.342  52.634  1.00  0.00     0.001 A 
HETATM   17  C13 UNL     1      20.658   1.152  53.184  1.00  0.00     0.001 A 
HETATM   18  C14 UNL     1      21.977   0.815  52.998  1.00  0.00     0.010 A 
HETATM   19  C15 UNL     1      22.934   1.534  52.316  1.00  0.00    -0.022 A 
HETATM   20  C23 UNL     1      22.913   4.819  50.453  1.00  0.00     0.055 A 
HETATM   21  C24 UNL     1      23.989   5.309  49.866  1.00  0.00     0.038 A 
ENDROOT
BRANCH  19  22
HETATM   22  C16 UNL     1      24.354   1.159  52.146  1.00  0.00     0.207 C 
BRANCH  22  23
HETATM   23  O4  UNL     1      24.716  -0.061  52.599  1.00  0.00    -0.385 OA
BRANCH  23  24
HETATM   24  C17 UNL     1      25.365  -0.227  53.767  1.00  0.00     0.203 C 
BRANCH  24  25
HETATM   25  C18 UNL     1      26.845  -0.086  53.780  1.00  0.00     0.244 C 
HETATM   26  C19 UNL     1      27.475  -1.152  52.871  1.00  0.00     0.038 C 
HETATM   27  C20 UNL     1      28.932  -1.341  53.307  1.00  0.00     0.004 C 
HETATM   28  C21 UNL     1      29.462   0.045  53.632  1.00  0.00     0.030 C 
HETATM   29  C22 UNL     1      28.800   0.504  54.927  1.00  0.00     0.270 C 
HETATM   30  N1  UNL     1      27.482  -0.103  55.059  1.00  0.00     0.090 N 
HETATM   31  H20 UNL     1      27.582  -1.080  55.423  1.00  0.00     0.316 HD
ENDBRANCH  24  25
ENDBRANCH  23  24
ENDBRANCH  22  23
ENDBRANCH  19  22
TORSDOF 4
ENDMDL
MODEL 5
REMARK VINA RESULT:      -9.6      2.665      5.869
REMARK  4 active torsions:
REMARK  status: ('A' for Active; 'I' for Inactive)
REMARK    1  A    between atoms: C15_19  and  C16_20 
REMARK    2  A    between atoms: C16_20  and  O4_21 
REMARK    3  A    between atoms: O4_21  and  C17_22 
REMARK    4  A    between atoms: C17_22  and  C18_23 
ROOT
HETATM    1  O1  UNL     1      27.071   0.654  51.984  1.00  0.00    -0.194 OA
HETATM    2  C1  UNL     1      25.825   1.015  52.116  1.00  0.00     0.119 A 
HETATM    3  C2  UNL     1      24.713   0.268  52.942  1.00  0.00     0.089 A 
HETATM    4  C3  UNL     1      25.357  -0.998  53.586  1.00  0.00     0.077 A 
HETATM    5  S1  UNL     1      24.051  -0.411  53.587  1.00  0.00    -0.184 SA
HETATM    6  C4  UNL     1      22.966   0.101  53.572  1.00  0.00    -0.025 A 
HETATM    7  C5  UNL     1      21.987   0.587  53.544  1.00  0.00     0.063 A 
HETATM    8  C6  UNL     1      23.260   1.081  52.838  1.00  0.00     0.099 A 
HETATM    9  C7  UNL     1      23.323   2.396  51.951  1.00  0.00     0.206 A 
HETATM   10  O2  UNL     1      22.244   3.012  51.864  1.00  0.00    -0.288 OA
HETATM   11  C8  UNL     1      24.504   2.865  51.288  1.00  0.00     0.136 A 
HETATM   12  O3  UNL     1      24.551   3.912  50.583  1.00  0.00    -0.305 OA
HETATM   13  C9  UNL     1      25.736   4.093  50.110  1.00  0.00     0.088 A 
HETATM   14  C10 UNL     1      26.103   5.199  49.271  1.00  0.00     0.006 A 
HETATM   15  C11 UNL     1      27.424   5.196  48.883  1.00  0.00     0.015 A 
HETATM   16  C12 UNL     1      27.913   6.194  48.076  1.00  0.00     0.001 A 
HETATM   17  C13 UNL     1      27.069   7.199  47.657  1.00  0.00     0.001 A 
HETATM   18  C14 UNL     1      25.765   7.138  48.083  1.00  0.00     0.010 A 
HETATM   19  C15 UNL     1      25.194   6.178  48.889  1.00  0.00    -0.022 A 
HETATM   20  C23 UNL     1      26.494   3.055  50.570  1.00  0.00     0.055 A 
HETATM   21  C24 UNL     1      25.727   2.277  51.312  1.00  0.00     0.038 A 
ENDROOT
BRANCH  19  22
HETATM   22  C16 UNL     1      23.791   6.145  49.352  1.00  0.00     0.207 C 
BRANCH  22  23
HETATM   23  O4  UNL     1      22.840   6.083  48.396  1.00  0.00    -0.385 OA
BRANCH  23  24
HETATM   24  C17 UNL     1      22.669   4.992  47.626  1.00  0.00     0.203 C 
BRANCH  24  25
HETATM   25  C18 UNL     1      21.877   3.858  48.172  1.00  0.00     0.244 C 
HETATM   26  C19 UNL     1      22.735   2.584  48.180  1.00  0.00     0.038 C 
HETATM   27  C20 UNL     1      21.789   1.379  48.217  1.00  0.00     0.004 C 
HETATM   28  C21 UNL     1      20.659   1.754  49.161  1.00  0.00     0.030 C 
HETATM   29  C22 UNL     1      19.804   2.808  48.467  1.00  0.00     0.270 C 
HETATM   30  N1  UNL     1      20.620   3.591  47.547  1.00  0.00     0.090 N 
HETATM   31  H20 UNL     1      20.743   3.060  46.653  1.00  0.00     0.316 HD
ENDBRANCH  24  25
ENDBRANCH  23  24
ENDBRANCH  22  23
ENDBRANCH  19  22
TORSDOF 4
ENDMDL
MODEL 6
REMARK VINA RESULT:      -9.6      2.229      2.756
REMARK  4 active torsions:
REMARK  status: ('A' for Active; 'I' for Inactive)
REMARK    1  A    between atoms: C15_19  and  C16_20 
REMARK    2  A    between atoms: C16_20  and  O4_21 
REMARK    3  A    between atoms: O4_21  and  C17_22 
REMARK    4  A    between atoms: C17_22  and  C18_23 
ROOT
HETATM    1  O1  UNL     1      20.870  -1.812  54.919  1.00  0.00    -0.194 OA
HETATM    2  C1  UNL     1      20.684  -1.093  53.848  1.00  0.00     0.119 A 
HETATM    3  C2  UNL     1      19.324  -0.882  53.083  1.00  0.00     0.089 A 
HETATM    4  C3  UNL     1      18.219  -1.689  53.829  1.00  0.00     0.077 A 
HETATM    5  S1  UNL     1      18.255  -0.850  52.669  1.00  0.00    -0.184 SA
HETATM    6  C4  UNL     1      18.313  -0.145  51.701  1.00  0.00    -0.025 A 
HETATM    7  C5  UNL     1      18.390   0.502  50.823  1.00  0.00     0.063 A 
HETATM    8  C6  UNL     1      19.544   0.115  51.764  1.00  0.00     0.099 A 
HETATM    9  C7  UNL     1      21.038   0.616  51.579  1.00  0.00     0.206 A 
HETATM   10  O2  UNL     1      21.215   1.361  50.597  1.00  0.00    -0.288 OA
HETATM   11  C8  UNL     1      22.120   0.262  52.449  1.00  0.00     0.136 A 
HETATM   12  O3  UNL     1      23.309   0.662  52.300  1.00  0.00    -0.305 OA
HETATM   13  C9  UNL     1      24.071   0.190  53.226  1.00  0.00     0.088 A 
HETATM   14  C10 UNL     1      25.476   0.467  53.325  1.00  0.00     0.006 A 
HETATM   15  C11 UNL     1      26.095  -0.140  54.394  1.00  0.00     0.015 A 
HETATM   16  C12 UNL     1      27.440   0.035  54.610  1.00  0.00     0.001 A 
HETATM   17  C13 UNL     1      28.166   0.826  53.746  1.00  0.00     0.001 A 
HETATM   18  C14 UNL     1      27.483   1.401  52.701  1.00  0.00     0.010 A 
HETATM   19  C15 UNL     1      26.142   1.277  52.413  1.00  0.00    -0.022 A 
HETATM   20  C23 UNL     1      23.273  -0.578  54.023  1.00  0.00     0.055 A 
HETATM   21  C24 UNL     1      22.043  -0.539  53.543  1.00  0.00     0.038 A 
ENDROOT
BRANCH  19  22
HETATM   22  C16 UNL     1      25.424   1.923  51.293  1.00  0.00     0.207 C 
BRANCH  22  23
HETATM   23  O4  UNL     1      25.225   3.255  51.391  1.00  0.00    -0.385 OA
BRANCH  23  24
HETATM   24  C17 UNL     1      24.174   3.774  52.055  1.00  0.00     0.203 C 
BRANCH  24  25
HETATM   25  C18 UNL     1      23.075   4.392  51.267  1.00  0.00     0.244 C 
HETATM   26  C19 UNL     1      21.817   4.513  52.141  1.00  0.00     0.038 C 
HETATM   27  C20 UNL     1      20.606   4.626  51.210  1.00  0.00     0.004 C 
HETATM   28  C21 UNL     1      21.036   5.518  50.057  1.00  0.00     0.030 C 
HETATM   29  C22 UNL     1      22.022   4.730  49.202  1.00  0.00     0.270 C 
HETATM   30  N1  UNL     1      22.743   3.767  50.026  1.00  0.00     0.090 N 
HETATM   31  H20 UNL     1      22.146   2.919  50.173  1.00  0.00     0.316 HD
ENDBRANCH  24  25
ENDBRANCH  23  24
ENDBRANCH  22  23
ENDBRANCH  19  22
TORSDOF 4
ENDMDL
MODEL 7
REMARK VINA RESULT:      -9.5      3.255      6.850
REMARK  4 active torsions:
REMARK  status: ('A' for Active; 'I' for Inactive)
REMARK    1  A    between atoms: C15_19  and  C16_20 
REMARK    2  A    between atoms: C16_20  and  O4_21 
REMARK    3  A    between atoms: O4_21  and  C17_22 
REMARK    4  A    between atoms: C17_22  and  C18_23 
ROOT
HETATM    1  O1  UNL     1      27.696   5.119  48.379  1.00  0.00    -0.194 OA
HETATM    2  C1  UNL     1      26.564   5.562  48.848  1.00  0.00     0.119 A 
HETATM    3  C2  UNL     1      25.871   6.930  48.493  1.00  0.00     0.089 A 
HETATM    4  C3  UNL     1      26.779   7.682  47.473  1.00  0.00     0.077 A 
HETATM    5  S1  UNL     1      25.529   7.957  48.114  1.00  0.00    -0.184 SA
HETATM    6  C4  UNL     1      24.483   8.164  48.664  1.00  0.00    -0.025 A 
HETATM    7  C5  UNL     1      23.532   8.329  49.178  1.00  0.00     0.063 A 
HETATM    8  C6  UNL     1      24.433   7.091  49.322  1.00  0.00     0.099 A 
HETATM    9  C7  UNL     1      24.091   5.857  50.261  1.00  0.00     0.206 A 
HETATM   10  O2  UNL     1      23.019   5.965  50.886  1.00  0.00    -0.288 OA
HETATM   11  C8  UNL     1      24.923   4.699  50.403  1.00  0.00     0.136 A 
HETATM   12  O3  UNL     1      24.649   3.718  51.151  1.00  0.00    -0.305 OA
HETATM   13  C9  UNL     1      25.570   2.819  51.084  1.00  0.00     0.088 A 
HETATM   14  C10 UNL     1      25.541   1.587  51.819  1.00  0.00     0.006 A 
HETATM   15  C11 UNL     1      26.628   0.772  51.594  1.00  0.00     0.015 A 
HETATM   16  C12 UNL     1      26.733  -0.438  52.235  1.00  0.00     0.001 A 
HETATM   17  C13 UNL     1      25.742  -0.830  53.106  1.00  0.00     0.001 A 
HETATM   18  C14 UNL     1      24.687   0.033  53.282  1.00  0.00     0.010 A 
HETATM   19  C15 UNL     1      24.504   1.259  52.683  1.00  0.00    -0.022 A 
HETATM   20  C23 UNL     1      26.504   3.294  50.208  1.00  0.00     0.055 A 
HETATM   21  C24 UNL     1      26.106   4.476  49.775  1.00  0.00     0.038 A 
ENDROOT
BRANCH  19  22
HETATM   22  C16 UNL     1      23.348   2.162  52.872  1.00  0.00     0.207 C 
BRANCH  22  23
HETATM   23  O4  UNL     1      22.172   1.758  52.346  1.00  0.00    -0.385 OA
BRANCH  23  24
HETATM   24  C17 UNL     1      22.079   1.264  51.097  1.00  0.00     0.203 C 
BRANCH  24  25
HETATM   25  C18 UNL     1      21.625   2.172  50.010  1.00  0.00     0.244 C 
HETATM   26  C19 UNL     1      22.610   2.104  48.833  1.00  0.00     0.038 C 
HETATM   27  C20 UNL     1      22.444   3.382  48.005  1.00  0.00     0.004 C 
HETATM   28  C21 UNL     1      20.952   3.671  47.963  1.00  0.00     0.030 C 
HETATM   29  C22 UNL     1      20.530   4.135  49.353  1.00  0.00     0.270 C 
HETATM   30  N1  UNL     1      21.390   3.535  50.366  1.00  0.00     0.090 N 
HETATM   31  H20 UNL     1      22.286   4.074  50.426  1.00  0.00     0.316 HD
ENDBRANCH  24  25
ENDBRANCH  23  24
ENDBRANCH  22  23
ENDBRANCH  19  22
TORSDOF 4
ENDMDL
MODEL 8
REMARK VINA RESULT:      -9.2      2.139      5.747
REMARK  4 active torsions:
REMARK  status: ('A' for Active; 'I' for Inactive)
REMARK    1  A    between atoms: C15_19  and  C16_20 
REMARK    2  A    between atoms: C16_20  and  O4_21 
REMARK    3  A    between atoms: O4_21  and  C17_22 
REMARK    4  A    between atoms: C17_22  and  C18_23 
ROOT
HETATM    1  O1  UNL     1      19.856   4.554  49.791  1.00  0.00    -0.194 OA
HETATM    2  C1  UNL     1      20.451   3.504  50.285  1.00  0.00     0.119 A 
HETATM    3  C2  UNL     1      19.758   2.273  50.979  1.00  0.00     0.089 A 
HETATM    4  C3  UNL     1      18.219   2.521  50.981  1.00  0.00     0.077 A 
HETATM    5  S1  UNL     1      19.080   1.476  51.449  1.00  0.00    -0.184 SA
HETATM    6  C4  UNL     1      19.822   0.616  51.831  1.00  0.00    -0.025 A 
HETATM    7  C5  UNL     1      20.519  -0.155  52.172  1.00  0.00     0.063 A 
HETATM    8  C6  UNL     1      20.899   1.155  51.462  1.00  0.00     0.099 A 
HETATM    9  C7  UNL     1      22.392   1.573  51.121  1.00  0.00     0.206 A 
HETATM   10  O2  UNL     1      23.253   0.747  51.476  1.00  0.00    -0.288 OA
HETATM   11  C8  UNL     1      22.756   2.791  50.460  1.00  0.00     0.136 A 
HETATM   12  O3  UNL     1      23.946   3.121  50.189  1.00  0.00    -0.305 OA
HETATM   13  C9  UNL     1      23.980   4.264  49.595  1.00  0.00     0.088 A 
HETATM   14  C10 UNL     1      25.189   4.905  49.161  1.00  0.00     0.006 A 
HETATM   15  C11 UNL     1      24.992   6.121  48.545  1.00  0.00     0.015 A 
HETATM   16  C12 UNL     1      26.061   6.846  48.083  1.00  0.00     0.001 A 
HETATM   17  C13 UNL     1      27.336   6.348  48.239  1.00  0.00     0.001 A 
HETATM   18  C14 UNL     1      27.458   5.129  48.862  1.00  0.00     0.010 A 
HETATM   19  C15 UNL     1      26.442   4.339  49.355  1.00  0.00    -0.022 A 
HETATM   20  C23 UNL     1      22.684   4.679  49.489  1.00  0.00     0.055 A 
HETATM   21  C24 UNL     1      21.906   3.759  50.031  1.00  0.00     0.038 A 
ENDROOT
BRANCH  19  22
HETATM   22  C16 UNL     1      26.597   3.019  50.003  1.00  0.00     0.207 C 
BRANCH  22  23
HETATM   23  O4  UNL     1      27.056   3.019  51.273  1.00  0.00    -0.385 OA
BRANCH  23  24
HETATM   24  C17 UNL     1      26.594   2.159  52.201  1.00  0.00     0.203 C 
BRANCH  24  25
HETATM   25  C18 UNL     1      27.512   1.104  52.706  1.00  0.00     0.244 C 
HETATM   26  C19 UNL     1      27.040  -0.272  52.214  1.00  0.00     0.038 C 
HETATM   27  C20 UNL     1      27.633  -1.335  53.145  1.00  0.00     0.004 C 
HETATM   28  C21 UNL     1      29.051  -0.886  53.456  1.00  0.00     0.030 C 
HETATM   29  C22 UNL     1      28.964   0.329  54.373  1.00  0.00     0.270 C 
HETATM   30  N1  UNL     1      27.731   1.064  54.118  1.00  0.00     0.090 N 
HETATM   31  H20 UNL     1      26.937   0.595  54.614  1.00  0.00     0.316 HD
ENDBRANCH  24  25
ENDBRANCH  23  24
ENDBRANCH  22  23
ENDBRANCH  19  22
TORSDOF 4
ENDMDL
MODEL 9
REMARK VINA RESULT:      -9.1      2.312      5.266
REMARK  4 active torsions:
REMARK  status: ('A' for Active; 'I' for Inactive)
REMARK    1  A    between atoms: C15_19  and  C16_20 
REMARK    2  A    between atoms: C16_20  and  O4_21 
REMARK    3  A    between atoms: O4_21  and  C17_22 
REMARK    4  A    between atoms: C17_22  and  C18_23 
ROOT
HETATM    1  O1  UNL     1      18.823   2.732  50.007  1.00  0.00    -0.194 OA
HETATM    2  C1  UNL     1      19.114   1.773  50.840  1.00  0.00     0.119 A 
HETATM    3  C2  UNL     1      18.097   0.789  51.531  1.00  0.00     0.089 A 
HETATM    4  C3  UNL     1      16.662   1.160  51.048  1.00  0.00     0.077 A 
HETATM    5  S1  UNL     1      17.214   0.177  51.932  1.00  0.00    -0.184 SA
HETATM    6  C4  UNL     1      17.702  -0.635  52.667  1.00  0.00    -0.025 A 
HETATM    7  C5  UNL     1      18.169  -1.367  53.332  1.00  0.00     0.063 A 
HETATM    8  C6  UNL     1      18.902  -0.284  52.522  1.00  0.00     0.099 A 
HETATM    9  C7  UNL     1      20.476  -0.079  52.546  1.00  0.00     0.206 A 
HETATM   10  O2  UNL     1      21.089  -0.875  53.283  1.00  0.00    -0.288 OA
HETATM   11  C8  UNL     1      21.169   0.926  51.796  1.00  0.00     0.136 A 
HETATM   12  O3  UNL     1      22.422   1.087  51.816  1.00  0.00    -0.305 OA
HETATM   13  C9  UNL     1      22.772   2.062  51.049  1.00  0.00     0.088 A 
HETATM   14  C10 UNL     1      24.131   2.486  50.862  1.00  0.00     0.006 A 
HETATM   15  C11 UNL     1      24.274   3.546  49.995  1.00  0.00     0.015 A 
HETATM   16  C12 UNL     1      25.519   4.058  49.726  1.00  0.00     0.001 A 
HETATM   17  C13 UNL     1      26.625   3.502  50.330  1.00  0.00     0.001 A 
HETATM   18  C14 UNL     1      26.407   2.446  51.183  1.00  0.00     0.010 A 
HETATM   19  C15 UNL     1      25.197   1.874  51.508  1.00  0.00    -0.022 A 
HETATM   20  C23 UNL     1      21.620   2.549  50.502  1.00  0.00     0.055 A 
HETATM   21  C24 UNL     1      20.606   1.842  50.966  1.00  0.00     0.038 A 
ENDROOT
BRANCH  19  22
HETATM   22  C16 UNL     1      24.989   0.724  52.414  1.00  0.00     0.207 C 
BRANCH  22  23
HETATM   23  O4  UNL     1      25.419   0.870  53.685  1.00  0.00    -0.385 OA
BRANCH  23  24
HETATM   24  C17 UNL     1      25.948  -0.153  54.384  1.00  0.00     0.203 C 
BRANCH  24  25
HETATM   25  C18 UNL     1      27.377  -0.497  54.162  1.00  0.00     0.244 C 
HETATM   26  C19 UNL     1      28.210   0.790  54.061  1.00  0.00     0.038 C 
HETATM   27  C20 UNL     1      29.508   0.455  53.319  1.00  0.00     0.004 C 
HETATM   28  C21 UNL     1      29.948  -0.909  53.826  1.00  0.00     0.030 C 
HETATM   29  C22 UNL     1      28.983  -1.947  53.265  1.00  0.00     0.270 C 
HETATM   30  N1  UNL     1      27.670  -1.350  53.054  1.00  0.00     0.090 N 
HETATM   31  H20 UNL     1      27.669  -0.819  52.152  1.00  0.00     0.316 HD
ENDBRANCH  24  25
ENDBRANCH  23  24
ENDBRANCH  22  23
ENDBRANCH  19  22
TORSDOF 4
ENDMDL
