MODEL 1
REMARK VINA RESULT:      -7.5      0.000      0.000
REMARK  5 active torsions:
REMARK  status: ('A' for Active; 'I' for Inactive)
REMARK    1  A    between atoms: S1_2  and  P1_4 
REMARK    2  A    between atoms: S1_2  and  C7_14 
REMARK    3  A    between atoms: P1_4  and  N1_5 
REMARK    4  A    between atoms: N1_5  and  C1_6 
REMARK    5  A    between atoms: C1_6  and  C2_7 
ROOT
HETATM    1  P1  UNL     1      27.343  -0.193  53.040  1.00  0.00     0.081 P 
HETATM    2  H1  UNL     1      28.081  -0.809  54.134  1.00  0.00     0.091 HD
ENDROOT
BRANCH   1   3
HETATM    3  S1  UNL     1      27.363   1.907  53.162  1.00  0.00     0.229 S 
HETATM    4  O1  UNL     1      28.716   2.508  53.112  1.00  0.00    -0.215 OA
HETATM    5  O2  UNL     1      26.673   2.309  54.450  1.00  0.00    -0.215 OA
BRANCH   3   6
HETATM    6  C7  UNL     1      26.347   2.510  51.853  1.00  0.00     0.175 A 
HETATM    7  C8  UNL     1      25.042   2.744  51.921  1.00  0.00     0.062 A 
HETATM    8  C9  UNL     1      24.378   3.243  50.728  1.00  0.00    -0.020 A 
HETATM    9  C10 UNL     1      23.092   3.471  50.802  1.00  0.00     0.096 C 
HETATM   10  C11 UNL     1      25.104   3.487  49.485  1.00  0.00     0.037 A 
HETATM   11 CL2  UNL     1      22.233   3.175  52.301  1.00  0.00    -0.096 Cl
HETATM   12  C12 UNL     1      26.408   3.218  49.534  1.00  0.00     0.144 A 
HETATM   13  O3  UNL     1      27.030   2.741  50.682  1.00  0.00    -0.311 OA
ENDBRANCH   3   6
ENDBRANCH   1   3
BRANCH   1  14
HETATM   14  N1  UNL     1      25.681  -0.859  52.934  1.00  0.00    -0.285 NA
HETATM   15  H2  UNL     1      25.747  -1.885  52.748  1.00  0.00     0.127 HD
BRANCH  14  16
HETATM   16  C1  UNL     1      24.976  -0.602  54.178  1.00  0.00     0.132 C 
BRANCH  16  17
HETATM   17  C2  UNL     1      23.489  -0.681  53.970  1.00  0.00    -0.027 A 
HETATM   18  C3  UNL     1      22.838  -0.196  52.840  1.00  0.00     0.013 A 
HETATM   19  C4  UNL     1      21.458  -0.344  52.796  1.00  0.00     0.045 A 
HETATM   20  C5  UNL     1      20.725  -0.929  53.786  1.00  0.00     0.125 A 
HETATM   21 CL1  UNL     1      18.969  -1.055  53.608  1.00  0.00    -0.062 Cl
HETATM   22  N2  UNL     1      21.380  -1.388  54.866  1.00  0.00    -0.248 NA
HETATM   23  C6  UNL     1      22.724  -1.267  54.957  1.00  0.00     0.126 A 
ENDBRANCH  16  17
ENDBRANCH  14  16
ENDBRANCH   1  14
TORSDOF 5
ENDMDL
MODEL 2
REMARK VINA RESULT:      -7.4      3.253      6.812
REMARK  5 active torsions:
REMARK  status: ('A' for Active; 'I' for Inactive)
REMARK    1  A    between atoms: S1_2  and  P1_4 
REMARK    2  A    between atoms: S1_2  and  C7_14 
REMARK    3  A    between atoms: P1_4  and  N1_5 
REMARK    4  A    between atoms: N1_5  and  C1_6 
REMARK    5  A    between atoms: C1_6  and  C2_7 
ROOT
HETATM    1  P1  UNL     1      26.509   1.259  52.065  1.00  0.00     0.081 P 
HETATM    2  H1  UNL     1      26.013   0.520  50.912  1.00  0.00     0.091 HD
ENDROOT
BRANCH   1   3
HETATM    3  S1  UNL     1      26.349   0.146  53.843  1.00  0.00     0.229 S 
HETATM    4  O1  UNL     1      26.840   0.853  55.049  1.00  0.00    -0.215 OA
HETATM    5  O2  UNL     1      27.121  -1.145  53.658  1.00  0.00    -0.215 OA
BRANCH   3   6
HETATM    6  C7  UNL     1      24.656  -0.313  54.015  1.00  0.00     0.175 A 
HETATM    7  C8  UNL     1      23.681  -0.039  53.157  1.00  0.00     0.062 A 
HETATM    8  C9  UNL     1      22.343  -0.507  53.477  1.00  0.00    -0.020 A 
HETATM    9  C10 UNL     1      21.386  -0.233  52.627  1.00  0.00     0.096 C 
HETATM   10  C11 UNL     1      22.058  -1.256  54.698  1.00  0.00     0.037 A 
HETATM   11 CL2  UNL     1      21.742   0.667  51.166  1.00  0.00    -0.096 Cl
HETATM   12  C12 UNL     1      23.112  -1.473  55.483  1.00  0.00     0.144 A 
HETATM   13  O3  UNL     1      24.387  -1.019  55.164  1.00  0.00    -0.311 OA
ENDBRANCH   3   6
ENDBRANCH   1   3
BRANCH   1  14
HETATM   14  N1  UNL     1      25.716   2.864  52.186  1.00  0.00    -0.285 NA
HETATM   15  H2  UNL     1      26.453   3.584  52.360  1.00  0.00     0.127 HD
BRANCH  14  16
HETATM   16  C1  UNL     1      25.000   3.143  50.953  1.00  0.00     0.132 C 
BRANCH  16  17
HETATM   17  C2  UNL     1      25.759   4.131  50.111  1.00  0.00    -0.027 A 
HETATM   18  C3  UNL     1      26.893   3.807  49.371  1.00  0.00     0.013 A 
HETATM   19  C4  UNL     1      27.483   4.832  48.643  1.00  0.00     0.045 A 
HETATM   20  C5  UNL     1      27.016   6.113  48.619  1.00  0.00     0.125 A 
HETATM   21 CL1  UNL     1      27.862   7.327  47.649  1.00  0.00    -0.062 Cl
HETATM   22  N2  UNL     1      25.920   6.397  49.343  1.00  0.00    -0.248 NA
HETATM   23  C6  UNL     1      25.309   5.433  50.069  1.00  0.00     0.126 A 
ENDBRANCH  16  17
ENDBRANCH  14  16
ENDBRANCH   1  14
TORSDOF 5
ENDMDL
MODEL 3
REMARK VINA RESULT:      -7.2      4.006      6.095
REMARK  5 active torsions:
REMARK  status: ('A' for Active; 'I' for Inactive)
REMARK    1  A    between atoms: S1_2  and  P1_4 
REMARK    2  A    between atoms: S1_2  and  C7_14 
REMARK    3  A    between atoms: P1_4  and  N1_5 
REMARK    4  A    between atoms: N1_5  and  C1_6 
REMARK    5  A    between atoms: C1_6  and  C2_7 
ROOT
HETATM    1  P1  UNL     1      23.744   3.377  52.697  1.00  0.00     0.081 P 
HETATM    2  H1  UNL     1      23.390   3.427  54.108  1.00  0.00     0.091 HD
ENDROOT
BRANCH   1   3
HETATM    3  S1  UNL     1      22.440   2.143  51.601  1.00  0.00     0.229 S 
HETATM    4  O1  UNL     1      23.023   1.597  50.352  1.00  0.00    -0.215 OA
HETATM    5  O2  UNL     1      21.197   2.947  51.275  1.00  0.00    -0.215 OA
BRANCH   3   6
HETATM    6  C7  UNL     1      21.920   0.851  52.682  1.00  0.00     0.175 A 
HETATM    7  C8  UNL     1      22.689   0.195  53.541  1.00  0.00     0.062 A 
HETATM    8  C9  UNL     1      22.073  -0.843  54.351  1.00  0.00    -0.020 A 
HETATM    9  C10 UNL     1      22.836  -1.486  55.196  1.00  0.00     0.096 C 
HETATM   10  C11 UNL     1      20.653  -1.169  54.238  1.00  0.00     0.037 A 
HETATM   11 CL2  UNL     1      24.538  -1.084  55.322  1.00  0.00    -0.096 Cl
HETATM   12  C12 UNL     1      19.980  -0.446  53.343  1.00  0.00     0.144 A 
HETATM   13  O3  UNL     1      20.584   0.543  52.576  1.00  0.00    -0.311 OA
ENDBRANCH   3   6
ENDBRANCH   1   3
BRANCH   1  14
HETATM   14  N1  UNL     1      25.465   2.917  52.485  1.00  0.00    -0.285 NA
HETATM   15  H2  UNL     1      26.001   3.766  52.195  1.00  0.00     0.127 HD
BRANCH  14  16
HETATM   16  C1  UNL     1      25.979   2.380  53.733  1.00  0.00     0.132 C 
BRANCH  16  17
HETATM   17  C2  UNL     1      26.649   1.054  53.504  1.00  0.00    -0.027 A 
HETATM   18  C3  UNL     1      26.346   0.207  52.441  1.00  0.00     0.013 A 
HETATM   19  C4  UNL     1      27.052  -0.987  52.367  1.00  0.00     0.045 A 
HETATM   20  C5  UNL     1      28.008  -1.361  53.263  1.00  0.00     0.125 A 
HETATM   21 CL1  UNL     1      28.837  -2.910  53.055  1.00  0.00    -0.062 Cl
HETATM   22  N2  UNL     1      28.281  -0.524  54.279  1.00  0.00    -0.248 NA
HETATM   23  C6  UNL     1      27.619   0.651  54.396  1.00  0.00     0.126 A 
ENDBRANCH  16  17
ENDBRANCH  14  16
ENDBRANCH   1  14
TORSDOF 5
ENDMDL
MODEL 4
REMARK VINA RESULT:      -7.1      3.676      5.053
REMARK  5 active torsions:
REMARK  status: ('A' for Active; 'I' for Inactive)
REMARK    1  A    between atoms: S1_2  and  P1_4 
REMARK    2  A    between atoms: S1_2  and  C7_14 
REMARK    3  A    between atoms: P1_4  and  N1_5 
REMARK    4  A    between atoms: N1_5  and  C1_6 
REMARK    5  A    between atoms: C1_6  and  C2_7 
ROOT
HETATM    1  P1  UNL     1      22.247   0.779  53.005  1.00  0.00     0.081 P 
HETATM    2  H1  UNL     1      20.931   0.290  53.390  1.00  0.00     0.091 HD
ENDROOT
BRANCH   1   3
HETATM    3  S1  UNL     1      22.193   1.844  51.191  1.00  0.00     0.229 S 
HETATM    4  O1  UNL     1      21.203   2.946  51.161  1.00  0.00    -0.215 OA
HETATM    5  O2  UNL     1      21.894   0.859  50.079  1.00  0.00    -0.215 OA
BRANCH   3   6
HETATM    6  C7  UNL     1      23.824   2.441  50.893  1.00  0.00     0.175 A 
HETATM    7  C8  UNL     1      24.147   3.495  50.155  1.00  0.00     0.062 A 
HETATM    8  C9  UNL     1      25.556   3.832  50.028  1.00  0.00    -0.020 A 
HETATM    9  C10 UNL     1      25.867   4.872  49.299  1.00  0.00     0.096 C 
HETATM   10  C11 UNL     1      26.598   3.048  50.686  1.00  0.00     0.037 A 
HETATM   11 CL2  UNL     1      24.605   5.804  48.516  1.00  0.00    -0.096 Cl
HETATM   12  C12 UNL     1      26.157   2.014  51.401  1.00  0.00     0.144 A 
HETATM   13  O3  UNL     1      24.807   1.704  51.512  1.00  0.00    -0.311 OA
ENDBRANCH   3   6
ENDBRANCH   1   3
BRANCH   1  14
HETATM   14  N1  UNL     1      23.445  -0.555  52.982  1.00  0.00    -0.285 NA
HETATM   15  H2  UNL     1      24.103  -0.396  52.187  1.00  0.00     0.127 HD
BRANCH  14  16
HETATM   16  C1  UNL     1      24.159  -0.586  54.247  1.00  0.00     0.132 C 
BRANCH  16  17
HETATM   17  C2  UNL     1      25.644  -0.629  54.016  1.00  0.00    -0.027 A 
HETATM   18  C3  UNL     1      26.240  -1.254  52.924  1.00  0.00     0.013 A 
HETATM   19  C4  UNL     1      27.626  -1.207  52.852  1.00  0.00     0.045 A 
HETATM   20  C5  UNL     1      28.415  -0.592  53.779  1.00  0.00     0.125 A 
HETATM   21 CL1  UNL     1      30.172  -0.604  53.570  1.00  0.00    -0.062 Cl
HETATM   22  N2  UNL     1      27.813   0.002  54.823  1.00  0.00    -0.248 NA
HETATM   23  C6  UNL     1      26.464  -0.016  54.939  1.00  0.00     0.126 A 
ENDBRANCH  16  17
ENDBRANCH  14  16
ENDBRANCH   1  14
TORSDOF 5
ENDMDL
MODEL 5
REMARK VINA RESULT:      -7.0      4.504      7.567
REMARK  5 active torsions:
REMARK  status: ('A' for Active; 'I' for Inactive)
REMARK    1  A    between atoms: S1_2  and  P1_4 
REMARK    2  A    between atoms: S1_2  and  C7_14 
REMARK    3  A    between atoms: P1_4  and  N1_5 
REMARK    4  A    between atoms: N1_5  and  C1_6 
REMARK    5  A    between atoms: C1_6  and  C2_7 
ROOT
HETATM    1  P1  UNL     1      22.801   4.479  52.314  1.00  0.00     0.081 P 
HETATM    2  H1  UNL     1      22.732   4.978  53.680  1.00  0.00     0.091 HD
ENDROOT
BRANCH   1   3
HETATM    3  S1  UNL     1      21.489   2.865  51.997  1.00  0.00     0.229 S 
HETATM    4  O1  UNL     1      21.213   2.576  50.570  1.00  0.00    -0.215 OA
HETATM    5  O2  UNL     1      20.191   3.169  52.717  1.00  0.00    -0.215 OA
BRANCH   3   6
HETATM    6  C7  UNL     1      22.186   1.465  52.811  1.00  0.00     0.175 A 
HETATM    7  C8  UNL     1      23.424   1.011  52.661  1.00  0.00     0.062 A 
HETATM    8  C9  UNL     1      23.814  -0.164  53.423  1.00  0.00    -0.020 A 
HETATM    9  C10 UNL     1      25.036  -0.606  53.271  1.00  0.00     0.096 C 
HETATM   10  C11 UNL     1      22.889  -0.837  54.331  1.00  0.00     0.037 A 
HETATM   11 CL2  UNL     1      26.135   0.212  52.179  1.00  0.00    -0.096 Cl
HETATM   12  C12 UNL     1      21.674  -0.293  54.401  1.00  0.00     0.144 A 
HETATM   13  O3  UNL     1      21.316   0.830  53.666  1.00  0.00    -0.311 OA
ENDBRANCH   3   6
ENDBRANCH   1   3
BRANCH   1  14
HETATM   14  N1  UNL     1      24.492   4.088  51.860  1.00  0.00    -0.285 NA
HETATM   15  H2  UNL     1      24.824   3.304  52.465  1.00  0.00     0.127 HD
BRANCH  14  16
HETATM   16  C1  UNL     1      24.542   3.716  50.456  1.00  0.00     0.132 C 
BRANCH  16  17
HETATM   17  C2  UNL     1      25.613   4.491  49.740  1.00  0.00    -0.027 A 
HETATM   18  C3  UNL     1      26.810   3.934  49.301  1.00  0.00     0.013 A 
HETATM   19  C4  UNL     1      27.700   4.782  48.655  1.00  0.00     0.045 A 
HETATM   20  C5  UNL     1      27.462   6.107  48.434  1.00  0.00     0.125 A 
HETATM   21 CL1  UNL     1      28.679   7.081  47.597  1.00  0.00    -0.062 Cl
HETATM   22  N2  UNL     1      26.298   6.618  48.869  1.00  0.00    -0.248 NA
HETATM   23  C6  UNL     1      25.398   5.833  49.505  1.00  0.00     0.126 A 
ENDBRANCH  16  17
ENDBRANCH  14  16
ENDBRANCH   1  14
TORSDOF 5
ENDMDL
MODEL 6
REMARK VINA RESULT:      -7.0      4.340      7.575
REMARK  5 active torsions:
REMARK  status: ('A' for Active; 'I' for Inactive)
REMARK    1  A    between atoms: S1_2  and  P1_4 
REMARK    2  A    between atoms: S1_2  and  C7_14 
REMARK    3  A    between atoms: P1_4  and  N1_5 
REMARK    4  A    between atoms: N1_5  and  C1_6 
REMARK    5  A    between atoms: C1_6  and  C2_7 
ROOT
HETATM    1  P1  UNL     1      22.871   4.787  52.027  1.00  0.00     0.081 P 
HETATM    2  H1  UNL     1      22.866   5.322  53.381  1.00  0.00     0.091 HD
ENDROOT
BRANCH   1   3
HETATM    3  S1  UNL     1      21.613   3.111  51.838  1.00  0.00     0.229 S 
HETATM    4  O1  UNL     1      21.211   2.806  50.445  1.00  0.00    -0.215 OA
HETATM    5  O2  UNL     1      20.380   3.353  52.684  1.00  0.00    -0.215 OA
BRANCH   3   6
HETATM    6  C7  UNL     1      22.455   1.747  52.574  1.00  0.00     0.175 A 
HETATM    7  C8  UNL     1      21.886   0.668  53.094  1.00  0.00     0.062 A 
HETATM    8  C9  UNL     1      22.754  -0.354  53.657  1.00  0.00    -0.020 A 
HETATM    9  C10 UNL     1      22.186  -1.416  54.169  1.00  0.00     0.096 C 
HETATM   10  C11 UNL     1      24.208  -0.216  53.659  1.00  0.00     0.037 A 
HETATM   11 CL2  UNL     1      20.440  -1.568  54.160  1.00  0.00    -0.096 Cl
HETATM   12  C12 UNL     1      24.666   0.908  53.109  1.00  0.00     0.144 A 
HETATM   13  O3  UNL     1      23.824   1.876  52.575  1.00  0.00    -0.311 OA
ENDBRANCH   3   6
ENDBRANCH   1   3
BRANCH   1  14
HETATM   14  N1  UNL     1      24.545   4.454  51.475  1.00  0.00    -0.285 NA
HETATM   15  H2  UNL     1      24.897   3.608  51.977  1.00  0.00     0.127 HD
BRANCH  14  16
HETATM   16  C1  UNL     1      24.548   4.242  50.038  1.00  0.00     0.132 C 
BRANCH  16  17
HETATM   17  C2  UNL     1      25.757   4.879  49.411  1.00  0.00    -0.027 A 
HETATM   18  C3  UNL     1      25.800   6.201  48.980  1.00  0.00     0.013 A 
HETATM   19  C4  UNL     1      26.992   6.642  48.420  1.00  0.00     0.045 A 
HETATM   20  C5  UNL     1      28.099   5.859  48.275  1.00  0.00     0.125 A 
HETATM   21 CL1  UNL     1      29.558   6.543  47.545  1.00  0.00    -0.062 Cl
HETATM   22  N2  UNL     1      28.029   4.586  48.700  1.00  0.00    -0.248 NA
HETATM   23  C6  UNL     1      26.890   4.108  49.252  1.00  0.00     0.126 A 
ENDBRANCH  16  17
ENDBRANCH  14  16
ENDBRANCH   1  14
TORSDOF 5
ENDMDL
MODEL 7
REMARK VINA RESULT:      -6.9      2.701      5.656
REMARK  5 active torsions:
REMARK  status: ('A' for Active; 'I' for Inactive)
REMARK    1  A    between atoms: S1_2  and  P1_4 
REMARK    2  A    between atoms: S1_2  and  C7_14 
REMARK    3  A    between atoms: P1_4  and  N1_5 
REMARK    4  A    between atoms: N1_5  and  C1_6 
REMARK    5  A    between atoms: C1_6  and  C2_7 
ROOT
HETATM    1  P1  UNL     1      26.834   0.953  51.893  1.00  0.00     0.081 P 
HETATM    2  H1  UNL     1      25.838   0.476  50.944  1.00  0.00     0.091 HD
ENDROOT
BRANCH   1   3
HETATM    3  S1  UNL     1      26.411   0.331  53.858  1.00  0.00     0.229 S 
HETATM    4  O1  UNL     1      26.713   1.344  54.896  1.00  0.00    -0.215 OA
HETATM    5  O2  UNL     1      27.204  -0.931  54.130  1.00  0.00    -0.215 OA
BRANCH   3   6
HETATM    6  C7  UNL     1      24.712  -0.138  53.897  1.00  0.00     0.175 A 
HETATM    7  C8  UNL     1      23.796   0.170  52.988  1.00  0.00     0.062 A 
HETATM    8  C9  UNL     1      22.440  -0.313  53.198  1.00  0.00    -0.020 A 
HETATM    9  C10 UNL     1      21.542  -0.006  52.298  1.00  0.00     0.096 C 
HETATM   10  C11 UNL     1      22.078  -1.113  54.365  1.00  0.00     0.037 A 
HETATM   11 CL2  UNL     1      21.991   0.955  50.903  1.00  0.00    -0.096 Cl
HETATM   12  C12 UNL     1      23.079  -1.360  55.210  1.00  0.00     0.144 A 
HETATM   13  O3  UNL     1      24.370  -0.892  54.995  1.00  0.00    -0.311 OA
ENDBRANCH   3   6
ENDBRANCH   1   3
BRANCH   1  14
HETATM   14  N1  UNL     1      27.040   2.730  51.765  1.00  0.00    -0.285 NA
HETATM   15  H2  UNL     1      28.057   2.953  51.860  1.00  0.00     0.127 HD
BRANCH  14  16
HETATM   16  C1  UNL     1      26.528   3.186  50.484  1.00  0.00     0.132 C 
BRANCH  16  17
HETATM   17  C2  UNL     1      25.288   4.014  50.674  1.00  0.00    -0.027 A 
HETATM   18  C3  UNL     1      24.289   3.713  51.595  1.00  0.00     0.013 A 
HETATM   19  C4  UNL     1      23.203   4.577  51.651  1.00  0.00     0.045 A 
HETATM   20  C5  UNL     1      23.071   5.683  50.865  1.00  0.00     0.125 A 
HETATM   21 CL1  UNL     1      21.635   6.703  51.034  1.00  0.00    -0.062 Cl
HETATM   22  N2  UNL     1      24.050   5.949  49.984  1.00  0.00    -0.248 NA
HETATM   23  C6  UNL     1      25.129   5.138  49.891  1.00  0.00     0.126 A 
ENDBRANCH  16  17
ENDBRANCH  14  16
ENDBRANCH   1  14
TORSDOF 5
ENDMDL
MODEL 8
REMARK VINA RESULT:      -6.9      3.705      6.258
REMARK  5 active torsions:
REMARK  status: ('A' for Active; 'I' for Inactive)
REMARK    1  A    between atoms: S1_2  and  P1_4 
REMARK    2  A    between atoms: S1_2  and  C7_14 
REMARK    3  A    between atoms: P1_4  and  N1_5 
REMARK    4  A    between atoms: N1_5  and  C1_6 
REMARK    5  A    between atoms: C1_6  and  C2_7 
ROOT
HETATM    1  P1  UNL     1      23.433   3.768  52.297  1.00  0.00     0.081 P 
HETATM    2  H1  UNL     1      22.703   4.443  53.361  1.00  0.00     0.091 HD
ENDROOT
BRANCH   1   3
HETATM    3  S1  UNL     1      22.251   2.328  51.321  1.00  0.00     0.229 S 
HETATM    4  O1  UNL     1      22.786   1.888  50.011  1.00  0.00    -0.215 OA
HETATM    5  O2  UNL     1      20.863   2.908  51.137  1.00  0.00    -0.215 OA
BRANCH   3   6
HETATM    6  C7  UNL     1      22.072   0.968  52.428  1.00  0.00     0.175 A 
HETATM    7  C8  UNL     1      20.949   0.307  52.678  1.00  0.00     0.062 A 
HETATM    8  C9  UNL     1      21.004  -0.792  53.628  1.00  0.00    -0.020 A 
HETATM    9  C10 UNL     1      19.893  -1.439  53.870  1.00  0.00     0.096 C 
HETATM   10  C11 UNL     1      22.245  -1.173  54.296  1.00  0.00     0.037 A 
HETATM   11 CL2  UNL     1      18.410  -0.971  53.061  1.00  0.00    -0.096 Cl
HETATM   12  C12 UNL     1      23.309  -0.441  53.967  1.00  0.00     0.144 A 
HETATM   13  O3  UNL     1      23.240   0.608  53.057  1.00  0.00    -0.311 OA
ENDBRANCH   3   6
ENDBRANCH   1   3
BRANCH   1  14
HETATM   14  N1  UNL     1      24.975   3.088  52.912  1.00  0.00    -0.285 NA
HETATM   15  H2  UNL     1      24.753   2.368  53.637  1.00  0.00     0.127 HD
BRANCH  14  16
HETATM   16  C1  UNL     1      25.718   2.501  51.811  1.00  0.00     0.132 C 
BRANCH  16  17
HETATM   17  C2  UNL     1      26.732   1.515  52.321  1.00  0.00    -0.027 A 
HETATM   18  C3  UNL     1      26.587   0.134  52.223  1.00  0.00     0.013 A 
HETATM   19  C4  UNL     1      27.612  -0.645  52.744  1.00  0.00     0.045 A 
HETATM   20  C5  UNL     1      28.730  -0.134  53.333  1.00  0.00     0.125 A 
HETATM   21 CL1  UNL     1      29.965  -1.237  53.958  1.00  0.00    -0.062 Cl
HETATM   22  N2  UNL     1      28.844   1.203  53.414  1.00  0.00    -0.248 NA
HETATM   23  C6  UNL     1      27.872   2.005  52.923  1.00  0.00     0.126 A 
ENDBRANCH  16  17
ENDBRANCH  14  16
ENDBRANCH   1  14
TORSDOF 5
ENDMDL
MODEL 9
REMARK VINA RESULT:      -6.6      4.512      7.700
REMARK  5 active torsions:
REMARK  status: ('A' for Active; 'I' for Inactive)
REMARK    1  A    between atoms: S1_2  and  P1_4 
REMARK    2  A    between atoms: S1_2  and  C7_14 
REMARK    3  A    between atoms: P1_4  and  N1_5 
REMARK    4  A    between atoms: N1_5  and  C1_6 
REMARK    5  A    between atoms: C1_6  and  C2_7 
ROOT
HETATM    1  P1  UNL     1      23.206   4.695  51.230  1.00  0.00     0.081 P 
HETATM    2  H1  UNL     1      22.938   5.123  52.596  1.00  0.00     0.091 HD
ENDROOT
BRANCH   1   3
HETATM    3  S1  UNL     1      22.824   2.644  50.960  1.00  0.00     0.229 S 
HETATM    4  O1  UNL     1      22.634   2.241  49.546  1.00  0.00    -0.215 OA
HETATM    5  O2  UNL     1      21.590   2.287  51.763  1.00  0.00    -0.215 OA
BRANCH   3   6
HETATM    6  C7  UNL     1      24.163   1.766  51.700  1.00  0.00     0.175 A 
HETATM    7  C8  UNL     1      24.064   0.863  52.667  1.00  0.00     0.062 A 
HETATM    8  C9  UNL     1      25.289   0.246  53.148  1.00  0.00    -0.020 A 
HETATM    9  C10 UNL     1      25.185  -0.644  54.101  1.00  0.00     0.096 C 
HETATM   10  C11 UNL     1      26.597   0.594  52.598  1.00  0.00     0.037 A 
HETATM   11 CL2  UNL     1      23.610  -1.053  54.752  1.00  0.00    -0.096 Cl
HETATM   12  C12 UNL     1      26.574   1.512  51.632  1.00  0.00     0.144 A 
HETATM   13  O3  UNL     1      25.394   2.093  51.183  1.00  0.00    -0.311 OA
ENDBRANCH   3   6
ENDBRANCH   1   3
BRANCH   1  14
HETATM   14  N1  UNL     1      24.865   5.156  50.728  1.00  0.00    -0.285 NA
HETATM   15  H2  UNL     1      25.515   4.376  50.975  1.00  0.00     0.127 HD
BRANCH  14  16
HETATM   16  C1  UNL     1      24.884   5.413  49.298  1.00  0.00     0.132 C 
BRANCH  16  17
HETATM   17  C2  UNL     1      26.287   5.677  48.826  1.00  0.00    -0.027 A 
HETATM   18  C3  UNL     1      26.703   6.882  48.269  1.00  0.00     0.013 A 
HETATM   19  C4  UNL     1      28.034   6.970  47.880  1.00  0.00     0.045 A 
HETATM   20  C5  UNL     1      28.933   5.955  48.016  1.00  0.00     0.125 A 
HETATM   21 CL1  UNL     1      30.602   6.195  47.481  1.00  0.00    -0.062 Cl
HETATM   22  N2  UNL     1      28.504   4.802  48.557  1.00  0.00    -0.248 NA
HETATM   23  C6  UNL     1      27.217   4.666  48.951  1.00  0.00     0.126 A 
ENDBRANCH  16  17
ENDBRANCH  14  16
ENDBRANCH   1  14
TORSDOF 5
ENDMDL
