MODEL 1
REMARK VINA RESULT:      -9.0      0.000      0.000
REMARK  7 active torsions:
REMARK  status: ('A' for Active; 'I' for Inactive)
REMARK    1  A    between atoms: C4_6  and  N3_7 
REMARK    2  A    between atoms: N3_7  and  C5_8 
REMARK    3  A    between atoms: C8_11  and  O1_12 
REMARK    4  A    between atoms: O1_12  and  C9_13 
REMARK    5  A    between atoms: C9_13  and  C10_14 
REMARK    6  A    between atoms: C18_24  and  C19_25 
REMARK    7  A    between atoms: C20_26  and  C21_27 
ROOT
HETATM    1  N3  UNL     1      22.598   0.760  51.293  1.00  0.00    -0.340 N 
HETATM    2  H5  UNL     1      22.757   0.345  50.349  1.00  0.00     0.167 HD
ENDROOT
BRANCH   1   3
HETATM    3  C4  UNL     1      22.062   0.092  52.428  1.00  0.00     0.150 A 
HETATM    4  N2  UNL     1      20.744  -0.184  52.556  1.00  0.00    -0.223 NA
HETATM    5  C3  UNL     1      20.291  -0.810  53.658  1.00  0.00     0.235 A 
HETATM    6  N1  UNL     1      21.077  -1.199  54.679  1.00  0.00    -0.245 NA
HETATM    7  C2  UNL     1      22.393  -0.946  54.597  1.00  0.00     0.054 A 
HETATM    8  C1  UNL     1      23.321  -1.355  55.710  1.00  0.00     0.072 C 
HETATM    9  C18 UNL     1      22.887  -0.294  53.459  1.00  0.00     0.088 A 
BRANCH   9  10
HETATM   10  C19 UNL     1      24.318  -0.042  53.458  1.00  0.00    -0.055 C 
HETATM   11  C20 UNL     1      25.495   0.183  53.469  1.00  0.00    -0.061 C 
BRANCH  11  12
HETATM   12  C21 UNL     1      26.898   0.475  53.484  1.00  0.00     0.017 A 
HETATM   13  C22 UNL     1      27.254   1.751  53.525  1.00  0.00     0.013 A 
HETATM   14  C23 UNL     1      28.620   2.293  53.548  1.00  0.00     0.147 A 
HETATM   15  N4  UNL     1      29.628   1.257  53.528  1.00  0.00    -0.395 N 
HETATM   16  C24 UNL     1      29.230  -0.108  53.483  1.00  0.00     0.084 A 
HETATM   17  H18 UNL     1      30.624   1.577  53.549  1.00  0.00     0.159 HD
HETATM   18  C25 UNL     1      27.970  -0.510  53.462  1.00  0.00     0.037 A 
ENDBRANCH  11  12
ENDBRANCH   9  10
ENDBRANCH   1   3
BRANCH   1  19
HETATM   19  C5  UNL     1      22.965   2.148  51.430  1.00  0.00     0.035 A 
HETATM   20  C6  UNL     1      22.211   3.069  52.138  1.00  0.00     0.032 A 
HETATM   21  C7  UNL     1      22.620   4.391  52.208  1.00  0.00     0.041 A 
HETATM   22  C8  UNL     1      23.768   4.846  51.592  1.00  0.00     0.091 A 
HETATM   23  C16 UNL     1      24.553   3.943  50.870  1.00  0.00     0.069 A 
HETATM   24 CL1  UNL     1      26.024   4.444  50.058  1.00  0.00    -0.081 Cl
HETATM   25  C17 UNL     1      24.109   2.633  50.826  1.00  0.00     0.056 A 
BRANCH  22  26
HETATM   26  O1  UNL     1      24.240   6.140  51.611  1.00  0.00    -0.345 OA
BRANCH  26  27
HETATM   27  C9  UNL     1      23.743   7.207  50.829  1.00  0.00     0.214 C 
BRANCH  27  28
HETATM   28  C10 UNL     1      24.803   7.518  49.823  1.00  0.00    -0.031 A 
HETATM   29  C11 UNL     1      24.542   7.348  48.482  1.00  0.00     0.009 A 
HETATM   30  C12 UNL     1      25.525   7.626  47.534  1.00  0.00     0.004 A 
HETATM   31  C13 UNL     1      26.774   8.076  47.921  1.00  0.00     0.042 A 
HETATM   32  C14 UNL     1      27.031   8.247  49.268  1.00  0.00     0.117 A 
HETATM   33  F1  UNL     1      28.265   8.688  49.610  1.00  0.00    -0.206 F 
HETATM   34  C15 UNL     1      26.069   7.975  50.208  1.00  0.00     0.051 A 
ENDBRANCH  27  28
ENDBRANCH  26  27
ENDBRANCH  22  26
ENDBRANCH   1  19
TORSDOF 7
ENDMDL
MODEL 2
REMARK VINA RESULT:      -8.9      3.483      6.978
REMARK  7 active torsions:
REMARK  status: ('A' for Active; 'I' for Inactive)
REMARK    1  A    between atoms: C4_6  and  N3_7 
REMARK    2  A    between atoms: N3_7  and  C5_8 
REMARK    3  A    between atoms: C8_11  and  O1_12 
REMARK    4  A    between atoms: O1_12  and  C9_13 
REMARK    5  A    between atoms: C9_13  and  C10_14 
REMARK    6  A    between atoms: C18_24  and  C19_25 
REMARK    7  A    between atoms: C20_26  and  C21_27 
ROOT
HETATM    1  N3  UNL     1      21.409   3.835  51.602  1.00  0.00    -0.340 N 
HETATM    2  H5  UNL     1      21.225   4.696  52.163  1.00  0.00     0.167 HD
ENDROOT
BRANCH   1   3
HETATM    3  C4  UNL     1      20.794   3.484  50.369  1.00  0.00     0.150 A 
HETATM    4  N2  UNL     1      19.533   2.999  50.296  1.00  0.00    -0.223 NA
HETATM    5  C3  UNL     1      19.006   2.674  49.101  1.00  0.00     0.235 A 
HETATM    6  N1  UNL     1      19.659   2.800  47.931  1.00  0.00    -0.245 NA
HETATM    7  C2  UNL     1      20.914   3.276  47.954  1.00  0.00     0.054 A 
HETATM    8  C1  UNL     1      21.695   3.436  46.676  1.00  0.00     0.072 C 
HETATM    9  C18 UNL     1      21.484   3.621  49.187  1.00  0.00     0.088 A 
BRANCH   9  10
HETATM   10  C19 UNL     1      22.851   4.110  49.126  1.00  0.00    -0.055 C 
HETATM   11  C20 UNL     1      23.971   4.533  49.080  1.00  0.00    -0.061 C 
BRANCH  11  12
HETATM   12  C21 UNL     1      25.302   5.061  49.021  1.00  0.00     0.017 A 
HETATM   13  C22 UNL     1      25.432   6.378  48.936  1.00  0.00     0.013 A 
HETATM   14  C23 UNL     1      26.684   7.145  48.864  1.00  0.00     0.147 A 
HETATM   15  N4  UNL     1      27.856   6.298  48.901  1.00  0.00    -0.395 N 
HETATM   16  C24 UNL     1      27.699   4.888  48.991  1.00  0.00     0.084 A 
HETATM   17  H18 UNL     1      28.781   6.784  48.858  1.00  0.00     0.159 HD
HETATM   18  C25 UNL     1      26.528   4.276  49.049  1.00  0.00     0.037 A 
ENDBRANCH  11  12
ENDBRANCH   9  10
ENDBRANCH   1   3
BRANCH   1  19
HETATM   19  C5  UNL     1      22.385   2.930  52.159  1.00  0.00     0.035 A 
HETATM   20  C6  UNL     1      23.661   3.321  52.530  1.00  0.00     0.032 A 
HETATM   21  C7  UNL     1      24.549   2.388  53.039  1.00  0.00     0.041 A 
HETATM   22  C8  UNL     1      24.219   1.057  53.197  1.00  0.00     0.091 A 
HETATM   23  C16 UNL     1      22.939   0.629  52.833  1.00  0.00     0.069 A 
HETATM   24 CL1  UNL     1      22.444  -1.045  53.001  1.00  0.00    -0.081 Cl
HETATM   25  C17 UNL     1      22.084   1.593  52.329  1.00  0.00     0.056 A 
BRANCH  22  26
HETATM   26  O1  UNL     1      25.043   0.070  53.692  1.00  0.00    -0.345 OA
BRANCH  26  27
HETATM   27  C9  UNL     1      25.839  -0.800  52.914  1.00  0.00     0.214 C 
BRANCH  27  28
HETATM   28  C10 UNL     1      27.260  -0.447  53.212  1.00  0.00    -0.031 A 
HETATM   29  C11 UNL     1      28.236  -1.414  53.119  1.00  0.00     0.009 A 
HETATM   30  C12 UNL     1      29.565  -1.100  53.403  1.00  0.00     0.004 A 
HETATM   31  C13 UNL     1      29.924   0.181  53.781  1.00  0.00     0.042 A 
HETATM   32  C14 UNL     1      28.941   1.148  53.871  1.00  0.00     0.117 A 
HETATM   33  F1  UNL     1      29.329   2.391  54.244  1.00  0.00    -0.206 F 
HETATM   34  C15 UNL     1      27.630   0.847  53.593  1.00  0.00     0.051 A 
ENDBRANCH  27  28
ENDBRANCH  26  27
ENDBRANCH  22  26
ENDBRANCH   1  19
TORSDOF 7
ENDMDL
MODEL 3
REMARK VINA RESULT:      -8.9      1.088      1.256
REMARK  7 active torsions:
REMARK  status: ('A' for Active; 'I' for Inactive)
REMARK    1  A    between atoms: C4_6  and  N3_7 
REMARK    2  A    between atoms: N3_7  and  C5_8 
REMARK    3  A    between atoms: C8_11  and  O1_12 
REMARK    4  A    between atoms: O1_12  and  C9_13 
REMARK    5  A    between atoms: C9_13  and  C10_14 
REMARK    6  A    between atoms: C18_24  and  C19_25 
REMARK    7  A    between atoms: C20_26  and  C21_27 
ROOT
HETATM    1  N3  UNL     1      22.280   1.052  50.623  1.00  0.00    -0.340 N 
HETATM    2  H5  UNL     1      22.647   0.594  49.761  1.00  0.00     0.167 HD
ENDROOT
BRANCH   1   3
HETATM    3  C4  UNL     1      21.368   0.485  51.556  1.00  0.00     0.150 A 
HETATM    4  N2  UNL     1      20.027   0.559  51.400  1.00  0.00    -0.223 NA
HETATM    5  C3  UNL     1      19.211   0.013  52.321  1.00  0.00     0.235 A 
HETATM    6  N1  UNL     1      19.643  -0.626  53.424  1.00  0.00    -0.245 NA
HETATM    7  C2  UNL     1      20.967  -0.723  53.622  1.00  0.00     0.054 A 
HETATM    8  C1  UNL     1      21.509  -1.425  54.840  1.00  0.00     0.072 C 
HETATM    9  C18 UNL     1      21.836  -0.162  52.677  1.00  0.00     0.088 A 
BRANCH   9  10
HETATM   10  C19 UNL     1      23.251  -0.295  52.975  1.00  0.00    -0.055 C 
HETATM   11  C20 UNL     1      24.423  -0.390  53.208  1.00  0.00    -0.061 C 
BRANCH  11  12
HETATM   12  C21 UNL     1      25.829  -0.494  53.464  1.00  0.00     0.017 A 
HETATM   13  C22 UNL     1      26.312   0.183  54.497  1.00  0.00     0.013 A 
HETATM   14  C23 UNL     1      27.708   0.232  54.953  1.00  0.00     0.147 A 
HETATM   15  N4  UNL     1      28.587  -0.578  54.138  1.00  0.00    -0.395 N 
HETATM   16  C24 UNL     1      28.053  -1.298  53.033  1.00  0.00     0.084 A 
HETATM   17  H18 UNL     1      29.596  -0.591  54.414  1.00  0.00     0.159 HD
HETATM   18  C25 UNL     1      26.777  -1.283  52.689  1.00  0.00     0.037 A 
ENDBRANCH  11  12
ENDBRANCH   9  10
ENDBRANCH   1   3
BRANCH   1  19
HETATM   19  C5  UNL     1      22.759   2.390  50.866  1.00  0.00     0.035 A 
HETATM   20  C6  UNL     1      22.036   3.343  51.565  1.00  0.00     0.032 A 
HETATM   21  C7  UNL     1      22.556   4.615  51.740  1.00  0.00     0.041 A 
HETATM   22  C8  UNL     1      23.786   4.989  51.240  1.00  0.00     0.091 A 
HETATM   23  C16 UNL     1      24.543   4.052  50.530  1.00  0.00     0.069 A 
HETATM   24 CL1  UNL     1      26.114   4.451  49.862  1.00  0.00    -0.081 Cl
HETATM   25  C17 UNL     1      23.987   2.794  50.379  1.00  0.00     0.056 A 
BRANCH  22  26
HETATM   26  O1  UNL     1      24.371   6.230  51.368  1.00  0.00    -0.345 OA
BRANCH  26  27
HETATM   27  C9  UNL     1      23.989   7.394  50.663  1.00  0.00     0.214 C 
BRANCH  27  28
HETATM   28  C10 UNL     1      25.091   7.677  49.694  1.00  0.00    -0.031 A 
HETATM   29  C11 UNL     1      24.882   7.478  48.348  1.00  0.00     0.009 A 
HETATM   30  C12 UNL     1      25.905   7.731  47.434  1.00  0.00     0.004 A 
HETATM   31  C13 UNL     1      27.140   8.182  47.862  1.00  0.00     0.042 A 
HETATM   32  C14 UNL     1      27.344   8.381  49.214  1.00  0.00     0.117 A 
HETATM   33  F1  UNL     1      28.565   8.824  49.596  1.00  0.00    -0.206 F 
HETATM   34  C15 UNL     1      26.342   8.136  50.120  1.00  0.00     0.051 A 
ENDBRANCH  27  28
ENDBRANCH  26  27
ENDBRANCH  22  26
ENDBRANCH   1  19
TORSDOF 7
ENDMDL
MODEL 4
REMARK VINA RESULT:      -8.8      2.314      5.370
REMARK  7 active torsions:
REMARK  status: ('A' for Active; 'I' for Inactive)
REMARK    1  A    between atoms: C4_6  and  N3_7 
REMARK    2  A    between atoms: N3_7  and  C5_8 
REMARK    3  A    between atoms: C8_11  and  O1_12 
REMARK    4  A    between atoms: O1_12  and  C9_13 
REMARK    5  A    between atoms: C9_13  and  C10_14 
REMARK    6  A    between atoms: C18_24  and  C19_25 
REMARK    7  A    between atoms: C20_26  and  C21_27 
ROOT
HETATM    1  N3  UNL     1      25.487   2.401  51.162  1.00  0.00    -0.340 N 
HETATM    2  H5  UNL     1      24.627   1.894  50.856  1.00  0.00     0.167 HD
ENDROOT
BRANCH   1   3
HETATM    3  C4  UNL     1      26.367   2.015  52.210  1.00  0.00     0.150 A 
HETATM    4  N2  UNL     1      27.660   2.407  52.256  1.00  0.00    -0.223 NA
HETATM    5  C3  UNL     1      28.450   2.003  53.269  1.00  0.00     0.235 A 
HETATM    6  N1  UNL     1      28.036   1.210  54.275  1.00  0.00    -0.245 NA
HETATM    7  C2  UNL     1      26.759   0.796  54.271  1.00  0.00     0.054 A 
HETATM    8  C1  UNL     1      26.241  -0.094  55.370  1.00  0.00     0.072 C 
HETATM    9  C18 UNL     1      25.919   1.204  53.227  1.00  0.00     0.088 A 
BRANCH   9  10
HETATM   10  C19 UNL     1      24.559   0.696  53.288  1.00  0.00    -0.055 C 
HETATM   11  C20 UNL     1      23.432   0.293  53.351  1.00  0.00    -0.061 C 
BRANCH  11  12
HETATM   12  C21 UNL     1      22.083  -0.178  53.448  1.00  0.00     0.017 A 
HETATM   13  C22 UNL     1      21.153   0.493  52.783  1.00  0.00     0.013 A 
HETATM   14  C23 UNL     1      19.713   0.203  52.730  1.00  0.00     0.147 A 
HETATM   15  N4  UNL     1      19.353  -0.961  53.509  1.00  0.00    -0.395 N 
HETATM   16  C24 UNL     1      20.362  -1.670  54.217  1.00  0.00     0.084 A 
HETATM   17  H18 UNL     1      18.341  -1.225  53.509  1.00  0.00     0.159 HD
HETATM   18  C25 UNL     1      21.642  -1.337  54.212  1.00  0.00     0.037 A 
ENDBRANCH  11  12
ENDBRANCH   9  10
ENDBRANCH   1   3
BRANCH   1  19
HETATM   19  C5  UNL     1      25.785   3.610  50.433  1.00  0.00     0.035 A 
HETATM   20  C6  UNL     1      26.728   3.675  49.420  1.00  0.00     0.032 A 
HETATM   21  C7  UNL     1      26.972   4.879  48.779  1.00  0.00     0.041 A 
HETATM   22  C8  UNL     1      26.308   6.043  49.108  1.00  0.00     0.091 A 
HETATM   23  C16 UNL     1      25.349   6.013  50.125  1.00  0.00     0.069 A 
HETATM   24 CL1  UNL     1      24.464   7.449  50.601  1.00  0.00    -0.081 Cl
HETATM   25  C17 UNL     1      25.136   4.790  50.738  1.00  0.00     0.056 A 
BRANCH  22  26
HETATM   26  O1  UNL     1      26.494   7.276  48.522  1.00  0.00    -0.345 OA
BRANCH  26  27
HETATM   27  C9  UNL     1      27.324   7.539  47.409  1.00  0.00     0.214 C 
BRANCH  27  28
HETATM   28  C10 UNL     1      28.699   7.752  47.954  1.00  0.00    -0.031 A 
HETATM   29  C11 UNL     1      29.688   6.832  47.685  1.00  0.00     0.009 A 
HETATM   30  C12 UNL     1      30.973   7.013  48.193  1.00  0.00     0.004 A 
HETATM   31  C13 UNL     1      31.277   8.114  48.974  1.00  0.00     0.042 A 
HETATM   32  C14 UNL     1      30.281   9.035  49.240  1.00  0.00     0.117 A 
HETATM   33  F1  UNL     1      30.614  10.100  50.007  1.00  0.00    -0.206 F 
HETATM   34  C15 UNL     1      29.013   8.864  48.742  1.00  0.00     0.051 A 
ENDBRANCH  27  28
ENDBRANCH  26  27
ENDBRANCH  22  26
ENDBRANCH   1  19
TORSDOF 7
ENDMDL
MODEL 5
REMARK VINA RESULT:      -8.7      3.726      7.507
REMARK  7 active torsions:
REMARK  status: ('A' for Active; 'I' for Inactive)
REMARK    1  A    between atoms: C4_6  and  N3_7 
REMARK    2  A    between atoms: N3_7  and  C5_8 
REMARK    3  A    between atoms: C8_11  and  O1_12 
REMARK    4  A    between atoms: O1_12  and  C9_13 
REMARK    5  A    between atoms: C9_13  and  C10_14 
REMARK    6  A    between atoms: C18_24  and  C19_25 
REMARK    7  A    between atoms: C20_26  and  C21_27 
ROOT
HETATM    1  N3  UNL     1      22.170   5.249  51.859  1.00  0.00    -0.340 N 
HETATM    2  H5  UNL     1      21.955   5.809  52.713  1.00  0.00     0.167 HD
ENDROOT
BRANCH   1   3
HETATM    3  C4  UNL     1      21.439   5.257  50.639  1.00  0.00     0.150 A 
HETATM    4  N2  UNL     1      21.482   6.293  49.771  1.00  0.00    -0.223 NA
HETATM    5  C3  UNL     1      20.761   6.250  48.635  1.00  0.00     0.235 A 
HETATM    6  N1  UNL     1      19.974   5.217  48.283  1.00  0.00    -0.245 NA
HETATM    7  C2  UNL     1      19.900   4.165  49.114  1.00  0.00     0.054 A 
HETATM    8  C1  UNL     1      19.033   2.981  48.773  1.00  0.00     0.072 C 
HETATM    9  C18 UNL     1      20.641   4.188  50.302  1.00  0.00     0.088 A 
BRANCH   9  10
HETATM   10  C19 UNL     1      20.490   3.020  51.153  1.00  0.00    -0.055 C 
HETATM   11  C20 UNL     1      20.382   2.047  51.846  1.00  0.00    -0.061 C 
BRANCH  11  12
HETATM   12  C21 UNL     1      20.263   0.872  52.655  1.00  0.00     0.017 A 
HETATM   13  C22 UNL     1      21.205   0.659  53.563  1.00  0.00     0.013 A 
HETATM   14  C23 UNL     1      21.297  -0.468  54.503  1.00  0.00     0.147 A 
HETATM   15  N4  UNL     1      20.199  -1.398  54.361  1.00  0.00    -0.395 N 
HETATM   16  C24 UNL     1      19.197  -1.156  53.382  1.00  0.00     0.084 A 
HETATM   17  H18 UNL     1      20.202  -2.222  55.007  1.00  0.00     0.159 HD
HETATM   18  C25 UNL     1      19.192  -0.112  52.571  1.00  0.00     0.037 A 
ENDBRANCH  11  12
ENDBRANCH   9  10
ENDBRANCH   1   3
BRANCH   1  19
HETATM   19  C5  UNL     1      23.324   4.390  51.956  1.00  0.00     0.035 A 
HETATM   20  C6  UNL     1      23.606   3.616  53.070  1.00  0.00     0.032 A 
HETATM   21  C7  UNL     1      24.747   2.830  53.095  1.00  0.00     0.041 A 
HETATM   22  C8  UNL     1      25.638   2.780  52.042  1.00  0.00     0.091 A 
HETATM   23  C16 UNL     1      25.383   3.548  50.902  1.00  0.00     0.069 A 
HETATM   24 CL1  UNL     1      26.467   3.540  49.524  1.00  0.00    -0.081 Cl
HETATM   25  C17 UNL     1      24.233   4.317  50.918  1.00  0.00     0.056 A 
BRANCH  22  26
HETATM   26  O1  UNL     1      26.792   2.029  51.991  1.00  0.00    -0.345 OA
BRANCH  26  27
HETATM   27  C9  UNL     1      27.778   1.971  53.001  1.00  0.00     0.214 C 
BRANCH  27  28
HETATM   28  C10 UNL     1      28.207   0.542  53.086  1.00  0.00    -0.031 A 
HETATM   29  C11 UNL     1      29.448   0.232  53.598  1.00  0.00     0.009 A 
HETATM   30  C12 UNL     1      29.864  -1.096  53.674  1.00  0.00     0.004 A 
HETATM   31  C13 UNL     1      29.044  -2.121  53.239  1.00  0.00     0.042 A 
HETATM   32  C14 UNL     1      27.799  -1.805  52.727  1.00  0.00     0.117 A 
HETATM   33  F1  UNL     1      27.023  -2.833  52.311  1.00  0.00    -0.206 F 
HETATM   34  C15 UNL     1      27.381  -0.499  52.649  1.00  0.00     0.051 A 
ENDBRANCH  27  28
ENDBRANCH  26  27
ENDBRANCH  22  26
ENDBRANCH   1  19
TORSDOF 7
ENDMDL
MODEL 6
REMARK VINA RESULT:      -8.6      4.431      6.251
REMARK  7 active torsions:
REMARK  status: ('A' for Active; 'I' for Inactive)
REMARK    1  A    between atoms: C4_6  and  N3_7 
REMARK    2  A    between atoms: N3_7  and  C5_8 
REMARK    3  A    between atoms: C8_11  and  O1_12 
REMARK    4  A    between atoms: O1_12  and  C9_13 
REMARK    5  A    between atoms: C9_13  and  C10_14 
REMARK    6  A    between atoms: C18_24  and  C19_25 
REMARK    7  A    between atoms: C20_26  and  C21_27 
ROOT
HETATM    1  N3  UNL     1      24.599   5.185  49.975  1.00  0.00    -0.340 N 
HETATM    2  H5  UNL     1      24.506   5.453  50.979  1.00  0.00     0.167 HD
ENDROOT
BRANCH   1   3
HETATM    3  C4  UNL     1      23.581   4.631  49.152  1.00  0.00     0.150 A 
HETATM    4  N2  UNL     1      22.965   5.340  48.180  1.00  0.00    -0.223 NA
HETATM    5  C3  UNL     1      22.000   4.766  47.437  1.00  0.00     0.235 A 
HETATM    6  N1  UNL     1      21.588   3.494  47.591  1.00  0.00    -0.245 NA
HETATM    7  C2  UNL     1      22.172   2.751  48.545  1.00  0.00     0.054 A 
HETATM    8  C1  UNL     1      21.750   1.322  48.765  1.00  0.00     0.072 C 
HETATM    9  C18 UNL     1      23.178   3.327  49.331  1.00  0.00     0.088 A 
BRANCH   9  10
HETATM   10  C19 UNL     1      23.744   2.462  50.351  1.00  0.00    -0.055 C 
HETATM   11  C20 UNL     1      24.227   1.761  51.196  1.00  0.00    -0.061 C 
BRANCH  11  12
HETATM   12  C21 UNL     1      24.825   0.934  52.200  1.00  0.00     0.017 A 
HETATM   13  C22 UNL     1      26.147   0.832  52.198  1.00  0.00     0.013 A 
HETATM   14  C23 UNL     1      26.980   0.049  53.122  1.00  0.00     0.147 A 
HETATM   15  N4  UNL     1      26.198  -0.652  54.116  1.00  0.00    -0.395 N 
HETATM   16  C24 UNL     1      24.780  -0.534  54.104  1.00  0.00     0.084 A 
HETATM   17  H18 UNL     1      26.733  -1.225  54.809  1.00  0.00     0.159 HD
HETATM   18  C25 UNL     1      24.107   0.194  53.229  1.00  0.00     0.037 A 
ENDBRANCH  11  12
ENDBRANCH   9  10
ENDBRANCH   1   3
BRANCH   1  19
HETATM   19  C5  UNL     1      25.901   5.406  49.394  1.00  0.00     0.035 A 
HETATM   20  C6  UNL     1      26.811   4.389  49.155  1.00  0.00     0.032 A 
HETATM   21  C7  UNL     1      28.051   4.684  48.612  1.00  0.00     0.041 A 
HETATM   22  C8  UNL     1      28.434   5.971  48.291  1.00  0.00     0.091 A 
HETATM   23  C16 UNL     1      27.539   7.021  48.518  1.00  0.00     0.069 A 
HETATM   24 CL1  UNL     1      27.951   8.682  48.139  1.00  0.00    -0.081 Cl
HETATM   25  C17 UNL     1      26.312   6.682  49.061  1.00  0.00     0.056 A 
BRANCH  22  26
HETATM   26  O1  UNL     1      29.644   6.346  47.751  1.00  0.00    -0.345 OA
BRANCH  26  27
HETATM   27  C9  UNL     1      30.819   6.622  48.486  1.00  0.00     0.214 C 
BRANCH  27  28
HETATM   28  C10 UNL     1      31.821   5.591  48.077  1.00  0.00    -0.031 A 
HETATM   29  C11 UNL     1      33.143   5.747  48.432  1.00  0.00     0.009 A 
HETATM   30  C12 UNL     1      34.089   4.798  48.049  1.00  0.00     0.004 A 
HETATM   31  C13 UNL     1      33.720   3.689  47.309  1.00  0.00     0.042 A 
HETATM   32  C14 UNL     1      32.392   3.537  46.957  1.00  0.00     0.117 A 
HETATM   33  F1  UNL     1      32.067   2.440  46.232  1.00  0.00    -0.206 F 
HETATM   34  C15 UNL     1      31.454   4.467  47.330  1.00  0.00     0.051 A 
ENDBRANCH  27  28
ENDBRANCH  26  27
ENDBRANCH  22  26
ENDBRANCH   1  19
TORSDOF 7
ENDMDL
MODEL 7
REMARK VINA RESULT:      -8.5      4.556      8.423
REMARK  7 active torsions:
REMARK  status: ('A' for Active; 'I' for Inactive)
REMARK    1  A    between atoms: C4_6  and  N3_7 
REMARK    2  A    between atoms: N3_7  and  C5_8 
REMARK    3  A    between atoms: C8_11  and  O1_12 
REMARK    4  A    between atoms: O1_12  and  C9_13 
REMARK    5  A    between atoms: C9_13  and  C10_14 
REMARK    6  A    between atoms: C18_24  and  C19_25 
REMARK    7  A    between atoms: C20_26  and  C21_27 
ROOT
HETATM    1  N3  UNL     1      23.556   4.214  52.542  1.00  0.00    -0.340 N 
HETATM    2  H5  UNL     1      23.864   4.460  53.508  1.00  0.00     0.167 HD
ENDROOT
BRANCH   1   3
HETATM    3  C4  UNL     1      24.080   4.740  51.330  1.00  0.00     0.150 A 
HETATM    4  N2  UNL     1      23.518   5.790  50.689  1.00  0.00    -0.223 NA
HETATM    5  C3  UNL     1      24.052   6.240  49.538  1.00  0.00     0.235 A 
HETATM    6  N1  UNL     1      25.142   5.707  48.955  1.00  0.00    -0.245 NA
HETATM    7  C2  UNL     1      25.734   4.662  49.555  1.00  0.00     0.054 A 
HETATM    8  C1  UNL     1      26.955   4.023  48.948  1.00  0.00     0.072 C 
HETATM    9  C18 UNL     1      25.195   4.176  50.754  1.00  0.00     0.088 A 
BRANCH   9  10
HETATM   10  C19 UNL     1      25.884   3.032  51.328  1.00  0.00    -0.055 C 
HETATM   11  C20 UNL     1      26.436   2.086  51.815  1.00  0.00    -0.061 C 
BRANCH  11  12
HETATM   12  C21 UNL     1      27.085   0.960  52.418  1.00  0.00     0.017 A 
HETATM   13  C22 UNL     1      28.132   1.204  53.193  1.00  0.00     0.013 A 
HETATM   14  C23 UNL     1      28.953   0.220  53.913  1.00  0.00     0.147 A 
HETATM   15  N4  UNL     1      28.499  -1.138  53.708  1.00  0.00    -0.395 N 
HETATM   16  C24 UNL     1      27.374  -1.382  52.873  1.00  0.00     0.084 A 
HETATM   17  H18 UNL     1      29.039  -1.887  54.199  1.00  0.00     0.159 HD
HETATM   18  C25 UNL     1      26.691  -0.432  52.256  1.00  0.00     0.037 A 
ENDBRANCH  11  12
ENDBRANCH   9  10
ENDBRANCH   1   3
BRANCH   1  19
HETATM   19  C5  UNL     1      22.492   3.244  52.460  1.00  0.00     0.035 A 
HETATM   20  C6  UNL     1      21.183   3.575  52.149  1.00  0.00     0.032 A 
HETATM   21  C7  UNL     1      20.211   2.588  52.109  1.00  0.00     0.041 A 
HETATM   22  C8  UNL     1      20.488   1.262  52.371  1.00  0.00     0.091 A 
HETATM   23  C16 UNL     1      21.799   0.893  52.687  1.00  0.00     0.069 A 
HETATM   24 CL1  UNL     1      22.231  -0.770  53.035  1.00  0.00    -0.081 Cl
HETATM   25  C17 UNL     1      22.738   1.909  52.716  1.00  0.00     0.056 A 
BRANCH  22  26
HETATM   26  O1  UNL     1      19.582   0.224  52.354  1.00  0.00    -0.345 OA
BRANCH  26  27
HETATM   27  C9  UNL     1      18.255   0.303  51.876  1.00  0.00     0.214 C 
BRANCH  27  28
HETATM   28  C10 UNL     1      17.568  -0.942  52.338  1.00  0.00    -0.031 A 
HETATM   29  C11 UNL     1      18.214  -1.793  53.207  1.00  0.00     0.009 A 
HETATM   30  C12 UNL     1      17.588  -2.962  53.639  1.00  0.00     0.004 A 
HETATM   31  C13 UNL     1      16.316  -3.286  53.204  1.00  0.00     0.042 A 
HETATM   32  C14 UNL     1      15.672  -2.427  52.333  1.00  0.00     0.117 A 
HETATM   33  F1  UNL     1      14.428  -2.777  51.928  1.00  0.00    -0.206 F 
HETATM   34  C15 UNL     1      16.281  -1.274  51.903  1.00  0.00     0.051 A 
ENDBRANCH  27  28
ENDBRANCH  26  27
ENDBRANCH  22  26
ENDBRANCH   1  19
TORSDOF 7
ENDMDL
MODEL 8
REMARK VINA RESULT:      -8.5      2.544      3.917
REMARK  7 active torsions:
REMARK  status: ('A' for Active; 'I' for Inactive)
REMARK    1  A    between atoms: C4_6  and  N3_7 
REMARK    2  A    between atoms: N3_7  and  C5_8 
REMARK    3  A    between atoms: C8_11  and  O1_12 
REMARK    4  A    between atoms: O1_12  and  C9_13 
REMARK    5  A    between atoms: C9_13  and  C10_14 
REMARK    6  A    between atoms: C18_24  and  C19_25 
REMARK    7  A    between atoms: C20_26  and  C21_27 
ROOT
HETATM    1  N3  UNL     1      23.797   4.671  52.236  1.00  0.00    -0.340 N 
HETATM    2  H5  UNL     1      24.151   4.863  53.199  1.00  0.00     0.167 HD
ENDROOT
BRANCH   1   3
HETATM    3  C4  UNL     1      22.636   3.924  51.896  1.00  0.00     0.150 A 
HETATM    4  N2  UNL     1      21.484   4.509  51.498  1.00  0.00    -0.223 NA
HETATM    5  C3  UNL     1      20.413   3.751  51.198  1.00  0.00     0.235 A 
HETATM    6  N1  UNL     1      20.400   2.407  51.266  1.00  0.00    -0.245 NA
HETATM    7  C2  UNL     1      21.522   1.781  51.657  1.00  0.00     0.054 A 
HETATM    8  C1  UNL     1      21.566   0.279  51.754  1.00  0.00     0.072 C 
HETATM    9  C18 UNL     1      22.649   2.550  51.975  1.00  0.00     0.088 A 
BRANCH   9  10
HETATM   10  C19 UNL     1      23.814   1.798  52.407  1.00  0.00    -0.055 C 
HETATM   11  C20 UNL     1      24.787   1.184  52.746  1.00  0.00    -0.061 C 
BRANCH  11  12
HETATM   12  C21 UNL     1      25.955   0.449  53.129  1.00  0.00     0.017 A 
HETATM   13  C22 UNL     1      26.563   0.812  54.250  1.00  0.00     0.013 A 
HETATM   14  C23 UNL     1      27.768   0.213  54.842  1.00  0.00     0.147 A 
HETATM   15  N4  UNL     1      28.281  -0.889  54.059  1.00  0.00    -0.395 N 
HETATM   16  C24 UNL     1      27.618  -1.265  52.859  1.00  0.00     0.084 A 
HETATM   17  H18 UNL     1      29.137  -1.363  54.430  1.00  0.00     0.159 HD
HETATM   18  C25 UNL     1      26.534  -0.667  52.395  1.00  0.00     0.037 A 
ENDBRANCH  11  12
ENDBRANCH   9  10
ENDBRANCH   1   3
BRANCH   1  19
HETATM   19  C5  UNL     1      24.585   5.230  51.165  1.00  0.00     0.035 A 
HETATM   20  C6  UNL     1      25.292   4.458  50.257  1.00  0.00     0.032 A 
HETATM   21  C7  UNL     1      26.044   5.070  49.267  1.00  0.00     0.041 A 
HETATM   22  C8  UNL     1      26.126   6.441  49.137  1.00  0.00     0.091 A 
HETATM   23  C16 UNL     1      25.424   7.250  50.036  1.00  0.00     0.069 A 
HETATM   24 CL1  UNL     1      25.479   9.000  49.939  1.00  0.00    -0.081 Cl
HETATM   25  C17 UNL     1      24.686   6.598  51.009  1.00  0.00     0.056 A 
BRANCH  22  26
HETATM   26  O1  UNL     1      26.850   7.124  48.185  1.00  0.00    -0.345 OA
BRANCH  26  27
HETATM   27  C9  UNL     1      28.146   6.781  47.738  1.00  0.00     0.214 C 
BRANCH  27  28
HETATM   28  C10 UNL     1      29.077   7.778  48.349  1.00  0.00    -0.031 A 
HETATM   29  C11 UNL     1      28.646   9.067  48.569  1.00  0.00     0.009 A 
HETATM   30  C12 UNL     1      29.508  10.009  49.130  1.00  0.00     0.004 A 
HETATM   31  C13 UNL     1      30.803   9.667  49.473  1.00  0.00     0.042 A 
HETATM   32  C14 UNL     1      31.230   8.372  49.251  1.00  0.00     0.117 A 
HETATM   33  F1  UNL     1      32.504   8.073  49.600  1.00  0.00    -0.206 F 
HETATM   34  C15 UNL     1      30.388   7.438  48.700  1.00  0.00     0.051 A 
ENDBRANCH  27  28
ENDBRANCH  26  27
ENDBRANCH  22  26
ENDBRANCH   1  19
TORSDOF 7
ENDMDL
MODEL 9
REMARK VINA RESULT:      -8.4      4.999      9.141
REMARK  7 active torsions:
REMARK  status: ('A' for Active; 'I' for Inactive)
REMARK    1  A    between atoms: C4_6  and  N3_7 
REMARK    2  A    between atoms: N3_7  and  C5_8 
REMARK    3  A    between atoms: C8_11  and  O1_12 
REMARK    4  A    between atoms: O1_12  and  C9_13 
REMARK    5  A    between atoms: C9_13  and  C10_14 
REMARK    6  A    between atoms: C18_24  and  C19_25 
REMARK    7  A    between atoms: C20_26  and  C21_27 
ROOT
HETATM    1  N3  UNL     1      27.557   6.589  47.864  1.00  0.00    -0.340 N 
HETATM    2  H5  UNL     1      27.833   6.212  46.930  1.00  0.00     0.167 HD
ENDROOT
BRANCH   1   3
HETATM    3  C4  UNL     1      27.807   7.901  48.352  1.00  0.00     0.150 A 
HETATM    4  N2  UNL     1      26.832   8.828  48.481  1.00  0.00    -0.223 NA
HETATM    5  C3  UNL     1      27.129  10.058  48.939  1.00  0.00     0.235 A 
HETATM    6  N1  UNL     1      28.367  10.450  49.293  1.00  0.00    -0.245 NA
HETATM    7  C2  UNL     1      29.368   9.563  49.182  1.00  0.00     0.054 A 
HETATM    8  C1  UNL     1      30.775   9.946  49.561  1.00  0.00     0.072 C 
HETATM    9  C18 UNL     1      29.083   8.277  48.706  1.00  0.00     0.088 A 
BRANCH   9  10
HETATM   10  C19 UNL     1      30.224   7.385  48.598  1.00  0.00    -0.055 C 
HETATM   11  C20 UNL     1      31.157   6.638  48.495  1.00  0.00    -0.061 C 
BRANCH  11  12
HETATM   12  C21 UNL     1      32.256   5.729  48.362  1.00  0.00     0.017 A 
HETATM   13  C22 UNL     1      33.439   6.136  48.799  1.00  0.00     0.013 A 
HETATM   14  C23 UNL     1      34.703   5.386  48.770  1.00  0.00     0.147 A 
HETATM   15  N4  UNL     1      34.554   4.068  48.195  1.00  0.00    -0.395 N 
HETATM   16  C24 UNL     1      33.277   3.647  47.731  1.00  0.00     0.084 A 
HETATM   17  H18 UNL     1      35.418   3.480  48.151  1.00  0.00     0.159 HD
HETATM   18  C25 UNL     1      32.186   4.391  47.792  1.00  0.00     0.037 A 
ENDBRANCH  11  12
ENDBRANCH   9  10
ENDBRANCH   1   3
BRANCH   1  19
HETATM   19  C5  UNL     1      26.858   5.664  48.722  1.00  0.00     0.035 A 
HETATM   20  C6  UNL     1      27.252   4.349  48.907  1.00  0.00     0.032 A 
HETATM   21  C7  UNL     1      26.516   3.516  49.733  1.00  0.00     0.041 A 
HETATM   22  C8  UNL     1      25.383   3.940  50.397  1.00  0.00     0.091 A 
HETATM   23  C16 UNL     1      24.957   5.262  50.234  1.00  0.00     0.069 A 
HETATM   24 CL1  UNL     1      23.527   5.877  51.040  1.00  0.00    -0.081 Cl
HETATM   25  C17 UNL     1      25.721   6.060  49.400  1.00  0.00     0.056 A 
BRANCH  22  26
HETATM   26  O1  UNL     1      24.597   3.176  51.231  1.00  0.00    -0.345 OA
BRANCH  26  27
HETATM   27  C9  UNL     1      23.522   2.356  50.821  1.00  0.00     0.214 C 
BRANCH  27  28
HETATM   28  C10 UNL     1      23.419   1.263  51.835  1.00  0.00    -0.031 A 
HETATM   29  C11 UNL     1      22.224   0.599  52.003  1.00  0.00     0.009 A 
HETATM   30  C12 UNL     1      22.112  -0.416  52.951  1.00  0.00     0.004 A 
HETATM   31  C13 UNL     1      23.192  -0.774  53.737  1.00  0.00     0.042 A 
HETATM   32  C14 UNL     1      24.390  -0.105  53.564  1.00  0.00     0.117 A 
HETATM   33  F1  UNL     1      25.426  -0.481  54.350  1.00  0.00    -0.206 F 
HETATM   34  C15 UNL     1      24.509   0.896  52.632  1.00  0.00     0.051 A 
ENDBRANCH  27  28
ENDBRANCH  26  27
ENDBRANCH  22  26
ENDBRANCH   1  19
TORSDOF 7
ENDMDL
