MODEL 1
REMARK VINA RESULT:      -7.8      0.000      0.000
REMARK  4 active torsions:
REMARK  status: ('A' for Active; 'I' for Inactive)
REMARK    1  A    between atoms: C2_4  and  O2_5 
REMARK    2  A    between atoms: O2_5  and  C3_6 
REMARK    3  A    between atoms: C3_6  and  N2_7 
REMARK    4  A    between atoms: N2_7  and  C4_8 
ROOT
HETATM    1  C4  UNL     1      25.666   2.011  52.100  1.00  0.00     0.005 C 
HETATM    2  C5  UNL     1      25.286   1.009  52.957  1.00  0.00     0.005 C 
HETATM    3  C6  UNL     1      24.384  -0.045  53.541  1.00  0.00     0.094 C 
HETATM    4  C7  UNL     1      23.135  -0.446  53.187  1.00  0.00     0.071 C 
HETATM    5  N3  UNL     1      21.877  -0.482  52.428  1.00  0.00    -0.387 N 
HETATM    6  C8  UNL     1      21.026   0.626  52.144  1.00  0.00     0.061 A 
HETATM    7  C9  UNL     1      19.705   0.197  52.101  1.00  0.00     0.032 A 
HETATM    8  C10 UNL     1      18.630   1.034  51.837  1.00  0.00     0.002 A 
HETATM    9  C11 UNL     1      18.898   2.364  51.608  1.00  0.00     0.003 A 
HETATM   10  C12 UNL     1      20.219   2.764  51.658  1.00  0.00     0.039 A 
HETATM   11  C13 UNL     1      21.304   1.952  51.917  1.00  0.00     0.095 A 
HETATM   12  O3  UNL     1      22.605   2.421  51.956  1.00  0.00    -0.348 OA
HETATM   13  C14 UNL     1      23.442   2.124  50.875  1.00  0.00     0.181 C 
HETATM   14  C15 UNL     1      24.846   2.609  50.984  1.00  0.00     0.083 C 
HETATM   15  H9  UNL     1      21.678  -1.448  52.102  1.00  0.00     0.159 HD
ENDROOT
BRANCH   1  16
HETATM   16  N2  UNL     1      26.930   2.654  52.187  1.00  0.00    -0.372 N 
HETATM   17  H5  UNL     1      27.110   3.262  51.338  1.00  0.00     0.161 HD
BRANCH  16  18
HETATM   18  C3  UNL     1      27.708   2.374  53.366  1.00  0.00     0.293 C 
BRANCH  18  19
HETATM   19  O2  UNL     1      28.924   1.856  52.986  1.00  0.00    -0.346 OA
BRANCH  19  20
HETATM   20  C2  UNL     1      29.338   0.946  53.950  1.00  0.00     0.251 C 
HETATM   21  N1  UNL     1      29.771  -0.267  53.275  1.00  0.00    -0.308 N 
HETATM   22  C1  UNL     1      28.985  -1.380  53.606  1.00  0.00     0.362 C 
HETATM   23  H1  UNL     1      30.586  -0.213  52.635  1.00  0.00     0.167 HD
HETATM   24  O1  UNL     1      29.130  -2.563  53.224  1.00  0.00    -0.238 OA
HETATM   25  O4  UNL     1      28.007  -0.918  54.444  1.00  0.00    -0.300 OA
HETATM   26  C16 UNL     1      28.265   0.427  54.842  1.00  0.00     0.234 C 
ENDBRANCH  19  20
ENDBRANCH  18  19
ENDBRANCH  16  18
ENDBRANCH   1  16
TORSDOF 4
ENDMDL
MODEL 2
REMARK VINA RESULT:      -7.8      1.714      2.853
REMARK  4 active torsions:
REMARK  status: ('A' for Active; 'I' for Inactive)
REMARK    1  A    between atoms: C2_4  and  O2_5 
REMARK    2  A    between atoms: O2_5  and  C3_6 
REMARK    3  A    between atoms: C3_6  and  N2_7 
REMARK    4  A    between atoms: N2_7  and  C4_8 
ROOT
HETATM    1  C4  UNL     1      23.742  -0.363  53.762  1.00  0.00     0.005 C 
HETATM    2  C5  UNL     1      22.591  -0.916  54.263  1.00  0.00     0.005 C 
HETATM    3  C6  UNL     1      21.117  -1.210  54.345  1.00  0.00     0.094 C 
HETATM    4  C7  UNL     1      20.082  -0.800  53.565  1.00  0.00     0.071 C 
HETATM    5  N3  UNL     1      19.389  -0.106  52.471  1.00  0.00    -0.387 N 
HETATM    6  C8  UNL     1      19.480   1.283  52.156  1.00  0.00     0.061 A 
HETATM    7  C9  UNL     1      18.266   1.721  51.640  1.00  0.00     0.032 A 
HETATM    8  C10 UNL     1      18.030   3.024  51.227  1.00  0.00     0.002 A 
HETATM    9  C11 UNL     1      19.062   3.927  51.339  1.00  0.00     0.003 A 
HETATM   10  C12 UNL     1      20.256   3.465  51.856  1.00  0.00     0.039 A 
HETATM   11  C13 UNL     1      20.517   2.176  52.273  1.00  0.00     0.095 A 
HETATM   12  O3  UNL     1      21.739   1.781  52.786  1.00  0.00    -0.348 OA
HETATM   13  C14 UNL     1      22.575   1.012  51.969  1.00  0.00     0.181 C 
HETATM   14  C15 UNL     1      23.860   0.571  52.582  1.00  0.00     0.083 C 
HETATM   15  H9  UNL     1      18.809  -0.774  51.927  1.00  0.00     0.159 HD
ENDROOT
BRANCH   1  16
HETATM   16  N2  UNL     1      25.018  -0.594  54.341  1.00  0.00    -0.372 N 
HETATM   17  H5  UNL     1      24.975  -0.542  55.398  1.00  0.00     0.161 HD
BRANCH  16  18
HETATM   18  C3  UNL     1      26.098  -0.849  53.422  1.00  0.00     0.293 C 
BRANCH  18  19
HETATM   19  O2  UNL     1      27.291  -0.759  54.100  1.00  0.00    -0.346 OA
BRANCH  19  20
HETATM   20  C2  UNL     1      28.129   0.105  53.407  1.00  0.00     0.251 C 
HETATM   21  N1  UNL     1      29.214   0.496  54.294  1.00  0.00    -0.308 N 
HETATM   22  C1  UNL     1      29.221   1.871  54.567  1.00  0.00     0.362 C 
HETATM   23  H1  UNL     1      29.861  -0.239  54.636  1.00  0.00     0.167 HD
HETATM   24  O1  UNL     1      30.046   2.512  55.256  1.00  0.00    -0.238 OA
HETATM   25  O4  UNL     1      28.132   2.391  53.923  1.00  0.00    -0.300 OA
HETATM   26  C16 UNL     1      27.537   1.426  53.057  1.00  0.00     0.234 C 
ENDBRANCH  19  20
ENDBRANCH  18  19
ENDBRANCH  16  18
ENDBRANCH   1  16
TORSDOF 4
ENDMDL
MODEL 3
REMARK VINA RESULT:      -7.7      3.092      5.773
REMARK  4 active torsions:
REMARK  status: ('A' for Active; 'I' for Inactive)
REMARK    1  A    between atoms: C2_4  and  O2_5 
REMARK    2  A    between atoms: O2_5  and  C3_6 
REMARK    3  A    between atoms: C3_6  and  N2_7 
REMARK    4  A    between atoms: N2_7  and  C4_8 
ROOT
HETATM    1  C4  UNL     1      23.515   2.261  52.193  1.00  0.00     0.005 C 
HETATM    2  C5  UNL     1      23.367   3.540  52.664  1.00  0.00     0.005 C 
HETATM    3  C6  UNL     1      23.423   5.044  52.629  1.00  0.00     0.094 C 
HETATM    4  C7  UNL     1      23.826   5.899  51.652  1.00  0.00     0.071 C 
HETATM    5  N3  UNL     1      24.345   6.333  50.347  1.00  0.00    -0.387 N 
HETATM    6  C8  UNL     1      25.552   5.896  49.727  1.00  0.00     0.061 A 
HETATM    7  C9  UNL     1      26.089   6.934  48.974  1.00  0.00     0.032 A 
HETATM    8  C10 UNL     1      27.261   6.828  48.239  1.00  0.00     0.002 A 
HETATM    9  C11 UNL     1      27.922   5.622  48.262  1.00  0.00     0.003 A 
HETATM   10  C12 UNL     1      27.368   4.608  49.018  1.00  0.00     0.039 A 
HETATM   11  C13 UNL     1      26.205   4.688  49.757  1.00  0.00     0.095 A 
HETATM   12  O3  UNL     1      25.707   3.630  50.496  1.00  0.00    -0.348 OA
HETATM   13  C14 UNL     1      24.594   2.947  49.996  1.00  0.00     0.181 C 
HETATM   14  C15 UNL     1      24.065   1.847  50.850  1.00  0.00     0.083 C 
HETATM   15  H9  UNL     1      23.697   7.017  49.908  1.00  0.00     0.159 HD
ENDROOT
BRANCH   1  16
HETATM   16  N2  UNL     1      23.176   1.117  52.965  1.00  0.00    -0.372 N 
HETATM   17  H5  UNL     1      22.208   1.211  53.384  1.00  0.00     0.161 HD
BRANCH  16  18
HETATM   18  C3  UNL     1      24.171   0.078  53.034  1.00  0.00     0.293 C 
BRANCH  18  19
HETATM   19  O2  UNL     1      24.895   0.230  54.194  1.00  0.00    -0.346 OA
BRANCH  19  20
HETATM   20  C2  UNL     1      26.232  -0.020  53.916  1.00  0.00     0.251 C 
HETATM   21  N1  UNL     1      27.034   0.984  54.599  1.00  0.00    -0.308 N 
HETATM   22  C1  UNL     1      27.753   1.797  53.713  1.00  0.00     0.362 C 
HETATM   23  H1  UNL     1      27.009   1.014  55.636  1.00  0.00     0.167 HD
HETATM   24  O1  UNL     1      28.556   2.714  53.993  1.00  0.00    -0.238 OA
HETATM   25  O4  UNL     1      27.403   1.388  52.454  1.00  0.00    -0.300 OA
HETATM   26  C16 UNL     1      26.639   0.185  52.499  1.00  0.00     0.234 C 
ENDBRANCH  19  20
ENDBRANCH  18  19
ENDBRANCH  16  18
ENDBRANCH   1  16
TORSDOF 4
ENDMDL
MODEL 4
REMARK VINA RESULT:      -7.7      3.830      6.050
REMARK  4 active torsions:
REMARK  status: ('A' for Active; 'I' for Inactive)
REMARK    1  A    between atoms: C2_4  and  O2_5 
REMARK    2  A    between atoms: O2_5  and  C3_6 
REMARK    3  A    between atoms: C3_6  and  N2_7 
REMARK    4  A    between atoms: N2_7  and  C4_8 
ROOT
HETATM    1  C4  UNL     1      26.050   2.844  50.997  1.00  0.00     0.005 C 
HETATM    2  C5  UNL     1      26.671   2.055  51.931  1.00  0.00     0.005 C 
HETATM    3  C6  UNL     1      26.810   0.929  52.920  1.00  0.00     0.094 C 
HETATM    4  C7  UNL     1      25.932  -0.035  53.303  1.00  0.00     0.071 C 
HETATM    5  N3  UNL     1      24.678  -0.800  53.345  1.00  0.00    -0.387 N 
HETATM    6  C8  UNL     1      23.370  -0.271  53.557  1.00  0.00     0.061 A 
HETATM    7  C9  UNL     1      22.598  -1.205  54.240  1.00  0.00     0.032 A 
HETATM    8  C10 UNL     1      21.272  -0.999  54.593  1.00  0.00     0.002 A 
HETATM    9  C11 UNL     1      20.697   0.202  54.243  1.00  0.00     0.003 A 
HETATM   10  C12 UNL     1      21.487   1.111  53.567  1.00  0.00     0.039 A 
HETATM   11  C13 UNL     1      22.806   0.931  53.204  1.00  0.00     0.095 A 
HETATM   12  O3  UNL     1      23.541   1.888  52.528  1.00  0.00    -0.348 OA
HETATM   13  C14 UNL     1      23.798   1.679  51.170  1.00  0.00     0.181 C 
HETATM   14  C15 UNL     1      24.632   2.713  50.497  1.00  0.00     0.083 C 
HETATM   15  H9  UNL     1      24.862  -1.810  53.187  1.00  0.00     0.159 HD
ENDROOT
BRANCH   1  16
HETATM   16  N2  UNL     1      26.694   3.951  50.380  1.00  0.00    -0.372 N 
HETATM   17  H5  UNL     1      27.701   4.036  50.699  1.00  0.00     0.161 HD
BRANCH  16  18
HETATM   18  C3  UNL     1      25.893   4.726  49.468  1.00  0.00     0.293 C 
BRANCH  18  19
HETATM   19  O2  UNL     1      25.606   5.940  50.047  1.00  0.00    -0.346 OA
BRANCH  19  20
HETATM   20  C2  UNL     1      26.019   6.949  49.187  1.00  0.00     0.251 C 
HETATM   21  N1  UNL     1      27.120   7.661  49.817  1.00  0.00    -0.308 N 
HETATM   22  C1  UNL     1      26.817   9.004  50.079  1.00  0.00     0.362 C 
HETATM   23  H1  UNL     1      27.997   7.142  50.012  1.00  0.00     0.167 HD
HETATM   24  O1  UNL     1      27.565   9.878  50.572  1.00  0.00    -0.238 OA
HETATM   25  O4  UNL     1      25.518   9.183  49.686  1.00  0.00    -0.300 OA
HETATM   26  C16 UNL     1      25.036   8.047  48.972  1.00  0.00     0.234 C 
ENDBRANCH  19  20
ENDBRANCH  18  19
ENDBRANCH  16  18
ENDBRANCH   1  16
TORSDOF 4
ENDMDL
MODEL 5
REMARK VINA RESULT:      -7.6      1.837      3.350
REMARK  4 active torsions:
REMARK  status: ('A' for Active; 'I' for Inactive)
REMARK    1  A    between atoms: C2_4  and  O2_5 
REMARK    2  A    between atoms: O2_5  and  C3_6 
REMARK    3  A    between atoms: C3_6  and  N2_7 
REMARK    4  A    between atoms: N2_7  and  C4_8 
ROOT
HETATM    1  C4  UNL     1      23.507  -0.168  53.829  1.00  0.00     0.005 C 
HETATM    2  C5  UNL     1      23.601   0.898  52.970  1.00  0.00     0.005 C 
HETATM    3  C6  UNL     1      23.113   2.060  52.147  1.00  0.00     0.094 C 
HETATM    4  C7  UNL     1      21.866   2.576  51.985  1.00  0.00     0.071 C 
HETATM    5  N3  UNL     1      20.414   2.717  52.160  1.00  0.00    -0.387 N 
HETATM    6  C8  UNL     1      19.436   1.694  51.985  1.00  0.00     0.061 A 
HETATM    7  C9  UNL     1      18.256   2.258  51.514  1.00  0.00     0.032 A 
HETATM    8  C10 UNL     1      17.105   1.528  51.248  1.00  0.00     0.002 A 
HETATM    9  C11 UNL     1      17.145   0.170  51.467  1.00  0.00     0.003 A 
HETATM   10  C12 UNL     1      18.330  -0.363  51.934  1.00  0.00     0.039 A 
HETATM   11  C13 UNL     1      19.486   0.339  52.206  1.00  0.00     0.095 A 
HETATM   12  O3  UNL     1      20.642  -0.261  52.671  1.00  0.00    -0.348 OA
HETATM   13  C14 UNL     1      20.973  -0.090  54.019  1.00  0.00     0.181 C 
HETATM   14  C15 UNL     1      22.251  -0.716  54.462  1.00  0.00     0.083 C 
HETATM   15  H9  UNL     1      20.175   3.687  52.447  1.00  0.00     0.159 HD
ENDROOT
BRANCH   1  16
HETATM   16  N2  UNL     1      24.636  -0.935  54.222  1.00  0.00    -0.372 N 
HETATM   17  H5  UNL     1      24.460  -1.972  54.090  1.00  0.00     0.161 HD
BRANCH  16  18
HETATM   18  C3  UNL     1      25.771  -0.196  54.711  1.00  0.00     0.293 C 
BRANCH  18  19
HETATM   19  O2  UNL     1      26.923  -0.855  54.348  1.00  0.00    -0.346 OA
BRANCH  19  20
HETATM   20  C2  UNL     1      28.012  -0.140  54.830  1.00  0.00     0.251 C 
HETATM   21  N1  UNL     1      27.823   1.261  54.485  1.00  0.00    -0.308 N 
HETATM   22  C1  UNL     1      28.814   1.743  53.618  1.00  0.00     0.362 C 
HETATM   23  H1  UNL     1      27.011   1.765  54.890  1.00  0.00     0.167 HD
HETATM   24  O1  UNL     1      28.948   2.907  53.178  1.00  0.00    -0.238 OA
HETATM   25  O4  UNL     1      29.623   0.676  53.337  1.00  0.00    -0.300 OA
HETATM   26  C16 UNL     1      29.313  -0.438  54.172  1.00  0.00     0.234 C 
ENDBRANCH  19  20
ENDBRANCH  18  19
ENDBRANCH  16  18
ENDBRANCH   1  16
TORSDOF 4
ENDMDL
MODEL 6
REMARK VINA RESULT:      -7.6      1.668      2.454
REMARK  4 active torsions:
REMARK  status: ('A' for Active; 'I' for Inactive)
REMARK    1  A    between atoms: C2_4  and  O2_5 
REMARK    2  A    between atoms: O2_5  and  C3_6 
REMARK    3  A    between atoms: C3_6  and  N2_7 
REMARK    4  A    between atoms: N2_7  and  C4_8 
ROOT
HETATM    1  C4  UNL     1      25.074   2.991  51.307  1.00  0.00     0.005 C 
HETATM    2  C5  UNL     1      24.535   3.076  50.049  1.00  0.00     0.005 C 
HETATM    3  C6  UNL     1      23.450   3.088  49.006  1.00  0.00     0.094 C 
HETATM    4  C7  UNL     1      22.102   2.956  49.119  1.00  0.00     0.071 C 
HETATM    5  N3  UNL     1      20.799   2.771  49.774  1.00  0.00    -0.387 N 
HETATM    6  C8  UNL     1      20.444   1.724  50.675  1.00  0.00     0.061 A 
HETATM    7  C9  UNL     1      19.097   1.418  50.521  1.00  0.00     0.032 A 
HETATM    8  C10 UNL     1      18.438   0.445  51.260  1.00  0.00     0.002 A 
HETATM    9  C11 UNL     1      19.169  -0.250  52.196  1.00  0.00     0.003 A 
HETATM   10  C12 UNL     1      20.504   0.074  52.327  1.00  0.00     0.039 A 
HETATM   11  C13 UNL     1      21.183   1.036  51.606  1.00  0.00     0.095 A 
HETATM   12  O3  UNL     1      22.526   1.308  51.788  1.00  0.00    -0.348 OA
HETATM   13  C14 UNL     1      22.872   2.479  52.470  1.00  0.00     0.181 C 
HETATM   14  C15 UNL     1      24.331   2.752  52.599  1.00  0.00     0.083 C 
HETATM   15  H9  UNL     1      20.144   3.529  49.499  1.00  0.00     0.159 HD
ENDROOT
BRANCH   1  16
HETATM   16  N2  UNL     1      26.470   3.098  51.551  1.00  0.00    -0.372 N 
HETATM   17  H5  UNL     1      26.835   4.055  51.279  1.00  0.00     0.161 HD
BRANCH  16  18
HETATM   18  C3  UNL     1      27.111   1.932  52.101  1.00  0.00     0.293 C 
BRANCH  18  19
HETATM   19  O2  UNL     1      28.326   2.300  52.633  1.00  0.00    -0.346 OA
BRANCH  19  20
HETATM   20  C2  UNL     1      28.481   1.669  53.860  1.00  0.00     0.251 C 
HETATM   21  N1  UNL     1      29.692   0.865  53.808  1.00  0.00    -0.308 N 
HETATM   22  C1  UNL     1      29.439  -0.506  53.954  1.00  0.00     0.362 C 
HETATM   23  H1  UNL     1      30.600   1.348  53.673  1.00  0.00     0.167 HD
HETATM   24  O1  UNL     1      30.270  -1.440  53.993  1.00  0.00    -0.238 OA
HETATM   25  O4  UNL     1      28.079  -0.632  54.047  1.00  0.00    -0.300 OA
HETATM   26  C16 UNL     1      27.453   0.642  54.184  1.00  0.00     0.234 C 
ENDBRANCH  19  20
ENDBRANCH  18  19
ENDBRANCH  16  18
ENDBRANCH   1  16
TORSDOF 4
ENDMDL
MODEL 7
REMARK VINA RESULT:      -7.5      3.213      7.156
REMARK  4 active torsions:
REMARK  status: ('A' for Active; 'I' for Inactive)
REMARK    1  A    between atoms: C2_4  and  O2_5 
REMARK    2  A    between atoms: O2_5  and  C3_6 
REMARK    3  A    between atoms: C3_6  and  N2_7 
REMARK    4  A    between atoms: N2_7  and  C4_8 
ROOT
HETATM    1  C4  UNL     1      23.856   0.249  53.100  1.00  0.00     0.005 C 
HETATM    2  C5  UNL     1      25.149   0.152  52.653  1.00  0.00     0.005 C 
HETATM    3  C6  UNL     1      26.440   0.621  52.036  1.00  0.00     0.094 C 
HETATM    4  C7  UNL     1      26.803   1.833  51.541  1.00  0.00     0.071 C 
HETATM    5  N3  UNL     1      26.675   3.249  51.168  1.00  0.00    -0.387 N 
HETATM    6  C8  UNL     1      25.644   3.824  50.368  1.00  0.00     0.061 A 
HETATM    7  C9  UNL     1      26.163   4.888  49.638  1.00  0.00     0.032 A 
HETATM    8  C10 UNL     1      25.413   5.664  48.767  1.00  0.00     0.002 A 
HETATM    9  C11 UNL     1      24.079   5.357  48.624  1.00  0.00     0.003 A 
HETATM   10  C12 UNL     1      23.590   4.296  49.360  1.00  0.00     0.039 A 
HETATM   11  C13 UNL     1      24.314   3.509  50.232  1.00  0.00     0.095 A 
HETATM   12  O3  UNL     1      23.759   2.456  50.938  1.00  0.00    -0.348 OA
HETATM   13  C14 UNL     1      23.514   2.639  52.303  1.00  0.00     0.181 C 
HETATM   14  C15 UNL     1      22.960   1.461  53.029  1.00  0.00     0.083 C 
HETATM   15  H9  UNL     1      27.450   3.805  51.579  1.00  0.00     0.159 HD
ENDROOT
BRANCH   1  16
HETATM   16  N2  UNL     1      23.166  -0.845  53.688  1.00  0.00    -0.372 N 
HETATM   17  H5  UNL     1      23.688  -1.754  53.537  1.00  0.00     0.161 HD
BRANCH  16  18
HETATM   18  C3  UNL     1      21.929  -0.532  54.356  1.00  0.00     0.293 C 
BRANCH  18  19
HETATM   19  O2  UNL     1      20.912  -1.252  53.772  1.00  0.00    -0.346 OA
BRANCH  19  20
HETATM   20  C2  UNL     1      19.800  -0.429  53.652  1.00  0.00     0.251 C 
HETATM   21  N1  UNL     1      18.612  -1.231  53.901  1.00  0.00    -0.308 N 
HETATM   22  C1  UNL     1      17.769  -1.311  52.784  1.00  0.00     0.362 C 
HETATM   23  H1  UNL     1      18.492  -1.657  54.840  1.00  0.00     0.167 HD
HETATM   24  O1  UNL     1      16.662  -1.887  52.698  1.00  0.00    -0.238 OA
HETATM   25  O4  UNL     1      18.401  -0.624  51.783  1.00  0.00    -0.300 OA
HETATM   26  C16 UNL     1      19.532   0.087  52.281  1.00  0.00     0.234 C 
ENDBRANCH  19  20
ENDBRANCH  18  19
ENDBRANCH  16  18
ENDBRANCH   1  16
TORSDOF 4
ENDMDL
MODEL 8
REMARK VINA RESULT:      -7.5      3.167      5.487
REMARK  4 active torsions:
REMARK  status: ('A' for Active; 'I' for Inactive)
REMARK    1  A    between atoms: C2_4  and  O2_5 
REMARK    2  A    between atoms: O2_5  and  C3_6 
REMARK    3  A    between atoms: C3_6  and  N2_7 
REMARK    4  A    between atoms: N2_7  and  C4_8 
ROOT
HETATM    1  C4  UNL     1      25.972   3.044  50.830  1.00  0.00     0.005 C 
HETATM    2  C5  UNL     1      26.653   2.330  51.783  1.00  0.00     0.005 C 
HETATM    3  C6  UNL     1      26.875   1.249  52.806  1.00  0.00     0.094 C 
HETATM    4  C7  UNL     1      26.069   0.240  53.227  1.00  0.00     0.071 C 
HETATM    5  N3  UNL     1      24.870  -0.607  53.305  1.00  0.00    -0.387 N 
HETATM    6  C8  UNL     1      23.531  -0.163  53.512  1.00  0.00     0.061 A 
HETATM    7  C9  UNL     1      22.830  -1.125  54.231  1.00  0.00     0.032 A 
HETATM    8  C10 UNL     1      21.495  -0.999  54.589  1.00  0.00     0.002 A 
HETATM    9  C11 UNL     1      20.836   0.148  54.206  1.00  0.00     0.003 A 
HETATM   10  C12 UNL     1      21.557   1.086  53.494  1.00  0.00     0.039 A 
HETATM   11  C13 UNL     1      22.883   0.985  53.126  1.00  0.00     0.095 A 
HETATM   12  O3  UNL     1      23.545   1.968  52.413  1.00  0.00    -0.348 OA
HETATM   13  C14 UNL     1      23.807   1.733  51.059  1.00  0.00     0.181 C 
HETATM   14  C15 UNL     1      24.564   2.799  50.346  1.00  0.00     0.083 C 
HETATM   15  H9  UNL     1      25.122  -1.607  53.179  1.00  0.00     0.159 HD
ENDROOT
BRANCH   1  16
HETATM   16  N2  UNL     1      26.534   4.171  50.171  1.00  0.00    -0.372 N 
HETATM   17  H5  UNL     1      27.593   4.129  50.176  1.00  0.00     0.161 HD
BRANCH  16  18
HETATM   18  C3  UNL     1      25.600   5.128  49.638  1.00  0.00     0.293 C 
BRANCH  18  19
HETATM   19  O2  UNL     1      25.743   6.317  50.317  1.00  0.00    -0.346 OA
BRANCH  19  20
HETATM   20  C2  UNL     1      24.480   6.833  50.575  1.00  0.00     0.251 C 
HETATM   21  N1  UNL     1      24.022   6.299  51.849  1.00  0.00    -0.308 N 
HETATM   22  C1  UNL     1      22.875   5.504  51.722  1.00  0.00     0.362 C 
HETATM   23  H1  UNL     1      24.556   6.539  52.706  1.00  0.00     0.167 HD
HETATM   24  O1  UNL     1      22.225   4.944  52.632  1.00  0.00    -0.238 OA
HETATM   25  O4  UNL     1      22.595   5.455  50.383  1.00  0.00    -0.300 OA
HETATM   26  C16 UNL     1      23.403   6.377  49.654  1.00  0.00     0.234 C 
ENDBRANCH  19  20
ENDBRANCH  18  19
ENDBRANCH  16  18
ENDBRANCH   1  16
TORSDOF 4
ENDMDL
MODEL 9
REMARK VINA RESULT:      -7.3      4.229      7.074
REMARK  4 active torsions:
REMARK  status: ('A' for Active; 'I' for Inactive)
REMARK    1  A    between atoms: C2_4  and  O2_5 
REMARK    2  A    between atoms: O2_5  and  C3_6 
REMARK    3  A    between atoms: C3_6  and  N2_7 
REMARK    4  A    between atoms: N2_7  and  C4_8 
ROOT
HETATM    1  C4  UNL     1      23.506   4.602  51.142  1.00  0.00     0.005 C 
HETATM    2  C5  UNL     1      23.452   5.969  51.240  1.00  0.00     0.005 C 
HETATM    3  C6  UNL     1      23.727   7.397  50.850  1.00  0.00     0.094 C 
HETATM    4  C7  UNL     1      24.428   7.918  49.809  1.00  0.00     0.071 C 
HETATM    5  N3  UNL     1      25.244   7.938  48.588  1.00  0.00    -0.387 N 
HETATM    6  C8  UNL     1      26.475   7.247  48.379  1.00  0.00     0.061 A 
HETATM    7  C9  UNL     1      27.288   7.994  47.534  1.00  0.00     0.032 A 
HETATM    8  C10 UNL     1      28.553   7.593  47.128  1.00  0.00     0.002 A 
HETATM    9  C11 UNL     1      29.019   6.385  47.594  1.00  0.00     0.003 A 
HETATM   10  C12 UNL     1      28.192   5.664  48.431  1.00  0.00     0.039 A 
HETATM   11  C13 UNL     1      26.931   6.040  48.850  1.00  0.00     0.095 A 
HETATM   12  O3  UNL     1      26.155   5.269  49.695  1.00  0.00    -0.348 OA
HETATM   13  C14 UNL     1      25.074   4.574  49.142  1.00  0.00     0.181 C 
HETATM   14  C15 UNL     1      24.240   3.795  50.099  1.00  0.00     0.083 C 
HETATM   15  H9  UNL     1      24.797   8.531  47.861  1.00  0.00     0.159 HD
ENDROOT
BRANCH   1  16
HETATM   16  N2  UNL     1      22.866   3.742  52.074  1.00  0.00    -0.372 N 
HETATM   17  H5  UNL     1      21.916   4.120  52.356  1.00  0.00     0.161 HD
BRANCH  16  18
HETATM   18  C3  UNL     1      23.594   2.559  52.454  1.00  0.00     0.293 C 
BRANCH  18  19
HETATM   19  O2  UNL     1      24.474   2.881  53.461  1.00  0.00    -0.346 OA
BRANCH  19  20
HETATM   20  C2  UNL     1      25.405   1.857  53.578  1.00  0.00     0.251 C 
HETATM   21  N1  UNL     1      26.681   2.445  53.958  1.00  0.00    -0.308 N 
HETATM   22  C1  UNL     1      27.675   2.255  52.987  1.00  0.00     0.362 C 
HETATM   23  H1  UNL     1      26.748   2.932  54.872  1.00  0.00     0.167 HD
HETATM   24  O1  UNL     1      28.875   2.604  53.040  1.00  0.00    -0.238 OA
HETATM   25  O4  UNL     1      27.069   1.602  51.948  1.00  0.00    -0.300 OA
HETATM   26  C16 UNL     1      25.759   1.167  52.307  1.00  0.00     0.234 C 
ENDBRANCH  19  20
ENDBRANCH  18  19
ENDBRANCH  16  18
ENDBRANCH   1  16
TORSDOF 4
ENDMDL
