MODEL 1
REMARK VINA RESULT:      -8.3      0.000      0.000
REMARK  3 active torsions:
REMARK  status: ('A' for Active; 'I' for Inactive)
REMARK    1  A    between atoms: C2_2  and  N1_4 
REMARK    2  A    between atoms: N1_4  and  C4_5 
REMARK    3  A    between atoms: C13_16  and  N3_17 
ROOT
HETATM    1  C4  UNL     1      25.223   2.084  53.291  1.00  0.00     0.101 C 
HETATM    2  C5  UNL     1      24.982   0.860  52.852  1.00  0.00     0.059 C 
HETATM    3  C6  UNL     1      23.574   0.761  52.513  1.00  0.00    -0.032 A 
HETATM    4  C7  UNL     1      23.281   1.339  51.306  1.00  0.00     0.012 A 
HETATM    5  C8  UNL     1      21.977   1.338  50.869  1.00  0.00     0.015 A 
HETATM    6  C9  UNL     1      21.170   0.718  51.783  1.00  0.00     0.001 A 
HETATM    7  C10 UNL     1      21.385   0.119  52.998  1.00  0.00    -0.005 A 
HETATM    8  C11 UNL     1      22.702   0.155  53.378  1.00  0.00     0.025 A 
HETATM    9  C12 UNL     1      20.202  -0.409  53.585  1.00  0.00     0.128 A 
HETATM   10  N2  UNL     1      19.069  -0.309  52.993  1.00  0.00    -0.269 NA
HETATM   11  P1  UNL     1      19.377   0.617  51.541  1.00  0.00     0.058 P 
HETATM   12  C13 UNL     1      18.751   2.123  51.688  1.00  0.00     0.167 C 
HETATM   13  O1  UNL     1      19.365   3.311  52.038  1.00  0.00    -0.200 OA
HETATM   14  N4  UNL     1      20.672   3.525  52.291  1.00  0.00    -0.139 NA
HETATM   15  C14 UNL     1      21.388   4.527  51.989  1.00  0.00     0.148 C 
HETATM   16  C15 UNL     1      22.777   4.859  52.206  1.00  0.00     0.038 C 
HETATM   17  C16 UNL     1      23.794   4.271  52.772  1.00  0.00     0.091 C 
HETATM   18  N5  UNL     1      24.343   3.169  53.463  1.00  0.00    -0.353 N 
HETATM   19  H14 UNL     1      19.028  -0.020  50.370  1.00  0.00     0.089 HD
HETATM   20  H20 UNL     1      24.138   2.903  54.473  1.00  0.00     0.166 HD
ENDROOT
BRANCH   1  21
HETATM   21  N1  UNL     1      26.599   2.321  53.664  1.00  0.00    -0.372 N 
HETATM   22  H8  UNL     1      26.609   3.276  54.099  1.00  0.00     0.161 HD
BRANCH  21  23
HETATM   23  C2  UNL     1      27.852   1.591  53.574  1.00  0.00     0.075 C 
HETATM   24  C1  UNL     1      27.892   0.470  54.613  1.00  0.00     0.031 C 
HETATM   25  C3  UNL     1      29.062   2.507  53.754  1.00  0.00     0.031 C 
ENDBRANCH  21  23
ENDBRANCH   1  21
BRANCH  12  26
HETATM   26  N3  UNL     1      17.391   2.461  51.462  1.00  0.00    -0.279 NA
HETATM   27  H15 UNL     1      16.624   2.074  52.054  1.00  0.00     0.126 HD
HETATM   28  H16 UNL     1      16.684   2.014  52.121  1.00  0.00     0.126 HD
ENDBRANCH  12  26
TORSDOF 3
ENDMDL
MODEL 2
REMARK VINA RESULT:      -8.2      2.166      3.732
REMARK  3 active torsions:
REMARK  status: ('A' for Active; 'I' for Inactive)
REMARK    1  A    between atoms: C2_2  and  N1_4 
REMARK    2  A    between atoms: N1_4  and  C4_5 
REMARK    3  A    between atoms: C13_16  and  N3_17 
ROOT
HETATM    1  C4  UNL     1      26.502   0.416  52.461  1.00  0.00     0.101 C 
HETATM    2  C5  UNL     1      26.750   1.674  52.138  1.00  0.00     0.059 C 
HETATM    3  C6  UNL     1      25.485   2.368  51.979  1.00  0.00    -0.032 A 
HETATM    4  C7  UNL     1      24.914   2.703  53.179  1.00  0.00     0.012 A 
HETATM    5  C8  UNL     1      23.698   3.347  53.179  1.00  0.00     0.015 A 
HETATM    6  C9  UNL     1      23.264   3.542  51.896  1.00  0.00     0.001 A 
HETATM    7  C10 UNL     1      23.772   3.241  50.658  1.00  0.00    -0.005 A 
HETATM    8  C11 UNL     1      24.983   2.600  50.727  1.00  0.00     0.025 A 
HETATM    9  C12 UNL     1      22.939   3.666  49.587  1.00  0.00     0.128 A 
HETATM   10  N2  UNL     1      21.830   4.270  49.811  1.00  0.00    -0.269 NA
HETATM   11  P1  UNL     1      21.654   4.298  51.552  1.00  0.00     0.058 P 
HETATM   12  C13 UNL     1      20.483   3.252  52.018  1.00  0.00     0.167 C 
HETATM   13  O1  UNL     1      20.584   1.959  52.498  1.00  0.00    -0.200 OA
HETATM   14  N4  UNL     1      21.706   1.258  52.757  1.00  0.00    -0.139 NA
HETATM   15  C14 UNL     1      21.938   0.449  53.706  1.00  0.00     0.148 C 
HETATM   16  C15 UNL     1      23.086  -0.347  54.077  1.00  0.00     0.038 C 
HETATM   17  C16 UNL     1      24.283  -0.528  53.595  1.00  0.00     0.091 C 
HETATM   18  N5  UNL     1      25.270  -0.246  52.625  1.00  0.00    -0.353 N 
HETATM   19  H14 UNL     1      21.524   5.558  52.095  1.00  0.00     0.089 HD
HETATM   20  H20 UNL     1      25.248  -0.557  51.607  1.00  0.00     0.166 HD
ENDROOT
BRANCH   1  21
HETATM   21  N1  UNL     1      27.684  -0.393  52.652  1.00  0.00    -0.372 N 
HETATM   22  H8  UNL     1      27.954  -0.722  51.692  1.00  0.00     0.161 HD
BRANCH  21  23
HETATM   23  C2  UNL     1      28.500  -0.808  53.779  1.00  0.00     0.075 C 
HETATM   24  C1  UNL     1      28.296   0.137  54.963  1.00  0.00     0.031 C 
HETATM   25  C3  UNL     1      29.984  -0.873  53.418  1.00  0.00     0.031 C 
ENDBRANCH  21  23
ENDBRANCH   1  21
BRANCH  12  26
HETATM   26  N3  UNL     1      19.092   3.533  52.000  1.00  0.00    -0.279 NA
HETATM   27  H15 UNL     1      18.654   4.087  51.233  1.00  0.00     0.126 HD
HETATM   28  H16 UNL     1      18.742   4.106  51.173  1.00  0.00     0.126 HD
ENDBRANCH  12  26
TORSDOF 3
ENDMDL
MODEL 3
REMARK VINA RESULT:      -7.8      7.855      9.814
REMARK  3 active torsions:
REMARK  status: ('A' for Active; 'I' for Inactive)
REMARK    1  A    between atoms: C2_2  and  N1_4 
REMARK    2  A    between atoms: N1_4  and  C4_5 
REMARK    3  A    between atoms: C13_16  and  N3_17 
ROOT
HETATM    1  C4  UNL     1      31.808   5.669  48.773  1.00  0.00     0.101 C 
HETATM    2  C5  UNL     1      31.038   5.065  47.884  1.00  0.00     0.059 C 
HETATM    3  C6  UNL     1      29.783   5.788  47.793  1.00  0.00    -0.032 A 
HETATM    4  C7  UNL     1      29.888   6.932  47.046  1.00  0.00     0.012 A 
HETATM    5  C8  UNL     1      28.777   7.729  46.894  1.00  0.00     0.015 A 
HETATM    6  C9  UNL     1      27.711   7.191  47.562  1.00  0.00     0.001 A 
HETATM    7  C10 UNL     1      27.528   6.064  48.321  1.00  0.00    -0.005 A 
HETATM    8  C11 UNL     1      28.670   5.314  48.435  1.00  0.00     0.025 A 
HETATM    9  C12 UNL     1      26.200   5.921  48.810  1.00  0.00     0.128 A 
HETATM   10  N2  UNL     1      25.298   6.791  48.537  1.00  0.00    -0.269 NA
HETATM   11  P1  UNL     1      26.112   8.042  47.623  1.00  0.00     0.058 P 
HETATM   12  C13 UNL     1      26.280   9.390  48.537  1.00  0.00     0.167 C 
HETATM   13  O1  UNL     1      27.364   9.841  49.266  1.00  0.00    -0.200 OA
HETATM   14  N4  UNL     1      28.592   9.290  49.351  1.00  0.00    -0.139 NA
HETATM   15  C14 UNL     1      29.721   9.866  49.407  1.00  0.00     0.148 C 
HETATM   16  C15 UNL     1      31.080   9.385  49.498  1.00  0.00     0.038 C 
HETATM   17  C16 UNL     1      31.647   8.212  49.551  1.00  0.00     0.091 C 
HETATM   18  N5  UNL     1      31.549   6.803  49.566  1.00  0.00    -0.353 N 
HETATM   19  H14 UNL     1      25.580   8.277  46.374  1.00  0.00     0.089 HD
HETATM   20  H20 UNL     1      31.173   6.214  50.369  1.00  0.00     0.166 HD
ENDROOT
BRANCH   1  21
HETATM   21  N1  UNL     1      33.099   5.047  48.962  1.00  0.00    -0.372 N 
HETATM   22  H8  UNL     1      33.007   4.475  49.837  1.00  0.00     0.161 HD
BRANCH  21  23
HETATM   23  C2  UNL     1      34.374   5.045  48.266  1.00  0.00     0.075 C 
HETATM   24  C1  UNL     1      34.781   3.617  47.903  1.00  0.00     0.031 C 
HETATM   25  C3  UNL     1      35.478   5.704  49.093  1.00  0.00     0.031 C 
ENDBRANCH  21  23
ENDBRANCH   1  21
BRANCH  12  26
HETATM   26  N3  UNL     1      25.270  10.367  48.732  1.00  0.00    -0.279 NA
HETATM   27  H15 UNL     1      24.439  10.185  49.336  1.00  0.00     0.126 HD
HETATM   28  H16 UNL     1      24.463  10.084  49.367  1.00  0.00     0.126 HD
ENDBRANCH  12  26
TORSDOF 3
ENDMDL
MODEL 4
REMARK VINA RESULT:      -7.8      3.980      4.749
REMARK  3 active torsions:
REMARK  status: ('A' for Active; 'I' for Inactive)
REMARK    1  A    between atoms: C2_2  and  N1_4 
REMARK    2  A    between atoms: N1_4  and  C4_5 
REMARK    3  A    between atoms: C13_16  and  N3_17 
ROOT
HETATM    1  C4  UNL     1      26.699   5.595  49.470  1.00  0.00     0.101 C 
HETATM    2  C5  UNL     1      26.773   4.324  49.115  1.00  0.00     0.059 C 
HETATM    3  C6  UNL     1      25.650   3.614  49.702  1.00  0.00    -0.032 A 
HETATM    4  C7  UNL     1      24.481   3.822  49.018  1.00  0.00     0.012 A 
HETATM    5  C8  UNL     1      23.329   3.226  49.478  1.00  0.00     0.015 A 
HETATM    6  C9  UNL     1      23.590   2.494  50.603  1.00  0.00     0.001 A 
HETATM    7  C10 UNL     1      24.719   2.238  51.338  1.00  0.00    -0.005 A 
HETATM    8  C11 UNL     1      25.831   2.859  50.830  1.00  0.00     0.025 A 
HETATM    9  C12 UNL     1      24.488   1.383  52.452  1.00  0.00     0.128 A 
HETATM   10  N2  UNL     1      23.317   0.922  52.699  1.00  0.00    -0.269 NA
HETATM   11  P1  UNL     1      22.265   1.645  51.501  1.00  0.00     0.058 P 
HETATM   12  C13 UNL     1      21.308   2.775  52.199  1.00  0.00     0.167 C 
HETATM   13  O1  UNL     1      21.448   4.150  52.252  1.00  0.00    -0.200 OA
HETATM   14  N4  UNL     1      22.403   4.907  51.675  1.00  0.00    -0.139 NA
HETATM   15  C14 UNL     1      22.294   6.048  51.133  1.00  0.00     0.148 C 
HETATM   16  C15 UNL     1      23.234   6.940  50.493  1.00  0.00     0.038 C 
HETATM   17  C16 UNL     1      24.511   6.909  50.233  1.00  0.00     0.091 C 
HETATM   18  N5  UNL     1      25.757   6.249  50.288  1.00  0.00    -0.353 N 
HETATM   19  H14 UNL     1      21.580   0.739  50.720  1.00  0.00     0.089 HD
HETATM   20  H20 UNL     1      26.340   6.091  51.165  1.00  0.00     0.166 HD
ENDROOT
BRANCH   1  21
HETATM   21  N1  UNL     1      27.764   6.421  48.948  1.00  0.00    -0.372 N 
HETATM   22  H8  UNL     1      27.796   7.262  49.574  1.00  0.00     0.161 HD
BRANCH  21  23
HETATM   23  C2  UNL     1      28.708   6.343  47.847  1.00  0.00     0.075 C 
HETATM   24  C1  UNL     1      30.095   5.953  48.360  1.00  0.00     0.031 C 
HETATM   25  C3  UNL     1      28.794   7.659  47.072  1.00  0.00     0.031 C 
ENDBRANCH  21  23
ENDBRANCH   1  21
BRANCH  12  26
HETATM   26  N3  UNL     1      20.107   2.498  52.902  1.00  0.00    -0.279 NA
HETATM   27  H15 UNL     1      19.968   1.603  53.420  1.00  0.00     0.126 HD
HETATM   28  H16 UNL     1      20.063   1.557  53.399  1.00  0.00     0.126 HD
ENDBRANCH  12  26
TORSDOF 3
ENDMDL
MODEL 5
REMARK VINA RESULT:      -7.8      3.253      4.699
REMARK  3 active torsions:
REMARK  status: ('A' for Active; 'I' for Inactive)
REMARK    1  A    between atoms: C2_2  and  N1_4 
REMARK    2  A    between atoms: N1_4  and  C4_5 
REMARK    3  A    between atoms: C13_16  and  N3_17 
ROOT
HETATM    1  C4  UNL     1      26.240   3.728  50.110  1.00  0.00     0.101 C 
HETATM    2  C5  UNL     1      25.039   4.248  49.924  1.00  0.00     0.059 C 
HETATM    3  C6  UNL     1      24.065   3.418  50.609  1.00  0.00    -0.032 A 
HETATM    4  C7  UNL     1      24.041   3.640  51.960  1.00  0.00     0.012 A 
HETATM    5  C8  UNL     1      23.178   2.904  52.739  1.00  0.00     0.015 A 
HETATM    6  C9  UNL     1      22.463   2.034  51.962  1.00  0.00     0.001 A 
HETATM    7  C10 UNL     1      22.429   1.756  50.620  1.00  0.00    -0.005 A 
HETATM    8  C11 UNL     1      23.311   2.521  49.900  1.00  0.00     0.025 A 
HETATM    9  C12 UNL     1      21.486   0.748  50.275  1.00  0.00     0.128 A 
HETATM   10  N2  UNL     1      20.761   0.187  51.171  1.00  0.00    -0.269 NA
HETATM   11  P1  UNL     1      21.291   0.863  52.696  1.00  0.00     0.058 P 
HETATM   12  C13 UNL     1      22.138  -0.253  53.544  1.00  0.00     0.167 C 
HETATM   13  O1  UNL     1      23.504  -0.432  53.661  1.00  0.00    -0.200 OA
HETATM   14  N4  UNL     1      24.487   0.327  53.135  1.00  0.00    -0.139 NA
HETATM   15  C14 UNL     1      25.602   0.651  53.646  1.00  0.00     0.148 C 
HETATM   16  C15 UNL     1      26.715   1.447  53.182  1.00  0.00     0.038 C 
HETATM   17  C16 UNL     1      26.987   2.119  52.098  1.00  0.00     0.091 C 
HETATM   18  N5  UNL     1      26.621   2.567  50.810  1.00  0.00    -0.353 N 
HETATM   19  H14 UNL     1      20.298   1.481  53.425  1.00  0.00     0.089 HD
HETATM   20  H20 UNL     1      26.551   1.962  49.937  1.00  0.00     0.166 HD
ENDROOT
BRANCH   1  21
HETATM   21  N1  UNL     1      27.311   4.465  49.478  1.00  0.00    -0.372 N 
HETATM   22  H8  UNL     1      28.195   4.085  49.899  1.00  0.00     0.161 HD
BRANCH  21  23
HETATM   23  C2  UNL     1      27.417   5.517  48.482  1.00  0.00     0.075 C 
HETATM   24  C1  UNL     1      28.877   5.729  48.083  1.00  0.00     0.031 C 
HETATM   25  C3  UNL     1      26.819   6.834  48.976  1.00  0.00     0.031 C 
ENDBRANCH  21  23
ENDBRANCH   1  21
BRANCH  12  26
HETATM   26  N3  UNL     1      21.561  -1.274  54.342  1.00  0.00    -0.279 NA
HETATM   27  H15 UNL     1      22.041  -1.645  55.190  1.00  0.00     0.126 HD
HETATM   28  H16 UNL     1      22.131  -1.584  55.187  1.00  0.00     0.126 HD
ENDBRANCH  12  26
TORSDOF 3
ENDMDL
MODEL 6
REMARK VINA RESULT:      -7.6      1.983      3.395
REMARK  3 active torsions:
REMARK  status: ('A' for Active; 'I' for Inactive)
REMARK    1  A    between atoms: C2_2  and  N1_4 
REMARK    2  A    between atoms: N1_4  and  C4_5 
REMARK    3  A    between atoms: C13_16  and  N3_17 
ROOT
HETATM    1  C4  UNL     1      24.894   0.918  53.425  1.00  0.00     0.101 C 
HETATM    2  C5  UNL     1      24.935   2.043  52.732  1.00  0.00     0.059 C 
HETATM    3  C6  UNL     1      23.711   2.153  51.958  1.00  0.00    -0.032 A 
HETATM    4  C7  UNL     1      22.645   2.562  52.715  1.00  0.00     0.012 A 
HETATM    5  C8  UNL     1      21.414   2.688  52.114  1.00  0.00     0.015 A 
HETATM    6  C9  UNL     1      21.496   2.358  50.789  1.00  0.00     0.001 A 
HETATM    7  C10 UNL     1      22.514   1.945  49.967  1.00  0.00    -0.005 A 
HETATM    8  C11 UNL     1      23.713   1.839  50.625  1.00  0.00     0.025 A 
HETATM    9  C12 UNL     1      22.103   1.729  48.623  1.00  0.00     0.128 A 
HETATM   10  N2  UNL     1      20.886   1.919  48.265  1.00  0.00    -0.269 NA
HETATM   11  P1  UNL     1      20.027   2.346  49.729  1.00  0.00     0.058 P 
HETATM   12  C13 UNL     1      19.062   1.109  50.198  1.00  0.00     0.167 C 
HETATM   13  O1  UNL     1      19.276   0.124  51.145  1.00  0.00    -0.200 OA
HETATM   14  N4  UNL     1      20.334  -0.018  51.967  1.00  0.00    -0.139 NA
HETATM   15  C14 UNL     1      20.357  -0.398  53.177  1.00  0.00     0.148 C 
HETATM   16  C15 UNL     1      21.417  -0.585  54.141  1.00  0.00     0.038 C 
HETATM   17  C16 UNL     1      22.712  -0.435  54.137  1.00  0.00     0.091 C 
HETATM   18  N5  UNL     1      23.902  -0.081  53.465  1.00  0.00    -0.353 N 
HETATM   19  H14 UNL     1      19.387   3.566  49.682  1.00  0.00     0.089 HD
HETATM   20  H20 UNL     1      24.367  -0.638  52.687  1.00  0.00     0.166 HD
ENDROOT
BRANCH   1  21
HETATM   21  N1  UNL     1      26.059   0.684  54.247  1.00  0.00    -0.372 N 
HETATM   22  H8  UNL     1      25.891   1.228  55.129  1.00  0.00     0.161 HD
BRANCH  21  23
HETATM   23  C2  UNL     1      27.296  -0.069  54.126  1.00  0.00     0.075 C 
HETATM   24  C1  UNL     1      28.502   0.862  54.251  1.00  0.00     0.031 C 
HETATM   25  C3  UNL     1      27.370  -0.839  52.808  1.00  0.00     0.031 C 
ENDBRANCH  21  23
ENDBRANCH   1  21
BRANCH  12  26
HETATM   26  N3  UNL     1      17.772   0.842  49.670  1.00  0.00    -0.279 NA
HETATM   27  H15 UNL     1      17.612   0.089  48.968  1.00  0.00     0.126 HD
HETATM   28  H16 UNL     1      17.713   0.052  48.959  1.00  0.00     0.126 HD
ENDBRANCH  12  26
TORSDOF 3
ENDMDL
MODEL 7
REMARK VINA RESULT:      -7.3      2.590      4.161
REMARK  3 active torsions:
REMARK  status: ('A' for Active; 'I' for Inactive)
REMARK    1  A    between atoms: C2_2  and  N1_4 
REMARK    2  A    between atoms: N1_4  and  C4_5 
REMARK    3  A    between atoms: C13_16  and  N3_17 
ROOT
HETATM    1  C4  UNL     1      24.924   4.928  50.732  1.00  0.00     0.101 C 
HETATM    2  C5  UNL     1      25.470   3.767  50.414  1.00  0.00     0.059 C 
HETATM    3  C6  UNL     1      24.626   2.703  50.929  1.00  0.00    -0.032 A 
HETATM    4  C7  UNL     1      23.518   2.489  50.152  1.00  0.00     0.012 A 
HETATM    5  C8  UNL     1      22.617   1.522  50.535  1.00  0.00     0.015 A 
HETATM    6  C9  UNL     1      23.027   0.923  51.695  1.00  0.00     0.001 A 
HETATM    7  C10 UNL     1      24.111   1.079  52.521  1.00  0.00    -0.005 A 
HETATM    8  C11 UNL     1      24.969   2.055  52.085  1.00  0.00     0.025 A 
HETATM    9  C12 UNL     1      24.106   0.192  53.633  1.00  0.00     0.128 A 
HETATM   10  N2  UNL     1      23.157  -0.654  53.800  1.00  0.00    -0.269 NA
HETATM   11  P1  UNL     1      22.018  -0.344  52.507  1.00  0.00     0.058 P 
HETATM   12  C13 UNL     1      20.671   0.372  53.102  1.00  0.00     0.167 C 
HETATM   13  O1  UNL     1      20.314   1.707  53.133  1.00  0.00    -0.200 OA
HETATM   14  N4  UNL     1      20.983   2.756  52.614  1.00  0.00    -0.139 NA
HETATM   15  C14 UNL     1      20.523   3.788  52.038  1.00  0.00     0.148 C 
HETATM   16  C15 UNL     1      21.137   4.957  51.451  1.00  0.00     0.038 C 
HETATM   17  C16 UNL     1      22.359   5.381  51.292  1.00  0.00     0.091 C 
HETATM   18  N5  UNL     1      23.750   5.203  51.459  1.00  0.00    -0.353 N 
HETATM   19  H14 UNL     1      21.762  -1.429  51.697  1.00  0.00     0.089 HD
HETATM   20  H20 UNL     1      24.278   5.257  52.381  1.00  0.00     0.166 HD
ENDROOT
BRANCH   1  21
HETATM   21  N1  UNL     1      25.668   6.079  50.274  1.00  0.00    -0.372 N 
HETATM   22  H8  UNL     1      26.581   6.044  50.790  1.00  0.00     0.161 HD
BRANCH  21  23
HETATM   23  C2  UNL     1      25.444   7.171  49.342  1.00  0.00     0.075 C 
HETATM   24  C1  UNL     1      24.844   8.376  50.067  1.00  0.00     0.031 C 
HETATM   25  C3  UNL     1      24.534   6.758  48.185  1.00  0.00     0.031 C 
ENDBRANCH  21  23
ENDBRANCH   1  21
BRANCH  12  26
HETATM   26  N3  UNL     1      19.593  -0.315  53.717  1.00  0.00    -0.279 NA
HETATM   27  H15 UNL     1      18.810  -0.720  53.158  1.00  0.00     0.126 HD
HETATM   28  H16 UNL     1      18.844  -0.691  53.059  1.00  0.00     0.126 HD
ENDBRANCH  12  26
TORSDOF 3
ENDMDL
MODEL 8
REMARK VINA RESULT:      -7.2      1.665      2.039
REMARK  3 active torsions:
REMARK  status: ('A' for Active; 'I' for Inactive)
REMARK    1  A    between atoms: C2_2  and  N1_4 
REMARK    2  A    between atoms: N1_4  and  C4_5 
REMARK    3  A    between atoms: C13_16  and  N3_17 
ROOT
HETATM    1  C4  UNL     1      23.515   0.876  52.936  1.00  0.00     0.101 C 
HETATM    2  C5  UNL     1      23.068  -0.282  52.481  1.00  0.00     0.059 C 
HETATM    3  C6  UNL     1      21.659  -0.141  52.162  1.00  0.00    -0.032 A 
HETATM    4  C7  UNL     1      21.452   0.500  50.969  1.00  0.00     0.012 A 
HETATM    5  C8  UNL     1      20.159   0.722  50.552  1.00  0.00     0.015 A 
HETATM    6  C9  UNL     1      19.273   0.228  51.469  1.00  0.00     0.001 A 
HETATM    7  C10 UNL     1      19.400  -0.420  52.671  1.00  0.00    -0.005 A 
HETATM    8  C11 UNL     1      20.710  -0.610  53.030  1.00  0.00     0.025 A 
HETATM    9  C12 UNL     1      18.154  -0.755  53.268  1.00  0.00     0.128 A 
HETATM   10  N2  UNL     1      17.045  -0.459  52.695  1.00  0.00    -0.269 NA
HETATM   11  P1  UNL     1      17.485   0.430  51.252  1.00  0.00     0.058 P 
HETATM   12  C13 UNL     1      17.119   2.016  51.433  1.00  0.00     0.167 C 
HETATM   13  O1  UNL     1      17.926   3.080  51.793  1.00  0.00    -0.200 OA
HETATM   14  N4  UNL     1      19.253   3.069  52.029  1.00  0.00    -0.139 NA
HETATM   15  C14 UNL     1      20.122   3.944  51.731  1.00  0.00     0.148 C 
HETATM   16  C15 UNL     1      21.550   4.037  51.932  1.00  0.00     0.038 C 
HETATM   17  C16 UNL     1      22.461   3.279  52.474  1.00  0.00     0.091 C 
HETATM   18  N5  UNL     1      22.829   2.089  53.138  1.00  0.00    -0.353 N 
HETATM   19  H14 UNL     1      17.020  -0.119  50.077  1.00  0.00     0.089 HD
HETATM   20  H20 UNL     1      22.595   1.842  54.147  1.00  0.00     0.166 HD
ENDROOT
BRANCH   1  21
HETATM   21  N1  UNL     1      24.915   0.875  53.291  1.00  0.00    -0.372 N 
HETATM   22  H8  UNL     1      25.193   1.886  53.331  1.00  0.00     0.161 HD
BRANCH  21  23
HETATM   23  C2  UNL     1      25.925  -0.130  53.577  1.00  0.00     0.075 C 
HETATM   24  C1  UNL     1      26.711   0.247  54.833  1.00  0.00     0.031 C 
HETATM   25  C3  UNL     1      26.886  -0.325  52.405  1.00  0.00     0.031 C 
ENDBRANCH  21  23
ENDBRANCH   1  21
BRANCH  12  26
HETATM   26  N3  UNL     1      15.832   2.578  51.234  1.00  0.00    -0.279 NA
HETATM   27  H15 UNL     1      14.961   2.038  51.427  1.00  0.00     0.126 HD
HETATM   28  H16 UNL     1      15.006   1.946  51.461  1.00  0.00     0.126 HD
ENDBRANCH  12  26
TORSDOF 3
ENDMDL
MODEL 9
REMARK VINA RESULT:      -6.9      3.682      6.844
REMARK  3 active torsions:
REMARK  status: ('A' for Active; 'I' for Inactive)
REMARK    1  A    between atoms: C2_2  and  N1_4 
REMARK    2  A    between atoms: N1_4  and  C4_5 
REMARK    3  A    between atoms: C13_16  and  N3_17 
ROOT
HETATM    1  C4  UNL     1      21.628   2.762  52.330  1.00  0.00     0.101 C 
HETATM    2  C5  UNL     1      21.210   3.656  51.450  1.00  0.00     0.059 C 
HETATM    3  C6  UNL     1      22.367   4.211  50.772  1.00  0.00    -0.032 A 
HETATM    4  C7  UNL     1      22.864   3.373  49.808  1.00  0.00     0.012 A 
HETATM    5  C8  UNL     1      23.977   3.764  49.100  1.00  0.00     0.015 A 
HETATM    6  C9  UNL     1      24.401   4.994  49.522  1.00  0.00     0.001 A 
HETATM    7  C10 UNL     1      23.962   5.885  50.467  1.00  0.00    -0.005 A 
HETATM    8  C11 UNL     1      22.853   5.438  51.138  1.00  0.00     0.025 A 
HETATM    9  C12 UNL     1      24.745   7.071  50.534  1.00  0.00     0.128 A 
HETATM   10  N2  UNL     1      25.754   7.241  49.761  1.00  0.00    -0.269 NA
HETATM   11  P1  UNL     1      25.895   5.760  48.839  1.00  0.00     0.058 P 
HETATM   12  C13 UNL     1      27.193   4.901  49.346  1.00  0.00     0.167 C 
HETATM   13  O1  UNL     1      27.267   3.834  50.222  1.00  0.00    -0.200 OA
HETATM   14  N4  UNL     1      26.251   3.197  50.837  1.00  0.00    -0.139 NA
HETATM   15  C14 UNL     1      26.119   1.959  51.082  1.00  0.00     0.148 C 
HETATM   16  C15 UNL     1      25.089   1.176  51.725  1.00  0.00     0.038 C 
HETATM   17  C16 UNL     1      23.937   1.434  52.278  1.00  0.00     0.091 C 
HETATM   18  N5  UNL     1      22.937   2.358  52.653  1.00  0.00    -0.353 N 
HETATM   19  H14 UNL     1      25.836   5.929  47.472  1.00  0.00     0.089 HD
HETATM   20  H20 UNL     1      23.020   3.084  53.428  1.00  0.00     0.166 HD
ENDROOT
BRANCH   1  21
HETATM   21  N1  UNL     1      20.568   2.126  53.080  1.00  0.00    -0.372 N 
HETATM   22  H8  UNL     1      20.043   2.910  53.539  1.00  0.00     0.161 HD
BRANCH  21  23
HETATM   23  C2  UNL     1      20.117   0.764  53.311  1.00  0.00     0.075 C 
HETATM   24  C1  UNL     1      20.908   0.128  54.454  1.00  0.00     0.031 C 
HETATM   25  C3  UNL     1      20.236  -0.100  52.056  1.00  0.00     0.031 C 
ENDBRANCH  21  23
ENDBRANCH   1  21
BRANCH  12  26
HETATM   26  N3  UNL     1      28.531   5.135  48.933  1.00  0.00    -0.279 NA
HETATM   27  H15 UNL     1      29.253   5.497  49.593  1.00  0.00     0.126 HD
HETATM   28  H16 UNL     1      29.192   5.505  49.682  1.00  0.00     0.126 HD
ENDBRANCH  12  26
TORSDOF 3
ENDMDL
