MODEL 1
REMARK VINA RESULT:      -8.5      0.000      0.000
REMARK  3 active torsions:
REMARK  status: ('A' for Active; 'I' for Inactive)
REMARK    1  A    between atoms: C2_2  and  N1_3 
REMARK    2  A    between atoms: C6_8  and  C7_9 
REMARK    3  A    between atoms: C6_8  and  C9_11 
ROOT
HETATM    1  N1  UNL     1      20.085   5.642  49.696  1.00  0.00     0.093 N 
HETATM    2  C3  UNL     1      19.745   4.273  49.850  1.00  0.00     0.301 C 
HETATM    3  C4  UNL     1      19.547   3.938  51.260  1.00  0.00     0.020 C 
HETATM    4  C5  UNL     1      19.969   3.231  52.303  1.00  0.00     0.081 C 
HETATM    5  N2  UNL     1      21.096   2.382  52.172  1.00  0.00    -0.388 N 
HETATM    6  C6  UNL     1      22.248   1.449  51.991  1.00  0.00     0.057 C 
HETATM    7  C17 UNL     1      22.633   1.470  50.574  1.00  0.00     0.103 C 
HETATM    8  C18 UNL     1      21.547   0.986  49.636  1.00  0.00     0.022 C 
HETATM    9  C19 UNL     1      23.091   2.759  50.021  1.00  0.00     0.224 C 
HETATM   10  O2  UNL     1      24.102   3.077  49.342  1.00  0.00    -0.273 OA
HETATM   11  N4  UNL     1      22.778   4.127  49.917  1.00  0.00    -0.359 N 
HETATM   12  C20 UNL     1      22.588   5.514  49.734  1.00  0.00     0.152 C 
HETATM   13  C21 UNL     1      21.306   6.049  50.305  1.00  0.00     0.292 C 
HETATM   14  H10 UNL     1      21.457   3.122  52.796  1.00  0.00     0.159 HD
HETATM   15  H25 UNL     1      22.097   3.841  50.604  1.00  0.00     0.162 HD
ENDROOT
BRANCH   6  16
HETATM   16  C7  UNL     1      21.550   0.151  52.401  1.00  0.00     0.028 C 
HETATM   17  C8  UNL     1      21.137  -0.045  53.781  1.00  0.00     0.007 C 
ENDBRANCH   6  16
BRANCH   6  18
HETATM   18  C9  UNL     1      23.315   1.757  53.005  1.00  0.00     0.142 C 
HETATM   19  C10 UNL     1      23.870   3.151  52.769  1.00  0.00     0.233 C 
HETATM   20  O1  UNL     1      23.504   4.373  52.997  1.00  0.00    -0.272 OA
HETATM   21  N3  UNL     1      25.160   3.113  52.116  1.00  0.00    -0.326 N 
HETATM   22  C11 UNL     1      25.549   1.719  52.213  1.00  0.00     0.042 A 
HETATM   23  H17 UNL     1      25.698   3.904  51.670  1.00  0.00     0.169 HD
HETATM   24  C12 UNL     1      26.829   1.282  51.839  1.00  0.00     0.033 A 
HETATM   25  C16 UNL     1      24.562   0.968  52.859  1.00  0.00    -0.013 A 
HETATM   26  C13 UNL     1      27.180  -0.013  52.131  1.00  0.00     0.044 A 
HETATM   27  C14 UNL     1      26.263  -0.805  52.772  1.00  0.00     0.117 A 
HETATM   28  F1  UNL     1      26.668  -2.072  53.038  1.00  0.00    -0.206 F 
HETATM   29  C15 UNL     1      25.050  -0.293  53.090  1.00  0.00     0.052 A 
ENDBRANCH   6  18
BRANCH   1  30
HETATM   30  C2  UNL     1      19.995   6.138  48.325  1.00  0.00     0.268 C 
HETATM   31  C1  UNL     1      19.703   5.020  47.383  1.00  0.00     0.037 C 
ENDBRANCH   1  30
TORSDOF 3
ENDMDL
MODEL 2
REMARK VINA RESULT:      -8.3      1.828      4.011
REMARK  3 active torsions:
REMARK  status: ('A' for Active; 'I' for Inactive)
REMARK    1  A    between atoms: C2_2  and  N1_3 
REMARK    2  A    between atoms: C6_8  and  C7_9 
REMARK    3  A    between atoms: C6_8  and  C9_11 
ROOT
HETATM    1  N1  UNL     1      21.311   6.059  48.840  1.00  0.00     0.093 N 
HETATM    2  C3  UNL     1      22.478   6.006  49.645  1.00  0.00     0.301 C 
HETATM    3  C4  UNL     1      23.445   5.051  49.103  1.00  0.00     0.020 C 
HETATM    4  C5  UNL     1      24.107   3.914  49.290  1.00  0.00     0.081 C 
HETATM    5  N2  UNL     1      23.905   3.166  50.476  1.00  0.00    -0.388 N 
HETATM    6  C6  UNL     1      23.719   2.427  51.761  1.00  0.00     0.057 C 
HETATM    7  C17 UNL     1      22.838   3.226  52.622  1.00  0.00     0.103 C 
HETATM    8  C18 UNL     1      23.406   4.580  52.993  1.00  0.00     0.022 C 
HETATM    9  C19 UNL     1      21.472   3.487  52.128  1.00  0.00     0.224 C 
HETATM   10  O2  UNL     1      20.340   3.361  52.664  1.00  0.00    -0.273 OA
HETATM   11  N4  UNL     1      20.731   3.935  51.019  1.00  0.00    -0.359 N 
HETATM   12  C20 UNL     1      19.866   4.363  49.988  1.00  0.00     0.152 C 
HETATM   13  C21 UNL     1      20.565   4.850  48.751  1.00  0.00     0.292 C 
HETATM   14  H10 UNL     1      23.478   2.553  49.761  1.00  0.00     0.159 HD
HETATM   15  H25 UNL     1      21.643   3.842  50.596  1.00  0.00     0.162 HD
ENDROOT
BRANCH   6  16
HETATM   16  C7  UNL     1      25.174   2.428  52.231  1.00  0.00     0.028 C 
HETATM   17  C8  UNL     1      26.171   1.656  51.506  1.00  0.00     0.007 C 
ENDBRANCH   6  16
BRANCH   6  18
HETATM   18  C9  UNL     1      23.311   1.007  51.476  1.00  0.00     0.142 C 
HETATM   19  C10 UNL     1      22.036   0.988  50.653  1.00  0.00     0.233 C 
HETATM   20  O1  UNL     1      21.695   1.181  49.418  1.00  0.00    -0.272 OA
HETATM   21  N3  UNL     1      20.880   0.662  51.460  1.00  0.00    -0.326 N 
HETATM   22  C11 UNL     1      21.457   0.188  52.704  1.00  0.00     0.042 A 
HETATM   23  H17 UNL     1      19.857   0.748  51.215  1.00  0.00     0.169 HD
HETATM   24  C12 UNL     1      20.668  -0.387  53.711  1.00  0.00     0.033 A 
HETATM   25  C16 UNL     1      22.853   0.239  52.659  1.00  0.00    -0.013 A 
HETATM   26  C13 UNL     1      21.306  -0.976  54.775  1.00  0.00     0.044 A 
HETATM   27  C14 UNL     1      22.677  -0.970  54.792  1.00  0.00     0.117 A 
HETATM   28  F1  UNL     1      23.252  -1.570  55.865  1.00  0.00    -0.206 F 
HETATM   29  C15 UNL     1      23.352  -0.386  53.774  1.00  0.00     0.052 A 
ENDBRANCH   6  18
BRANCH   1  30
HETATM   30  C2  UNL     1      20.435   7.195  49.118  1.00  0.00     0.268 C 
HETATM   31  C1  UNL     1      21.098   8.151  50.051  1.00  0.00     0.037 C 
ENDBRANCH   1  30
TORSDOF 3
ENDMDL
MODEL 3
REMARK VINA RESULT:      -7.6      2.169      3.255
REMARK  3 active torsions:
REMARK  status: ('A' for Active; 'I' for Inactive)
REMARK    1  A    between atoms: C2_2  and  N1_3 
REMARK    2  A    between atoms: C6_8  and  C7_9 
REMARK    3  A    between atoms: C6_8  and  C9_11 
ROOT
HETATM    1  N1  UNL     1      24.208   7.540  48.512  1.00  0.00     0.093 N 
HETATM    2  C3  UNL     1      23.164   6.633  48.195  1.00  0.00     0.301 C 
HETATM    3  C4  UNL     1      22.070   6.735  49.162  1.00  0.00     0.020 C 
HETATM    4  C5  UNL     1      21.368   6.127  50.111  1.00  0.00     0.081 C 
HETATM    5  N2  UNL     1      21.684   4.797  50.483  1.00  0.00    -0.388 N 
HETATM    6  C6  UNL     1      21.999   3.374  50.813  1.00  0.00     0.057 C 
HETATM    7  C17 UNL     1      23.042   2.913  49.888  1.00  0.00     0.103 C 
HETATM    8  C18 UNL     1      22.622   2.925  48.433  1.00  0.00     0.022 C 
HETATM    9  C19 UNL     1      24.339   3.614  49.935  1.00  0.00     0.224 C 
HETATM   10  O2  UNL     1      25.525   3.197  50.012  1.00  0.00    -0.273 OA
HETATM   11  N4  UNL     1      24.947   4.884  49.925  1.00  0.00    -0.359 N 
HETATM   12  C20 UNL     1      25.685   6.087  49.924  1.00  0.00     0.152 C 
HETATM   13  C21 UNL     1      24.854   7.328  49.763  1.00  0.00     0.292 C 
HETATM   14  H10 UNL     1      21.966   5.327  51.325  1.00  0.00     0.159 HD
HETATM   15  H25 UNL     1      23.981   5.150  50.045  1.00  0.00     0.162 HD
ENDROOT
BRANCH   6  16
HETATM   16  C7  UNL     1      20.627   2.768  50.515  1.00  0.00     0.028 C 
HETATM   17  C8  UNL     1      19.488   3.102  51.357  1.00  0.00     0.007 C 
ENDBRANCH   6  16
BRANCH   6  18
HETATM   18  C9  UNL     1      22.269   3.243  52.286  1.00  0.00     0.142 C 
HETATM   19  C10 UNL     1      23.492   4.058  52.666  1.00  0.00     0.233 C 
HETATM   20  O1  UNL     1      23.780   5.305  52.872  1.00  0.00    -0.272 OA
HETATM   21  N3  UNL     1      24.658   3.223  52.855  1.00  0.00    -0.326 N 
HETATM   22  C11 UNL     1      24.111   1.880  52.892  1.00  0.00     0.042 A 
HETATM   23  H17 UNL     1      25.670   3.511  52.944  1.00  0.00     0.169 HD
HETATM   24  C12 UNL     1      24.902   0.770  53.226  1.00  0.00     0.033 A 
HETATM   25  C16 UNL     1      22.724   1.900  52.721  1.00  0.00    -0.013 A 
HETATM   26  C13 UNL     1      24.274  -0.436  53.418  1.00  0.00     0.044 A 
HETATM   27  C14 UNL     1      22.911  -0.488  53.274  1.00  0.00     0.117 A 
HETATM   28  F1  UNL     1      22.347  -1.704  53.481  1.00  0.00    -0.206 F 
HETATM   29  C15 UNL     1      22.235   0.638  52.947  1.00  0.00     0.052 A 
ENDBRANCH   6  18
BRANCH   1  30
HETATM   30  C2  UNL     1      25.187   7.732  47.445  1.00  0.00     0.268 C 
HETATM   31  C1  UNL     1      24.507   8.108  46.172  1.00  0.00     0.037 C 
ENDBRANCH   1  30
TORSDOF 3
ENDMDL
MODEL 4
REMARK VINA RESULT:      -7.5      8.750     10.376
REMARK  3 active torsions:
REMARK  status: ('A' for Active; 'I' for Inactive)
REMARK    1  A    between atoms: C2_2  and  N1_3 
REMARK    2  A    between atoms: C6_8  and  C7_9 
REMARK    3  A    between atoms: C6_8  and  C9_11 
ROOT
HETATM    1  N1  UNL     1      29.273  12.347  48.557  1.00  0.00     0.093 N 
HETATM    2  C3  UNL     1      28.400  11.338  48.074  1.00  0.00     0.301 C 
HETATM    3  C4  UNL     1      28.062  10.386  49.133  1.00  0.00     0.020 C 
HETATM    4  C5  UNL     1      28.144   9.134  49.567  1.00  0.00     0.081 C 
HETATM    5  N2  UNL     1      28.826   8.161  48.795  1.00  0.00    -0.388 N 
HETATM    6  C6  UNL     1      29.499   7.143  47.933  1.00  0.00     0.057 C 
HETATM    7  C17 UNL     1      29.878   7.792  46.672  1.00  0.00     0.103 C 
HETATM    8  C18 UNL     1      28.702   8.312  45.871  1.00  0.00     0.022 C 
HETATM    9  C19 UNL     1      30.831   8.915  46.755  1.00  0.00     0.224 C 
HETATM   10  O2  UNL     1      31.894   9.171  46.130  1.00  0.00    -0.273 OA
HETATM   11  N4  UNL     1      31.107  10.126  47.417  1.00  0.00    -0.359 N 
HETATM   12  C20 UNL     1      31.504  11.350  47.997  1.00  0.00     0.152 C 
HETATM   13  C21 UNL     1      30.544  11.899  49.015  1.00  0.00     0.292 C 
HETATM   14  H10 UNL     1      29.450   8.261  49.612  1.00  0.00     0.159 HD
HETATM   15  H25 UNL     1      30.359   9.774  47.996  1.00  0.00     0.162 HD
ENDROOT
BRANCH   6  16
HETATM   16  C7  UNL     1      28.325   6.174  47.776  1.00  0.00     0.028 C 
HETATM   17  C8  UNL     1      28.046   5.198  48.818  1.00  0.00     0.007 C 
ENDBRANCH   6  16
BRANCH   6  18
HETATM   18  C9  UNL     1      30.584   6.454  48.713  1.00  0.00     0.142 C 
HETATM   19  C10 UNL     1      31.626   7.464  49.158  1.00  0.00     0.233 C 
HETATM   20  O1  UNL     1      31.743   8.372  50.075  1.00  0.00    -0.272 OA
HETATM   21  N3  UNL     1      32.819   7.400  48.343  1.00  0.00    -0.326 N 
HETATM   22  C11 UNL     1      32.653   6.168  47.595  1.00  0.00     0.042 A 
HETATM   23  H17 UNL     1      33.624   8.081  48.294  1.00  0.00     0.169 HD
HETATM   24  C12 UNL     1      33.682   5.646  46.795  1.00  0.00     0.033 A 
HETATM   25  C16 UNL     1      31.445   5.545  47.919  1.00  0.00    -0.013 A 
HETATM   26  C13 UNL     1      33.515   4.390  46.267  1.00  0.00     0.044 A 
HETATM   27  C14 UNL     1      32.355   3.716  46.551  1.00  0.00     0.117 A 
HETATM   28  F1  UNL     1      32.248   2.478  46.007  1.00  0.00    -0.206 F 
HETATM   29  C15 UNL     1      31.418   4.305  47.332  1.00  0.00     0.052 A 
ENDBRANCH   6  18
BRANCH   1  30
HETATM   30  C2  UNL     1      29.413  13.500  47.673  1.00  0.00     0.268 C 
HETATM   31  C1  UNL     1      28.076  14.067  47.336  1.00  0.00     0.037 C 
ENDBRANCH   1  30
TORSDOF 3
ENDMDL
MODEL 5
REMARK VINA RESULT:      -7.5      3.214      6.331
REMARK  3 active torsions:
REMARK  status: ('A' for Active; 'I' for Inactive)
REMARK    1  A    between atoms: C2_2  and  N1_3 
REMARK    2  A    between atoms: C6_8  and  C7_9 
REMARK    3  A    between atoms: C6_8  and  C9_11 
ROOT
HETATM    1  N1  UNL     1      22.182   0.395  52.582  1.00  0.00     0.093 N 
HETATM    2  C3  UNL     1      21.278   1.142  51.783  1.00  0.00     0.301 C 
HETATM    3  C4  UNL     1      21.592   0.996  50.361  1.00  0.00     0.020 C 
HETATM    4  C5  UNL     1      21.988   1.597  49.245  1.00  0.00     0.081 C 
HETATM    5  N2  UNL     1      22.285   2.983  49.255  1.00  0.00    -0.388 N 
HETATM    6  C6  UNL     1      22.533   4.456  49.279  1.00  0.00     0.057 C 
HETATM    7  C17 UNL     1      22.182   4.955  50.614  1.00  0.00     0.103 C 
HETATM    8  C18 UNL     1      20.724   4.767  50.976  1.00  0.00     0.022 C 
HETATM    9  C19 UNL     1      22.949   4.417  51.755  1.00  0.00     0.224 C 
HETATM   10  O2  UNL     1      23.537   4.976  52.717  1.00  0.00    -0.273 OA
HETATM   11  N4  UNL     1      23.406   3.232  52.360  1.00  0.00    -0.359 N 
HETATM   12  C20 UNL     1      23.925   2.128  53.070  1.00  0.00     0.152 C 
HETATM   13  C21 UNL     1      23.547   0.789  52.505  1.00  0.00     0.292 C 
HETATM   14  H10 UNL     1      23.219   2.565  49.110  1.00  0.00     0.159 HD
HETATM   15  H25 UNL     1      23.074   2.865  51.480  1.00  0.00     0.162 HD
ENDROOT
BRANCH   6  16
HETATM   16  C7  UNL     1      21.526   4.869  48.204  1.00  0.00     0.028 C 
HETATM   17  C8  UNL     1      21.726   4.451  46.825  1.00  0.00     0.007 C 
ENDBRANCH   6  16
BRANCH   6  18
HETATM   18  C9  UNL     1      23.919   4.746  48.771  1.00  0.00     0.142 C 
HETATM   19  C10 UNL     1      24.951   4.107  49.682  1.00  0.00     0.233 C 
HETATM   20  O1  UNL     1      25.433   2.923  49.894  1.00  0.00    -0.272 OA
HETATM   21  N3  UNL     1      25.575   5.079  50.553  1.00  0.00    -0.326 N 
HETATM   22  C11 UNL     1      25.163   6.351  49.991  1.00  0.00     0.042 A 
HETATM   23  H17 UNL     1      26.184   4.914  51.399  1.00  0.00     0.169 HD
HETATM   24  C12 UNL     1      25.692   7.567  50.451  1.00  0.00     0.033 A 
HETATM   25  C16 UNL     1      24.340   6.164  48.877  1.00  0.00    -0.013 A 
HETATM   26  C13 UNL     1      25.392   8.709  49.749  1.00  0.00     0.044 A 
HETATM   27  C14 UNL     1      24.595   8.597  48.639  1.00  0.00     0.117 A 
HETATM   28  F1  UNL     1      24.337   9.757  47.983  1.00  0.00    -0.206 F 
HETATM   29  C15 UNL     1      24.129   7.378  48.275  1.00  0.00     0.052 A 
ENDBRANCH   6  18
BRANCH   1  30
HETATM   30  C2  UNL     1      21.764   0.226  53.971  1.00  0.00     0.268 C 
HETATM   31  C1  UNL     1      21.749  -1.217  54.342  1.00  0.00     0.037 C 
ENDBRANCH   1  30
TORSDOF 3
ENDMDL
MODEL 6
REMARK VINA RESULT:      -7.4      2.541      4.932
REMARK  3 active torsions:
REMARK  status: ('A' for Active; 'I' for Inactive)
REMARK    1  A    between atoms: C2_2  and  N1_3 
REMARK    2  A    between atoms: C6_8  and  C7_9 
REMARK    3  A    between atoms: C6_8  and  C9_11 
ROOT
HETATM    1  N1  UNL     1      24.833   6.673  48.772  1.00  0.00     0.093 N 
HETATM    2  C3  UNL     1      25.227   6.074  49.997  1.00  0.00     0.301 C 
HETATM    3  C4  UNL     1      25.840   4.766  49.766  1.00  0.00     0.020 C 
HETATM    4  C5  UNL     1      25.758   3.453  49.954  1.00  0.00     0.081 C 
HETATM    5  N2  UNL     1      24.659   2.908  50.662  1.00  0.00    -0.388 N 
HETATM    6  C6  UNL     1      23.521   2.364  51.463  1.00  0.00     0.057 C 
HETATM    7  C17 UNL     1      22.734   3.498  51.963  1.00  0.00     0.103 C 
HETATM    8  C18 UNL     1      23.502   4.417  52.891  1.00  0.00     0.022 C 
HETATM    9  C19 UNL     1      22.110   4.379  50.957  1.00  0.00     0.224 C 
HETATM   10  O2  UNL     1      20.937   4.819  50.829  1.00  0.00    -0.273 OA
HETATM   11  N4  UNL     1      22.353   5.115  49.783  1.00  0.00    -0.359 N 
HETATM   12  C20 UNL     1      22.456   5.894  48.610  1.00  0.00     0.152 C 
HETATM   13  C21 UNL     1      23.840   5.971  48.032  1.00  0.00     0.292 C 
HETATM   14  H10 UNL     1      24.485   2.568  49.701  1.00  0.00     0.159 HD
HETATM   15  H25 UNL     1      23.213   4.590  49.844  1.00  0.00     0.162 HD
ENDROOT
BRANCH   6  16
HETATM   16  C7  UNL     1      24.332   1.671  52.559  1.00  0.00     0.028 C 
HETATM   17  C8  UNL     1      25.376   0.725  52.200  1.00  0.00     0.007 C 
ENDBRANCH   6  16
BRANCH   6  18
HETATM   18  C9  UNL     1      22.797   1.313  50.668  1.00  0.00     0.142 C 
HETATM   19  C10 UNL     1      22.232   1.919  49.396  1.00  0.00     0.233 C 
HETATM   20  O1  UNL     1      22.677   2.284  48.235  1.00  0.00    -0.272 OA
HETATM   21  N3  UNL     1      20.809   2.154  49.498  1.00  0.00    -0.326 N 
HETATM   22  C11 UNL     1      20.430   1.429  50.696  1.00  0.00     0.042 A 
HETATM   23  H17 UNL     1      20.184   2.718  48.860  1.00  0.00     0.169 HD
HETATM   24  C12 UNL     1      19.086   1.265  51.066  1.00  0.00     0.033 A 
HETATM   25  C16 UNL     1      21.541   0.818  51.284  1.00  0.00    -0.013 A 
HETATM   26  C13 UNL     1      18.802   0.416  52.107  1.00  0.00     0.044 A 
HETATM   27  C14 UNL     1      19.845  -0.225  52.725  1.00  0.00     0.117 A 
HETATM   28  F1  UNL     1      19.502  -1.054  53.742  1.00  0.00    -0.206 F 
HETATM   29  C15 UNL     1      21.110   0.001  52.297  1.00  0.00     0.052 A 
ENDBRANCH   6  18
BRANCH   1  30
HETATM   30  C2  UNL     1      24.504   8.093  48.872  1.00  0.00     0.268 C 
HETATM   31  C1  UNL     1      24.530   8.538  50.294  1.00  0.00     0.037 C 
ENDBRANCH   1  30
TORSDOF 3
ENDMDL
MODEL 7
REMARK VINA RESULT:      -7.2      2.787      5.114
REMARK  3 active torsions:
REMARK  status: ('A' for Active; 'I' for Inactive)
REMARK    1  A    between atoms: C2_2  and  N1_3 
REMARK    2  A    between atoms: C6_8  and  C7_9 
REMARK    3  A    between atoms: C6_8  and  C9_11 
ROOT
HETATM    1  N1  UNL     1      23.148   4.800  48.739  1.00  0.00     0.093 N 
HETATM    2  C3  UNL     1      23.835   3.613  49.102  1.00  0.00     0.301 C 
HETATM    3  C4  UNL     1      22.927   2.466  49.124  1.00  0.00     0.020 C 
HETATM    4  C5  UNL     1      22.345   1.525  49.859  1.00  0.00     0.081 C 
HETATM    5  N2  UNL     1      22.600   1.458  51.251  1.00  0.00    -0.388 N 
HETATM    6  C6  UNL     1      22.931   1.373  52.705  1.00  0.00     0.057 C 
HETATM    7  C17 UNL     1      23.962   2.377  52.997  1.00  0.00     0.103 C 
HETATM    8  C18 UNL     1      25.263   2.155  52.254  1.00  0.00     0.022 C 
HETATM    9  C19 UNL     1      23.606   3.790  52.767  1.00  0.00     0.224 C 
HETATM   10  O2  UNL     1      23.718   4.819  53.485  1.00  0.00    -0.273 OA
HETATM   11  N4  UNL     1      23.052   4.686  51.833  1.00  0.00    -0.359 N 
HETATM   12  C20 UNL     1      22.519   5.690  50.996  1.00  0.00     0.152 C 
HETATM   13  C21 UNL     1      22.117   5.214  49.629  1.00  0.00     0.292 C 
HETATM   14  H10 UNL     1      21.609   1.754  51.229  1.00  0.00     0.159 HD
HETATM   15  H25 UNL     1      22.829   3.807  51.390  1.00  0.00     0.162 HD
ENDROOT
BRANCH   6  16
HETATM   16  C7  UNL     1      23.470  -0.059  52.727  1.00  0.00     0.028 C 
HETATM   17  C8  UNL     1      24.607  -0.394  53.570  1.00  0.00     0.007 C 
ENDBRANCH   6  16
BRANCH   6  18
HETATM   18  C9  UNL     1      21.667   1.418  53.518  1.00  0.00     0.142 C 
HETATM   19  C10 UNL     1      21.239   0.010  53.893  1.00  0.00     0.233 C 
HETATM   20  O1  UNL     1      21.588  -0.895  54.753  1.00  0.00    -0.272 OA
HETATM   21  N3  UNL     1      20.140  -0.454  53.075  1.00  0.00    -0.326 N 
HETATM   22  C11 UNL     1      19.686   0.749  52.404  1.00  0.00     0.042 A 
HETATM   23  H17 UNL     1      19.755  -1.432  52.979  1.00  0.00     0.169 HD
HETATM   24  C12 UNL     1      18.515   0.764  51.630  1.00  0.00     0.033 A 
HETATM   25  C16 UNL     1      20.460   1.852  52.774  1.00  0.00    -0.013 A 
HETATM   26  C13 UNL     1      18.054   1.977  51.181  1.00  0.00     0.044 A 
HETATM   27  C14 UNL     1      18.761   3.104  51.513  1.00  0.00     0.117 A 
HETATM   28  F1  UNL     1      18.255   4.272  51.046  1.00  0.00    -0.206 F 
HETATM   29  C15 UNL     1      19.882   2.987  52.263  1.00  0.00     0.052 A 
ENDBRANCH   6  18
BRANCH   1  30
HETATM   30  C2  UNL     1      24.017   5.920  48.388  1.00  0.00     0.268 C 
HETATM   31  C1  UNL     1      25.407   5.673  48.866  1.00  0.00     0.037 C 
ENDBRANCH   1  30
TORSDOF 3
ENDMDL
MODEL 8
REMARK VINA RESULT:      -7.1      9.550     12.416
REMARK  3 active torsions:
REMARK  status: ('A' for Active; 'I' for Inactive)
REMARK    1  A    between atoms: C2_2  and  N1_3 
REMARK    2  A    between atoms: C6_8  and  C7_9 
REMARK    3  A    between atoms: C6_8  and  C9_11 
ROOT
HETATM    1  N1  UNL     1      34.231   4.624  46.504  1.00  0.00     0.093 N 
HETATM    2  C3  UNL     1      32.865   4.720  46.134  1.00  0.00     0.301 C 
HETATM    3  C4  UNL     1      32.585   6.005  45.492  1.00  0.00     0.020 C 
HETATM    4  C5  UNL     1      31.929   7.158  45.555  1.00  0.00     0.081 C 
HETATM    5  N2  UNL     1      31.092   7.434  46.664  1.00  0.00    -0.388 N 
HETATM    6  C6  UNL     1      30.170   7.676  47.814  1.00  0.00     0.057 C 
HETATM    7  C17 UNL     1      30.137   6.459  48.635  1.00  0.00     0.103 C 
HETATM    8  C18 UNL     1      29.598   5.244  47.910  1.00  0.00     0.022 C 
HETATM    9  C19 UNL     1      31.409   6.028  49.247  1.00  0.00     0.224 C 
HETATM   10  O2  UNL     1      31.713   5.697  50.423  1.00  0.00    -0.273 OA
HETATM   11  N4  UNL     1      32.767   5.768  48.984  1.00  0.00    -0.359 N 
HETATM   12  C20 UNL     1      34.142   5.472  48.862  1.00  0.00     0.152 C 
HETATM   13  C21 UNL     1      34.680   5.575  47.463  1.00  0.00     0.292 C 
HETATM   14  H10 UNL     1      31.863   8.108  46.805  1.00  0.00     0.159 HD
HETATM   15  H25 UNL     1      32.500   6.211  48.117  1.00  0.00     0.162 HD
ENDROOT
BRANCH   6  16
HETATM   16  C7  UNL     1      28.880   7.896  47.022  1.00  0.00     0.028 C 
HETATM   17  C8  UNL     1      28.932   8.038  45.576  1.00  0.00     0.007 C 
ENDBRANCH   6  16
BRANCH   6  18
HETATM   18  C9  UNL     1      30.536   8.965  48.497  1.00  0.00     0.142 C 
HETATM   19  C10 UNL     1      29.286   9.651  49.019  1.00  0.00     0.233 C 
HETATM   20  O1  UNL     1      28.474   9.519  50.020  1.00  0.00    -0.272 OA
HETATM   21  N3  UNL     1      28.886  10.756  48.175  1.00  0.00    -0.326 N 
HETATM   22  C11 UNL     1      30.034  10.953  47.310  1.00  0.00     0.042 A 
HETATM   23  H17 UNL     1      27.979  11.296  48.178  1.00  0.00     0.169 HD
HETATM   24  C12 UNL     1      30.121  12.051  46.439  1.00  0.00     0.033 A 
HETATM   25  C16 UNL     1      31.042  10.028  47.595  1.00  0.00    -0.013 A 
HETATM   26  C13 UNL     1      31.311  12.268  45.790  1.00  0.00     0.044 A 
HETATM   27  C14 UNL     1      32.347  11.402  46.030  1.00  0.00     0.117 A 
HETATM   28  F1  UNL     1      33.500  11.669  45.365  1.00  0.00    -0.206 F 
HETATM   29  C15 UNL     1      32.165  10.369  46.886  1.00  0.00     0.052 A 
ENDBRANCH   6  18
BRANCH   1  30
HETATM   30  C2  UNL     1      34.668   3.276  46.861  1.00  0.00     0.268 C 
HETATM   31  C1  UNL     1      33.492   2.383  47.070  1.00  0.00     0.037 C 
ENDBRANCH   1  30
TORSDOF 3
ENDMDL
MODEL 9
REMARK VINA RESULT:      -7.0      3.740      5.050
REMARK  3 active torsions:
REMARK  status: ('A' for Active; 'I' for Inactive)
REMARK    1  A    between atoms: C2_2  and  N1_3 
REMARK    2  A    between atoms: C6_8  and  C7_9 
REMARK    3  A    between atoms: C6_8  and  C9_11 
ROOT
HETATM    1  N1  UNL     1      14.499   1.019  51.465  1.00  0.00     0.093 N 
HETATM    2  C3  UNL     1      15.539   0.564  50.613  1.00  0.00     0.301 C 
HETATM    3  C4  UNL     1      16.450  -0.329  51.330  1.00  0.00     0.020 C 
HETATM    4  C5  UNL     1      17.683  -0.525  51.784  1.00  0.00     0.081 C 
HETATM    5  N2  UNL     1      18.677   0.463  51.579  1.00  0.00    -0.388 N 
HETATM    6  C6  UNL     1      19.721   1.494  51.297  1.00  0.00     0.057 C 
HETATM    7  C17 UNL     1      19.120   2.532  50.451  1.00  0.00     0.103 C 
HETATM    8  C18 UNL     1      18.649   2.028  49.102  1.00  0.00     0.022 C 
HETATM    9  C19 UNL     1      17.982   3.282  51.016  1.00  0.00     0.224 C 
HETATM   10  O2  UNL     1      17.738   4.515  51.096  1.00  0.00    -0.273 OA
HETATM   11  N4  UNL     1      16.741   3.148  51.666  1.00  0.00    -0.359 N 
HETATM   12  C20 UNL     1      15.488   3.159  52.316  1.00  0.00     0.152 C 
HETATM   13  C21 UNL     1      14.911   1.798  52.583  1.00  0.00     0.292 C 
HETATM   14  H10 UNL     1      18.535   0.512  52.602  1.00  0.00     0.159 HD
HETATM   15  H25 UNL     1      17.078   2.198  51.729  1.00  0.00     0.162 HD
ENDROOT
BRANCH   6  16
HETATM   16  C7  UNL     1      20.711   0.606  50.540  1.00  0.00     0.028 C 
HETATM   17  C8  UNL     1      21.448   1.144  49.408  1.00  0.00     0.007 C 
ENDBRANCH   6  16
BRANCH   6  18
HETATM   18  C9  UNL     1      20.363   1.933  52.585  1.00  0.00     0.142 C 
HETATM   19  C10 UNL     1      21.355   3.050  52.317  1.00  0.00     0.233 C 
HETATM   20  O1  UNL     1      21.315   4.321  52.072  1.00  0.00    -0.272 OA
HETATM   21  N3  UNL     1      22.721   2.574  52.345  1.00  0.00    -0.326 N 
HETATM   22  C11 UNL     1      22.606   1.247  52.919  1.00  0.00     0.042 A 
HETATM   23  H17 UNL     1      23.599   3.065  52.024  1.00  0.00     0.169 HD
HETATM   24  C12 UNL     1      23.738   0.495  53.273  1.00  0.00     0.033 A 
HETATM   25  C16 UNL     1      21.273   0.937  53.201  1.00  0.00    -0.013 A 
HETATM   26  C13 UNL     1      23.546  -0.668  53.977  1.00  0.00     0.044 A 
HETATM   27  C14 UNL     1      22.262  -1.030  54.294  1.00  0.00     0.117 A 
HETATM   28  F1  UNL     1      22.136  -2.186  54.994  1.00  0.00    -0.206 F 
HETATM   29  C15 UNL     1      21.234  -0.239  53.906  1.00  0.00     0.052 A 
ENDBRANCH   6  18
BRANCH   1  30
HETATM   30  C2  UNL     1      13.381   1.652  50.770  1.00  0.00     0.268 C 
HETATM   31  C1  UNL     1      12.927   0.807  49.629  1.00  0.00     0.037 C 
ENDBRANCH   1  30
TORSDOF 3
ENDMDL
