MODEL 1
REMARK VINA RESULT:      -9.1      0.000      0.000
REMARK  4 active torsions:
REMARK  status: ('A' for Active; 'I' for Inactive)
REMARK    1  A    between atoms: O1_2  and  C2_3 
REMARK    2  A    between atoms: C5_6  and  C6_7 
REMARK    3  A    between atoms: N1_9  and  C8_10 
REMARK    4  A    between atoms: C13_16  and  O2_17 
ROOT
HETATM    1  C6  UNL     1      23.127   0.357  52.582  1.00  0.00     0.112 A 
HETATM    2  C7  UNL     1      24.520   0.074  52.415  1.00  0.00     0.222 A 
HETATM    3  N1  UNL     1      25.464  -0.475  53.415  1.00  0.00    -0.189 N 
HETATM    4  N2  UNL     1      24.824  -0.994  54.651  1.00  0.00     0.085 N 
HETATM    5  C14 UNL     1      23.399  -1.249  55.317  1.00  0.00     0.363 A 
HETATM    6  N3  UNL     1      22.227  -1.239  55.464  1.00  0.00    -0.259 NA
HETATM    7  C15 UNL     1      21.427  -0.625  54.516  1.00  0.00     0.189 A 
HETATM    8  C16 UNL     1      21.997  -0.008  53.369  1.00  0.00     0.078 A 
HETATM    9  S1  UNL     1      23.430  -0.416  53.875  1.00  0.00    -0.025 SA
HETATM   10  H13 UNL     1      25.252  -1.413  55.570  1.00  0.00     0.326 HD
ENDROOT
BRANCH   3  11
HETATM   11  C8  UNL     1      26.920  -0.666  53.543  1.00  0.00     0.092 A 
HETATM   12  C9  UNL     1      27.456  -1.731  52.857  1.00  0.00     0.037 A 
HETATM   13  C10 UNL     1      28.815  -1.856  53.029  1.00  0.00     0.045 A 
HETATM   14  C11 UNL     1      29.486  -0.955  53.830  1.00  0.00     0.119 A 
HETATM   15  F1  UNL     1      30.844  -1.055  54.023  1.00  0.00    -0.206 F 
HETATM   16  C12 UNL     1      28.889   0.089  54.490  1.00  0.00     0.081 A 
HETATM   17  C13 UNL     1      27.533   0.252  54.345  1.00  0.00     0.097 A 
BRANCH  17  18
HETATM   18  O2  UNL     1      26.849   1.280  54.976  1.00  0.00    -0.358 OA
HETATM   19  H12 UNL     1      25.932   1.492  54.564  1.00  0.00     0.217 HD
ENDBRANCH  17  18
ENDBRANCH   3  11
BRANCH   1  20
HETATM   20  C5  UNL     1      22.950   1.903  52.466  1.00  0.00    -0.043 A 
HETATM   21  C4  UNL     1      23.843   2.911  52.750  1.00  0.00     0.011 A 
HETATM   22  C3  UNL     1      23.425   4.200  52.560  1.00  0.00     0.037 A 
HETATM   23  C2  UNL     1      22.176   4.526  52.106  1.00  0.00     0.068 A 
HETATM   24  C18 UNL     1      21.304   3.496  51.830  1.00  0.00     0.037 A 
HETATM   25  C17 UNL     1      21.672   2.177  52.003  1.00  0.00     0.011 A 
BRANCH  23  26
HETATM   26  O1  UNL     1      21.971   5.882  51.990  1.00  0.00    -0.356 OA
HETATM   27  C1  UNL     1      21.595   6.428  50.752  1.00  0.00     0.210 C 
ENDBRANCH  23  26
ENDBRANCH   1  20
TORSDOF 4
ENDMDL
MODEL 2
REMARK VINA RESULT:      -9.1      3.691      6.274
REMARK  4 active torsions:
REMARK  status: ('A' for Active; 'I' for Inactive)
REMARK    1  A    between atoms: O1_2  and  C2_3 
REMARK    2  A    between atoms: C5_6  and  C6_7 
REMARK    3  A    between atoms: N1_9  and  C8_10 
REMARK    4  A    between atoms: C13_16  and  O2_17 
ROOT
HETATM    1  C6  UNL     1      26.690   0.035  52.864  1.00  0.00     0.112 A 
HETATM    2  C7  UNL     1      26.313   0.889  51.778  1.00  0.00     0.222 A 
HETATM    3  N1  UNL     1      26.619   2.327  51.602  1.00  0.00    -0.189 N 
HETATM    4  N2  UNL     1      27.620   2.869  52.557  1.00  0.00     0.085 N 
HETATM    5  C14 UNL     1      28.593   2.432  53.740  1.00  0.00     0.363 A 
HETATM    6  N3  UNL     1      29.112   1.751  54.554  1.00  0.00    -0.259 NA
HETATM    7  C15 UNL     1      28.700   0.439  54.705  1.00  0.00     0.189 A 
HETATM    8  C16 UNL     1      27.663  -0.099  53.895  1.00  0.00     0.078 A 
HETATM    9  S1  UNL     1      27.528   1.288  53.166  1.00  0.00    -0.025 SA
HETATM   10  H13 UNL     1      28.010   3.884  52.701  1.00  0.00     0.326 HD
ENDROOT
BRANCH   3  11
HETATM   11  C8  UNL     1      26.200   3.424  50.711  1.00  0.00     0.092 A 
HETATM   12  C9  UNL     1      26.983   3.638  49.601  1.00  0.00     0.037 A 
HETATM   13  C10 UNL     1      26.541   4.683  48.821  1.00  0.00     0.045 A 
HETATM   14  C11 UNL     1      25.415   5.386  49.199  1.00  0.00     0.119 A 
HETATM   15  F1  UNL     1      24.950   6.434  48.441  1.00  0.00    -0.206 F 
HETATM   16  C12 UNL     1      24.677   5.120  50.324  1.00  0.00     0.081 A 
HETATM   17  C13 UNL     1      25.082   4.085  51.131  1.00  0.00     0.097 A 
BRANCH  17  18
HETATM   18  O2  UNL     1      24.395   3.748  52.287  1.00  0.00    -0.358 OA
HETATM   19  H12 UNL     1      24.814   4.117  53.150  1.00  0.00     0.217 HD
ENDBRANCH  17  18
ENDBRANCH   3  11
BRANCH   1  20
HETATM   20  C5  UNL     1      25.381  -0.383  53.601  1.00  0.00    -0.043 A 
HETATM   21  C4  UNL     1      25.215  -0.916  54.860  1.00  0.00     0.011 A 
HETATM   22  C3  UNL     1      23.939  -1.198  55.265  1.00  0.00     0.037 A 
HETATM   23  C2  UNL     1      22.836  -0.977  54.486  1.00  0.00     0.068 A 
HETATM   24  C18 UNL     1      23.032  -0.443  53.231  1.00  0.00     0.037 A 
HETATM   25  C17 UNL     1      24.298  -0.139  52.770  1.00  0.00     0.011 A 
BRANCH  23  26
HETATM   26  O1  UNL     1      21.655  -1.334  55.094  1.00  0.00    -0.356 OA
HETATM   27  C1  UNL     1      20.502  -1.532  54.316  1.00  0.00     0.210 C 
ENDBRANCH  23  26
ENDBRANCH   1  20
TORSDOF 4
ENDMDL
MODEL 3
REMARK VINA RESULT:      -9.0      4.277      5.183
REMARK  4 active torsions:
REMARK  status: ('A' for Active; 'I' for Inactive)
REMARK    1  A    between atoms: O1_2  and  C2_3 
REMARK    2  A    between atoms: C5_6  and  C6_7 
REMARK    3  A    between atoms: N1_9  and  C8_10 
REMARK    4  A    between atoms: C13_16  and  O2_17 
ROOT
HETATM    1  C6  UNL     1      24.990   3.886  49.877  1.00  0.00     0.112 A 
HETATM    2  C7  UNL     1      25.753   2.732  50.248  1.00  0.00     0.222 A 
HETATM    3  N1  UNL     1      25.994   2.198  51.607  1.00  0.00    -0.189 N 
HETATM    4  N2  UNL     1      25.157   2.810  52.670  1.00  0.00     0.085 N 
HETATM    5  C14 UNL     1      23.977   3.857  52.895  1.00  0.00     0.363 A 
HETATM    6  N3  UNL     1      23.171   4.687  52.655  1.00  0.00    -0.259 NA
HETATM    7  C15 UNL     1      23.076   5.191  51.370  1.00  0.00     0.189 A 
HETATM    8  C16 UNL     1      23.933   4.723  50.337  1.00  0.00     0.078 A 
HETATM    9  S1  UNL     1      24.622   3.751  51.364  1.00  0.00    -0.025 SA
HETATM   10  H13 UNL     1      25.137   2.657  53.757  1.00  0.00     0.326 HD
ENDROOT
BRANCH   3  11
HETATM   11  C8  UNL     1      26.861   1.186  52.237  1.00  0.00     0.092 A 
HETATM   12  C9  UNL     1      26.443  -0.120  52.137  1.00  0.00     0.037 A 
HETATM   13  C10 UNL     1      27.292  -1.009  52.756  1.00  0.00     0.045 A 
HETATM   14  C11 UNL     1      28.426  -0.540  53.387  1.00  0.00     0.119 A 
HETATM   15  F1  UNL     1      29.294  -1.402  54.015  1.00  0.00    -0.206 F 
HETATM   16  C12 UNL     1      28.787   0.782  53.450  1.00  0.00     0.081 A 
HETATM   17  C13 UNL     1      27.968   1.704  52.846  1.00  0.00     0.097 A 
BRANCH  17  18
HETATM   18  O2  UNL     1      28.256   3.060  52.861  1.00  0.00    -0.358 OA
HETATM   19  H12 UNL     1      29.206   3.293  52.548  1.00  0.00     0.217 HD
ENDBRANCH  17  18
ENDBRANCH   3  11
BRANCH   1  20
HETATM   20  C5  UNL     1      25.985   4.927  49.278  1.00  0.00    -0.043 A 
HETATM   21  C4  UNL     1      25.798   6.263  49.003  1.00  0.00     0.011 A 
HETATM   22  C3  UNL     1      26.851   6.955  48.470  1.00  0.00     0.037 A 
HETATM   23  C2  UNL     1      28.065   6.385  48.201  1.00  0.00     0.068 A 
HETATM   24  C18 UNL     1      28.225   5.047  48.486  1.00  0.00     0.037 A 
HETATM   25  C17 UNL     1      27.196   4.300  49.026  1.00  0.00     0.011 A 
BRANCH  23  26
HETATM   26  O1  UNL     1      28.978   7.265  47.666  1.00  0.00    -0.356 OA
HETATM   27  C1  UNL     1      29.232   8.486  48.314  1.00  0.00     0.210 C 
ENDBRANCH  23  26
ENDBRANCH   1  20
TORSDOF 4
ENDMDL
MODEL 4
REMARK VINA RESULT:      -9.0      2.663      4.232
REMARK  4 active torsions:
REMARK  status: ('A' for Active; 'I' for Inactive)
REMARK    1  A    between atoms: O1_2  and  C2_3 
REMARK    2  A    between atoms: C5_6  and  C6_7 
REMARK    3  A    between atoms: N1_9  and  C8_10 
REMARK    4  A    between atoms: C13_16  and  O2_17 
ROOT
HETATM    1  C6  UNL     1      23.966   3.078  52.578  1.00  0.00     0.112 A 
HETATM    2  C7  UNL     1      25.022   2.346  53.210  1.00  0.00     0.222 A 
HETATM    3  N1  UNL     1      26.246   1.793  52.588  1.00  0.00    -0.189 N 
HETATM    4  N2  UNL     1      26.497   2.254  51.199  1.00  0.00     0.085 N 
HETATM    5  C14 UNL     1      25.930   3.234  50.077  1.00  0.00     0.363 A 
HETATM    6  N3  UNL     1      25.212   4.000  49.535  1.00  0.00    -0.259 NA
HETATM    7  C15 UNL     1      24.043   4.396  50.159  1.00  0.00     0.189 A 
HETATM    8  C16 UNL     1      23.695   3.895  51.443  1.00  0.00     0.078 A 
HETATM    9  S1  UNL     1      25.015   3.040  51.455  1.00  0.00    -0.025 SA
HETATM   10  H13 UNL     1      27.281   1.992  50.477  1.00  0.00     0.326 HD
ENDROOT
BRANCH   3  11
HETATM   11  C8  UNL     1      27.338   0.878  52.968  1.00  0.00     0.092 A 
HETATM   12  C9  UNL     1      27.170  -0.443  52.628  1.00  0.00     0.037 A 
HETATM   13  C10 UNL     1      28.220  -1.241  53.022  1.00  0.00     0.045 A 
HETATM   14  C11 UNL     1      29.291  -0.677  53.687  1.00  0.00     0.119 A 
HETATM   15  F1  UNL     1      30.354  -1.448  54.094  1.00  0.00    -0.206 F 
HETATM   16  C12 UNL     1      29.396   0.655  53.996  1.00  0.00     0.081 A 
HETATM   17  C13 UNL     1      28.370   1.487  53.621  1.00  0.00     0.097 A 
BRANCH  17  18
HETATM   18  O2  UNL     1      28.395   2.846  53.894  1.00  0.00    -0.358 OA
HETATM   19  H12 UNL     1      27.880   3.422  53.217  1.00  0.00     0.217 HD
ENDBRANCH  17  18
ENDBRANCH   3  11
BRANCH   1  20
HETATM   20  C5  UNL     1      22.681   2.196  52.653  1.00  0.00    -0.043 A 
HETATM   21  C4  UNL     1      21.374   2.526  52.376  1.00  0.00     0.011 A 
HETATM   22  C3  UNL     1      20.428   1.550  52.528  1.00  0.00     0.037 A 
HETATM   23  C2  UNL     1      20.720   0.277  52.939  1.00  0.00     0.068 A 
HETATM   24  C18 UNL     1      22.037  -0.024  53.208  1.00  0.00     0.037 A 
HETATM   25  C17 UNL     1      23.033   0.922  53.072  1.00  0.00     0.011 A 
BRANCH  23  26
HETATM   26  O1  UNL     1      19.616  -0.539  53.023  1.00  0.00    -0.356 OA
HETATM   27  C1  UNL     1      18.524  -0.329  52.165  1.00  0.00     0.210 C 
ENDBRANCH  23  26
ENDBRANCH   1  20
TORSDOF 4
ENDMDL
MODEL 5
REMARK VINA RESULT:      -8.6      4.120      6.906
REMARK  4 active torsions:
REMARK  status: ('A' for Active; 'I' for Inactive)
REMARK    1  A    between atoms: O1_2  and  C2_3 
REMARK    2  A    between atoms: C5_6  and  C6_7 
REMARK    3  A    between atoms: N1_9  and  C8_10 
REMARK    4  A    between atoms: C13_16  and  O2_17 
ROOT
HETATM    1  C6  UNL     1      23.850   2.031  52.079  1.00  0.00     0.112 A 
HETATM    2  C7  UNL     1      24.643   3.130  51.618  1.00  0.00     0.222 A 
HETATM    3  N1  UNL     1      24.770   3.644  50.235  1.00  0.00    -0.189 N 
HETATM    4  N2  UNL     1      23.784   3.088  49.274  1.00  0.00     0.085 N 
HETATM    5  C14 UNL     1      22.520   2.122  49.187  1.00  0.00     0.363 A 
HETATM    6  N3  UNL     1      21.692   1.348  49.521  1.00  0.00    -0.259 NA
HETATM    7  C15 UNL     1      21.703   0.854  50.813  1.00  0.00     0.189 A 
HETATM    8  C16 UNL     1      22.696   1.266  51.744  1.00  0.00     0.078 A 
HETATM    9  S1  UNL     1      23.333   2.187  50.640  1.00  0.00    -0.025 SA
HETATM   10  H13 UNL     1      23.657   3.239  48.195  1.00  0.00     0.326 HD
ENDROOT
BRANCH   3  11
HETATM   11  C8  UNL     1      25.630   4.595  49.506  1.00  0.00     0.092 A 
HETATM   12  C9  UNL     1      26.915   4.180  49.250  1.00  0.00     0.037 A 
HETATM   13  C10 UNL     1      27.663   5.119  48.577  1.00  0.00     0.045 A 
HETATM   14  C11 UNL     1      27.091   6.328  48.237  1.00  0.00     0.119 A 
HETATM   15  F1  UNL     1      27.813   7.287  47.566  1.00  0.00    -0.206 F 
HETATM   16  C12 UNL     1      25.797   6.681  48.525  1.00  0.00     0.081 A 
HETATM   17  C13 UNL     1      25.015   5.773  49.195  1.00  0.00     0.097 A 
BRANCH  17  18
HETATM   18  O2  UNL     1      23.697   6.048  49.526  1.00  0.00    -0.358 OA
HETATM   19  H12 UNL     1      23.584   6.609  50.379  1.00  0.00     0.217 HD
ENDBRANCH  17  18
ENDBRANCH   3  11
BRANCH   1  20
HETATM   20  C5  UNL     1      24.833   0.927  52.577  1.00  0.00    -0.043 A 
HETATM   21  C4  UNL     1      24.680   0.008  53.590  1.00  0.00     0.011 A 
HETATM   22  C3  UNL     1      25.713  -0.858  53.823  1.00  0.00     0.037 A 
HETATM   23  C2  UNL     1      26.876  -0.850  53.103  1.00  0.00     0.068 A 
HETATM   24  C18 UNL     1      27.002   0.080  52.094  1.00  0.00     0.037 A 
HETATM   25  C17 UNL     1      25.991   0.978  51.816  1.00  0.00     0.011 A 
BRANCH  23  26
HETATM   26  O1  UNL     1      27.779  -1.807  53.508  1.00  0.00    -0.356 OA
HETATM   27  C1  UNL     1      29.157  -1.560  53.392  1.00  0.00     0.210 C 
ENDBRANCH  23  26
ENDBRANCH   1  20
TORSDOF 4
ENDMDL
MODEL 6
REMARK VINA RESULT:      -8.3      4.378      7.546
REMARK  4 active torsions:
REMARK  status: ('A' for Active; 'I' for Inactive)
REMARK    1  A    between atoms: O1_2  and  C2_3 
REMARK    2  A    between atoms: C5_6  and  C6_7 
REMARK    3  A    between atoms: N1_9  and  C8_10 
REMARK    4  A    between atoms: C13_16  and  O2_17 
ROOT
HETATM    1  C6  UNL     1      23.162   1.587  51.420  1.00  0.00     0.112 A 
HETATM    2  C7  UNL     1      22.027   0.719  51.329  1.00  0.00     0.222 A 
HETATM    3  N1  UNL     1      20.653   0.962  51.821  1.00  0.00    -0.189 N 
HETATM    4  N2  UNL     1      20.388   2.358  52.253  1.00  0.00     0.085 N 
HETATM    5  C14 UNL     1      21.063   3.800  52.332  1.00  0.00     0.363 A 
HETATM    6  N3  UNL     1      21.887   4.642  52.259  1.00  0.00    -0.259 NA
HETATM    7  C15 UNL     1      23.172   4.306  51.871  1.00  0.00     0.189 A 
HETATM    8  C16 UNL     1      23.511   2.961  51.558  1.00  0.00     0.078 A 
HETATM    9  S1  UNL     1      22.032   2.527  51.870  1.00  0.00    -0.025 SA
HETATM   10  H13 UNL     1      19.498   2.826  52.694  1.00  0.00     0.326 HD
ENDROOT
BRANCH   3  11
HETATM   11  C8  UNL     1      19.415   0.184  52.012  1.00  0.00     0.092 A 
HETATM   12  C9  UNL     1      18.512   0.215  50.976  1.00  0.00     0.037 A 
HETATM   13  C10 UNL     1      17.377  -0.523  51.226  1.00  0.00     0.045 A 
HETATM   14  C11 UNL     1      17.250  -1.191  52.427  1.00  0.00     0.119 A 
HETATM   15  F1  UNL     1      16.128  -1.934  52.706  1.00  0.00    -0.206 F 
HETATM   16  C12 UNL     1      18.193  -1.179  53.423  1.00  0.00     0.081 A 
HETATM   17  C13 UNL     1      19.342  -0.456  53.216  1.00  0.00     0.097 A 
BRANCH  17  18
HETATM   18  O2  UNL     1      20.346  -0.390  54.169  1.00  0.00    -0.358 OA
HETATM   19  H12 UNL     1      20.212   0.347  54.872  1.00  0.00     0.217 HD
ENDBRANCH  17  18
ENDBRANCH   3  11
BRANCH   1  20
HETATM   20  C5  UNL     1      24.199   0.897  52.359  1.00  0.00    -0.043 A 
HETATM   21  C4  UNL     1      23.992   0.028  53.407  1.00  0.00     0.011 A 
HETATM   22  C3  UNL     1      25.093  -0.432  54.076  1.00  0.00     0.037 A 
HETATM   23  C2  UNL     1      26.374  -0.072  53.753  1.00  0.00     0.068 A 
HETATM   24  C18 UNL     1      26.551   0.799  52.701  1.00  0.00     0.037 A 
HETATM   25  C17 UNL     1      25.475   1.295  51.991  1.00  0.00     0.011 A 
BRANCH  23  26
HETATM   26  O1  UNL     1      27.326  -0.654  54.558  1.00  0.00    -0.356 OA
HETATM   27  C1  UNL     1      28.615  -0.098  54.628  1.00  0.00     0.210 C 
ENDBRANCH  23  26
ENDBRANCH   1  20
TORSDOF 4
ENDMDL
MODEL 7
REMARK VINA RESULT:      -8.3      4.407      7.729
REMARK  4 active torsions:
REMARK  status: ('A' for Active; 'I' for Inactive)
REMARK    1  A    between atoms: O1_2  and  C2_3 
REMARK    2  A    between atoms: C5_6  and  C6_7 
REMARK    3  A    between atoms: N1_9  and  C8_10 
REMARK    4  A    between atoms: C13_16  and  O2_17 
ROOT
HETATM    1  C6  UNL     1      22.977   1.386  51.445  1.00  0.00     0.112 A 
HETATM    2  C7  UNL     1      21.850   0.504  51.428  1.00  0.00     0.222 A 
HETATM    3  N1  UNL     1      20.479   0.769  51.921  1.00  0.00    -0.189 N 
HETATM    4  N2  UNL     1      20.206   2.189  52.260  1.00  0.00     0.085 N 
HETATM    5  C14 UNL     1      20.868   3.638  52.233  1.00  0.00     0.363 A 
HETATM    6  N3  UNL     1      21.684   4.481  52.092  1.00  0.00    -0.259 NA
HETATM    7  C15 UNL     1      22.967   4.129  51.710  1.00  0.00     0.189 A 
HETATM    8  C16 UNL     1      23.315   2.770  51.485  1.00  0.00     0.078 A 
HETATM    9  S1  UNL     1      21.844   2.345  51.845  1.00  0.00    -0.025 SA
HETATM   10  H13 UNL     1      19.318   2.677  52.681  1.00  0.00     0.326 HD
ENDROOT
BRANCH   3  11
HETATM   11  C8  UNL     1      19.252  -0.005  52.181  1.00  0.00     0.092 A 
HETATM   12  C9  UNL     1      19.251  -0.782  53.315  1.00  0.00     0.037 A 
HETATM   13  C10 UNL     1      18.080  -1.484  53.490  1.00  0.00     0.045 A 
HETATM   14  C11 UNL     1      17.065  -1.356  52.563  1.00  0.00     0.119 A 
HETATM   15  F1  UNL     1      15.884  -2.045  52.709  1.00  0.00    -0.206 F 
HETATM   16  C12 UNL     1      17.131  -0.560  51.448  1.00  0.00     0.081 A 
HETATM   17  C13 UNL     1      18.281   0.159  51.235  1.00  0.00     0.097 A 
BRANCH  17  18
HETATM   18  O2  UNL     1      18.433   0.987  50.133  1.00  0.00    -0.358 OA
HETATM   19  H12 UNL     1      19.318   0.860  49.628  1.00  0.00     0.217 HD
ENDBRANCH  17  18
ENDBRANCH   3  11
BRANCH   1  20
HETATM   20  C5  UNL     1      24.033   0.771  52.415  1.00  0.00    -0.043 A 
HETATM   21  C4  UNL     1      23.852  -0.074  53.487  1.00  0.00     0.011 A 
HETATM   22  C3  UNL     1      24.964  -0.466  54.180  1.00  0.00     0.037 A 
HETATM   23  C2  UNL     1      26.231  -0.060  53.859  1.00  0.00     0.068 A 
HETATM   24  C18 UNL     1      26.382   0.785  52.782  1.00  0.00     0.037 A 
HETATM   25  C17 UNL     1      25.294   1.212  52.046  1.00  0.00     0.011 A 
BRANCH  23  26
HETATM   26  O1  UNL     1      27.199  -0.575  54.691  1.00  0.00    -0.356 OA
HETATM   27  C1  UNL     1      28.455   0.050  54.772  1.00  0.00     0.210 C 
ENDBRANCH  23  26
ENDBRANCH   1  20
TORSDOF 4
ENDMDL
MODEL 8
REMARK VINA RESULT:      -8.1      5.577      7.108
REMARK  4 active torsions:
REMARK  status: ('A' for Active; 'I' for Inactive)
REMARK    1  A    between atoms: O1_2  and  C2_3 
REMARK    2  A    between atoms: C5_6  and  C6_7 
REMARK    3  A    between atoms: N1_9  and  C8_10 
REMARK    4  A    between atoms: C13_16  and  O2_17 
ROOT
HETATM    1  C6  UNL     1      25.431   5.470  48.827  1.00  0.00     0.112 A 
HETATM    2  C7  UNL     1      25.397   4.143  49.364  1.00  0.00     0.222 A 
HETATM    3  N1  UNL     1      25.059   3.728  50.745  1.00  0.00    -0.189 N 
HETATM    4  N2  UNL     1      24.473   4.801  51.588  1.00  0.00     0.085 N 
HETATM    5  C14 UNL     1      23.989   6.318  51.535  1.00  0.00     0.363 A 
HETATM    6  N3  UNL     1      23.793   7.405  51.115  1.00  0.00    -0.259 NA
HETATM    7  C15 UNL     1      24.222   7.729  49.840  1.00  0.00     0.189 A 
HETATM    8  C16 UNL     1      24.894   6.773  49.031  1.00  0.00     0.078 A 
HETATM    9  S1  UNL     1      24.767   5.718  50.191  1.00  0.00    -0.025 SA
HETATM   10  H13 UNL     1      24.168   4.812  52.641  1.00  0.00     0.326 HD
ENDROOT
BRANCH   3  11
HETATM   11  C8  UNL     1      25.136   2.501  51.558  1.00  0.00     0.092 A 
HETATM   12  C9  UNL     1      23.949   1.848  51.788  1.00  0.00     0.037 A 
HETATM   13  C10 UNL     1      24.093   0.719  52.562  1.00  0.00     0.045 A 
HETATM   14  C11 UNL     1      25.346   0.361  53.017  1.00  0.00     0.119 A 
HETATM   15  F1  UNL     1      25.521  -0.760  53.793  1.00  0.00    -0.206 F 
HETATM   16  C12 UNL     1      26.495   1.061  52.751  1.00  0.00     0.081 A 
HETATM   17  C13 UNL     1      26.397   2.193  51.981  1.00  0.00     0.097 A 
BRANCH  17  18
HETATM   18  O2  UNL     1      27.508   2.960  51.664  1.00  0.00    -0.358 OA
HETATM   19  H12 UNL     1      27.388   3.967  51.832  1.00  0.00     0.217 HD
ENDBRANCH  17  18
ENDBRANCH   3  11
BRANCH   1  20
HETATM   20  C5  UNL     1      26.915   5.787  48.466  1.00  0.00    -0.043 A 
HETATM   21  C4  UNL     1      28.033   4.990  48.572  1.00  0.00     0.011 A 
HETATM   22  C3  UNL     1      29.231   5.524  48.183  1.00  0.00     0.037 A 
HETATM   23  C2  UNL     1      29.365   6.798  47.700  1.00  0.00     0.068 A 
HETATM   24  C18 UNL     1      28.229   7.572  47.606  1.00  0.00     0.037 A 
HETATM   25  C17 UNL     1      26.994   7.084  47.984  1.00  0.00     0.011 A 
BRANCH  23  26
HETATM   26  O1  UNL     1      30.660   7.126  47.371  1.00  0.00    -0.356 OA
HETATM   27  C1  UNL     1      31.667   7.059  48.348  1.00  0.00     0.210 C 
ENDBRANCH  23  26
ENDBRANCH   1  20
TORSDOF 4
ENDMDL
MODEL 9
REMARK VINA RESULT:      -7.9      3.994      7.173
REMARK  4 active torsions:
REMARK  status: ('A' for Active; 'I' for Inactive)
REMARK    1  A    between atoms: O1_2  and  C2_3 
REMARK    2  A    between atoms: C5_6  and  C6_7 
REMARK    3  A    between atoms: N1_9  and  C8_10 
REMARK    4  A    between atoms: C13_16  and  O2_17 
ROOT
HETATM    1  C6  UNL     1      23.228   2.280  52.366  1.00  0.00     0.112 A 
HETATM    2  C7  UNL     1      23.541   3.674  52.276  1.00  0.00     0.222 A 
HETATM    3  N1  UNL     1      23.576   4.523  51.064  1.00  0.00    -0.189 N 
HETATM    4  N2  UNL     1      22.999   3.892  49.849  1.00  0.00     0.085 N 
HETATM    5  C14 UNL     1      22.255   2.575  49.349  1.00  0.00     0.363 A 
HETATM    6  N3  UNL     1      21.789   1.490  49.371  1.00  0.00    -0.259 NA
HETATM    7  C15 UNL     1      21.879   0.734  50.527  1.00  0.00     0.189 A 
HETATM    8  C16 UNL     1      22.525   1.245  51.685  1.00  0.00     0.078 A 
HETATM    9  S1  UNL     1      22.829   2.581  50.912  1.00  0.00    -0.025 SA
HETATM   10  H13 UNL     1      22.923   4.246  48.813  1.00  0.00     0.326 HD
ENDROOT
BRANCH   3  11
HETATM   11  C8  UNL     1      24.035   5.876  50.699  1.00  0.00     0.092 A 
HETATM   12  C9  UNL     1      23.104   6.882  50.802  1.00  0.00     0.037 A 
HETATM   13  C10 UNL     1      23.597   8.115  50.436  1.00  0.00     0.045 A 
HETATM   14  C11 UNL     1      24.908   8.227  50.021  1.00  0.00     0.119 A 
HETATM   15  F1  UNL     1      25.429   9.444  49.648  1.00  0.00    -0.206 F 
HETATM   16  C12 UNL     1      25.788   7.178  49.940  1.00  0.00     0.081 A 
HETATM   17  C13 UNL     1      25.338   5.930  50.296  1.00  0.00     0.097 A 
BRANCH  17  18
HETATM   18  O2  UNL     1      26.160   4.814  50.245  1.00  0.00    -0.358 OA
HETATM   19  H12 UNL     1      25.665   3.921  50.356  1.00  0.00     0.217 HD
ENDBRANCH  17  18
ENDBRANCH   3  11
BRANCH   1  20
HETATM   20  C5  UNL     1      24.525   1.542  52.820  1.00  0.00    -0.043 A 
HETATM   21  C4  UNL     1      25.840   1.936  52.716  1.00  0.00     0.011 A 
HETATM   22  C3  UNL     1      26.796   1.085  53.199  1.00  0.00     0.037 A 
HETATM   23  C2  UNL     1      26.507  -0.124  53.772  1.00  0.00     0.068 A 
HETATM   24  C18 UNL     1      25.182  -0.492  53.862  1.00  0.00     0.037 A 
HETATM   25  C17 UNL     1      24.176   0.328  53.391  1.00  0.00     0.011 A 
BRANCH  23  26
HETATM   26  O1  UNL     1      27.622  -0.816  54.186  1.00  0.00    -0.356 OA
HETATM   27  C1  UNL     1      28.762  -0.113  54.609  1.00  0.00     0.210 C 
ENDBRANCH  23  26
ENDBRANCH   1  20
TORSDOF 4
ENDMDL
