MODEL 1
REMARK VINA RESULT:      -8.0      0.000      0.000
REMARK  1 active torsions:
REMARK  status: ('A' for Active; 'I' for Inactive)
REMARK    1  A    between atoms: N1_1  and  C1_2 
ROOT
HETATM    1  C1  UNL     1      34.384   4.707  48.215  1.00  0.00     0.011 C 
HETATM    2  C2  UNL     1      34.895   5.894  48.614  1.00  0.00     0.026 C 
HETATM    3  C3  UNL     1      34.992   7.347  48.691  1.00  0.00     0.021 C 
HETATM    4  C4  UNL     1      34.372   8.397  48.205  1.00  0.00     0.119 C 
HETATM    5  N2  UNL     1      33.400   9.124  47.440  1.00  0.00    -0.243 N 
HETATM    6  N3  UNL     1      33.850  10.384  46.936  1.00  0.00    -0.163 NA
HETATM    7  C5  UNL     1      33.271  11.580  47.052  1.00  0.00     0.230 C 
HETATM    8  N4  UNL     1      32.040  11.984  47.706  1.00  0.00    -0.349 N 
HETATM    9  C6  UNL     1      30.979  11.053  48.044  1.00  0.00     0.047 A 
HETATM   10  C7  UNL     1      29.901  11.617  48.694  1.00  0.00     0.030 A 
HETATM   11  C8  UNL     1      28.864  10.778  49.040  1.00  0.00     0.004 A 
HETATM   12  C9  UNL     1      28.812   9.414  48.789  1.00  0.00     0.020 A 
HETATM   13  C10 UNL     1      29.899   8.829  48.133  1.00  0.00     0.025 A 
HETATM   14 BR1  UNL     1      29.978   6.944  47.809  1.00  0.00    -0.050 Br
HETATM   15  C11 UNL     1      30.966   9.657  47.766  1.00  0.00     0.036 A 
HETATM   16  C12 UNL     1      32.025   8.878  47.043  1.00  0.00     0.070 C 
HETATM   17  C13 UNL     1      31.338   8.140  46.130  1.00  0.00     0.031 C 
HETATM   18  C14 UNL     1      31.829   7.180  45.057  1.00  0.00     0.112 C 
HETATM   19  C15 UNL     1      31.472   7.893  43.755  1.00  0.00     0.051 C 
HETATM   20  C16 UNL     1      32.440   7.531  42.703  1.00  0.00     0.152 C 
HETATM   21  N5  UNL     1      33.740   8.067  43.096  1.00  0.00    -0.285 NA
HETATM   22  C17 UNL     1      34.131   7.694  44.313  1.00  0.00     0.199 C 
HETATM   23  N6  UNL     1      33.175   6.823  45.010  1.00  0.00    -0.365 N 
HETATM   24  C18 UNL     1      33.718   5.633  45.627  1.00  0.00     0.157 C 
HETATM   25  C19 UNL     1      32.796   4.697  46.234  1.00  0.00     0.151 C 
HETATM   26  O1  UNL     1      32.758   3.389  45.637  1.00  0.00    -0.383 OA
HETATM   27  C20 UNL     1      33.884   3.044  46.389  1.00  0.00     0.181 C 
HETATM   28  C21 UNL     1      33.363   4.015  47.447  1.00  0.00     0.089 C 
HETATM   29  H7  UNL     1      31.866  12.955  47.959  1.00  0.00     0.167 HD
ENDROOT
BRANCH   1  30
HETATM   30  N1  UNL     1      34.997   3.469  48.691  1.00  0.00    -0.402 N 
HETATM   31  H1  UNL     1      34.954   2.915  49.581  1.00  0.00     0.156 HD
HETATM   32  H2  UNL     1      35.659   2.784  48.267  1.00  0.00     0.156 HD
ENDBRANCH   1  30
TORSDOF 1
ENDMDL
MODEL 2
REMARK VINA RESULT:      -7.9      9.970     12.189
REMARK  1 active torsions:
REMARK  status: ('A' for Active; 'I' for Inactive)
REMARK    1  A    between atoms: N1_1  and  C1_2 
ROOT
HETATM    1  C1  UNL     1      24.742   7.219  50.595  1.00  0.00     0.011 C 
HETATM    2  C2  UNL     1      23.491   7.354  51.092  1.00  0.00     0.026 C 
HETATM    3  C3  UNL     1      22.136   6.931  51.426  1.00  0.00     0.021 C 
HETATM    4  C4  UNL     1      21.385   5.861  51.305  1.00  0.00     0.119 C 
HETATM    5  N2  UNL     1      21.046   4.517  50.935  1.00  0.00    -0.243 N 
HETATM    6  N3  UNL     1      19.672   4.314  50.597  1.00  0.00    -0.163 NA
HETATM    7  C5  UNL     1      18.826   3.397  51.070  1.00  0.00     0.230 C 
HETATM    8  N4  UNL     1      19.014   2.343  52.050  1.00  0.00    -0.349 N 
HETATM    9  C6  UNL     1      20.320   1.836  52.431  1.00  0.00     0.047 A 
HETATM   10  C7  UNL     1      20.300   0.859  53.403  1.00  0.00     0.030 A 
HETATM   11  C8  UNL     1      21.513   0.342  53.803  1.00  0.00     0.004 A 
HETATM   12  C9  UNL     1      22.754   0.723  53.311  1.00  0.00     0.020 A 
HETATM   13  C10 UNL     1      22.789   1.714  52.326  1.00  0.00     0.025 A 
HETATM   14 BR1  UNL     1      24.444   2.380  51.633  1.00  0.00    -0.050 Br
HETATM   15  C11 UNL     1      21.572   2.255  51.897  1.00  0.00     0.036 A 
HETATM   16  C12 UNL     1      21.788   3.274  50.817  1.00  0.00     0.070 C 
HETATM   17  C13 UNL     1      22.655   2.676  49.956  1.00  0.00     0.031 C 
HETATM   18  C14 UNL     1      23.234   3.158  48.635  1.00  0.00     0.112 C 
HETATM   19  C15 UNL     1      22.611   2.212  47.610  1.00  0.00     0.051 C 
HETATM   20  C16 UNL     1      22.456   2.906  46.318  1.00  0.00     0.152 C 
HETATM   21  N5  UNL     1      21.479   3.974  46.505  1.00  0.00    -0.285 NA
HETATM   22  C17 UNL     1      21.771   4.802  47.506  1.00  0.00     0.199 C 
HETATM   23  N6  UNL     1      23.012   4.468  48.218  1.00  0.00    -0.365 N 
HETATM   24  C18 UNL     1      23.933   5.559  48.454  1.00  0.00     0.157 C 
HETATM   25  C19 UNL     1      25.212   5.254  49.059  1.00  0.00     0.151 C 
HETATM   26  O1  UNL     1      26.364   5.527  48.243  1.00  0.00    -0.383 OA
HETATM   27  C20 UNL     1      26.293   6.865  48.641  1.00  0.00     0.181 C 
HETATM   28  C21 UNL     1      25.714   6.348  49.957  1.00  0.00     0.089 C 
HETATM   29  H7  UNL     1      18.222   1.906  52.520  1.00  0.00     0.167 HD
ENDROOT
BRANCH   1  30
HETATM   30  N1  UNL     1      25.665   8.349  50.671  1.00  0.00    -0.402 N 
HETATM   31  H1  UNL     1      25.607   9.331  51.037  1.00  0.00     0.156 HD
HETATM   32  H2  UNL     1      26.655   8.491  50.376  1.00  0.00     0.156 HD
ENDBRANCH   1  30
TORSDOF 1
ENDMDL
MODEL 3
REMARK VINA RESULT:      -7.7      9.352     11.845
REMARK  1 active torsions:
REMARK  status: ('A' for Active; 'I' for Inactive)
REMARK    1  A    between atoms: N1_1  and  C1_2 
ROOT
HETATM    1  C1  UNL     1      24.785   7.373  50.675  1.00  0.00     0.011 C 
HETATM    2  C2  UNL     1      24.072   6.969  51.751  1.00  0.00     0.026 C 
HETATM    3  C3  UNL     1      23.328   6.030  52.582  1.00  0.00     0.021 C 
HETATM    4  C4  UNL     1      22.954   4.772  52.545  1.00  0.00     0.119 C 
HETATM    5  N2  UNL     1      22.824   3.445  52.015  1.00  0.00    -0.243 N 
HETATM    6  N3  UNL     1      21.619   2.767  52.379  1.00  0.00    -0.163 NA
HETATM    7  C5  UNL     1      21.477   1.554  52.916  1.00  0.00     0.230 C 
HETATM    8  N4  UNL     1      22.462   0.559  53.297  1.00  0.00    -0.349 N 
HETATM    9  C6  UNL     1      23.823   0.555  52.791  1.00  0.00     0.047 A 
HETATM   10  C7  UNL     1      24.623  -0.449  53.294  1.00  0.00     0.030 A 
HETATM   11  C8  UNL     1      25.926  -0.500  52.848  1.00  0.00     0.004 A 
HETATM   12  C9  UNL     1      26.500   0.374  51.934  1.00  0.00     0.020 A 
HETATM   13  C10 UNL     1      25.701   1.397  51.417  1.00  0.00     0.025 A 
HETATM   14 BR1  UNL     1      26.405   2.710  50.217  1.00  0.00    -0.050 Br
HETATM   15  C11 UNL     1      24.372   1.471  51.850  1.00  0.00     0.036 A 
HETATM   16  C12 UNL     1      23.649   2.599  51.172  1.00  0.00     0.070 C 
HETATM   17  C13 UNL     1      23.973   2.466  49.858  1.00  0.00     0.031 C 
HETATM   18  C14 UNL     1      23.530   3.263  48.640  1.00  0.00     0.112 C 
HETATM   19  C15 UNL     1      22.697   2.259  47.846  1.00  0.00     0.051 C 
HETATM   20  C16 UNL     1      21.649   2.966  47.087  1.00  0.00     0.152 C 
HETATM   21  N5  UNL     1      20.728   3.556  48.054  1.00  0.00    -0.285 NA
HETATM   22  C17 UNL     1      21.321   4.327  48.963  1.00  0.00     0.199 C 
HETATM   23  N6  UNL     1      22.778   4.423  48.808  1.00  0.00    -0.365 N 
HETATM   24  C18 UNL     1      23.345   5.754  48.858  1.00  0.00     0.157 C 
HETATM   25  C19 UNL     1      24.763   5.902  48.607  1.00  0.00     0.151 C 
HETATM   26  O1  UNL     1      25.109   6.675  47.445  1.00  0.00    -0.383 OA
HETATM   27  C20 UNL     1      24.940   7.837  48.203  1.00  0.00     0.181 C 
HETATM   28  C21 UNL     1      25.390   7.009  49.405  1.00  0.00     0.089 C 
HETATM   29  H7  UNL     1      22.236  -0.192  53.948  1.00  0.00     0.167 HD
ENDROOT
BRANCH   1  30
HETATM   30  N1  UNL     1      25.251   8.757  50.606  1.00  0.00    -0.402 N 
HETATM   31  H1  UNL     1      25.594   9.459  51.305  1.00  0.00     0.156 HD
HETATM   32  H2  UNL     1      25.370   9.438  49.826  1.00  0.00     0.156 HD
ENDBRANCH   1  30
TORSDOF 1
ENDMDL
MODEL 4
REMARK VINA RESULT:      -7.5      9.991     12.024
REMARK  1 active torsions:
REMARK  status: ('A' for Active; 'I' for Inactive)
REMARK    1  A    between atoms: N1_1  and  C1_2 
ROOT
HETATM    1  C1  UNL     1      22.037   1.610  52.375  1.00  0.00     0.011 C 
HETATM    2  C2  UNL     1      20.981   2.454  52.396  1.00  0.00     0.026 C 
HETATM    3  C3  UNL     1      20.167   3.583  51.960  1.00  0.00     0.021 C 
HETATM    4  C4  UNL     1      20.205   4.523  51.045  1.00  0.00     0.119 C 
HETATM    5  N2  UNL     1      20.727   5.273  49.938  1.00  0.00    -0.243 N 
HETATM    6  N3  UNL     1      20.397   6.665  49.945  1.00  0.00    -0.163 NA
HETATM    7  C5  UNL     1      19.855   7.394  48.969  1.00  0.00     0.230 C 
HETATM    8  N4  UNL     1      19.433   7.031  47.629  1.00  0.00    -0.349 N 
HETATM    9  C6  UNL     1      19.895   5.835  46.948  1.00  0.00     0.047 A 
HETATM   10  C7  UNL     1      19.358   5.640  45.693  1.00  0.00     0.030 A 
HETATM   11  C8  UNL     1      19.761   4.518  45.002  1.00  0.00     0.004 A 
HETATM   12  C9  UNL     1      20.663   3.568  45.462  1.00  0.00     0.020 A 
HETATM   13  C10 UNL     1      21.215   3.753  46.733  1.00  0.00     0.025 A 
HETATM   14 BR1  UNL     1      22.403   2.467  47.506  1.00  0.00    -0.050 Br
HETATM   15  C11 UNL     1      20.826   4.885  47.457  1.00  0.00     0.036 A 
HETATM   16  C12 UNL     1      21.536   4.947  48.778  1.00  0.00     0.070 C 
HETATM   17  C13 UNL     1      22.838   4.698  48.473  1.00  0.00     0.031 C 
HETATM   18  C14 UNL     1      24.076   4.666  49.356  1.00  0.00     0.112 C 
HETATM   19  C15 UNL     1      24.889   5.863  48.869  1.00  0.00     0.051 C 
HETATM   20  C16 UNL     1      25.686   6.413  49.981  1.00  0.00     0.152 C 
HETATM   21  N5  UNL     1      24.756   6.951  50.968  1.00  0.00    -0.285 NA
HETATM   22  C17 UNL     1      23.835   6.079  51.372  1.00  0.00     0.199 C 
HETATM   23  N6  UNL     1      23.943   4.757  50.740  1.00  0.00    -0.365 N 
HETATM   24  C18 UNL     1      23.886   3.613  51.624  1.00  0.00     0.157 C 
HETATM   25  C19 UNL     1      24.092   2.299  51.054  1.00  0.00     0.151 C 
HETATM   26  O1  UNL     1      25.249   1.591  51.533  1.00  0.00    -0.383 OA
HETATM   27  C20 UNL     1      24.507   1.188  52.647  1.00  0.00     0.181 C 
HETATM   28  C21 UNL     1      23.284   1.230  51.732  1.00  0.00     0.089 C 
HETATM   29  H7  UNL     1      18.784   7.611  47.099  1.00  0.00     0.167 HD
ENDROOT
BRANCH   1  30
HETATM   30  N1  UNL     1      22.103   0.525  53.353  1.00  0.00    -0.402 N 
HETATM   31  H1  UNL     1      22.820  -0.195  53.613  1.00  0.00     0.156 HD
HETATM   32  H2  UNL     1      21.441   0.164  54.072  1.00  0.00     0.156 HD
ENDBRANCH   1  30
TORSDOF 1
ENDMDL
MODEL 5
REMARK VINA RESULT:      -7.2      3.535      7.465
REMARK  1 active torsions:
REMARK  status: ('A' for Active; 'I' for Inactive)
REMARK    1  A    between atoms: N1_1  and  C1_2 
ROOT
HETATM    1  C1  UNL     1      28.652  13.335  47.567  1.00  0.00     0.011 C 
HETATM    2  C2  UNL     1      29.723  12.982  48.314  1.00  0.00     0.026 C 
HETATM    3  C3  UNL     1      30.683  12.067  48.920  1.00  0.00     0.021 C 
HETATM    4  C4  UNL     1      30.918  10.776  48.958  1.00  0.00     0.119 C 
HETATM    5  N2  UNL     1      30.716   9.385  48.668  1.00  0.00    -0.243 N 
HETATM    6  N3  UNL     1      31.119   8.489  49.707  1.00  0.00    -0.163 NA
HETATM    7  C5  UNL     1      31.918   7.425  49.624  1.00  0.00     0.230 C 
HETATM    8  N4  UNL     1      32.620   6.847  48.493  1.00  0.00    -0.349 N 
HETATM    9  C6  UNL     1      32.260   7.117  47.113  1.00  0.00     0.047 A 
HETATM   10  C7  UNL     1      33.064   6.504  46.175  1.00  0.00     0.030 A 
HETATM   11  C8  UNL     1      32.768   6.727  44.848  1.00  0.00     0.004 A 
HETATM   12  C9  UNL     1      31.728   7.516  44.375  1.00  0.00     0.020 A 
HETATM   13  C10 UNL     1      30.905   8.143  45.314  1.00  0.00     0.025 A 
HETATM   14 BR1  UNL     1      29.494   9.321  44.782  1.00  0.00    -0.050 Br
HETATM   15  C11 UNL     1      31.180   7.933  46.670  1.00  0.00     0.036 A 
HETATM   16  C12 UNL     1      30.184   8.647  47.537  1.00  0.00     0.070 C 
HETATM   17  C13 UNL     1      28.978   8.339  46.990  1.00  0.00     0.031 C 
HETATM   18  C14 UNL     1      27.567   8.708  47.423  1.00  0.00     0.112 C 
HETATM   19  C15 UNL     1      26.966   7.369  47.844  1.00  0.00     0.051 C 
HETATM   20  C16 UNL     1      25.964   7.581  48.905  1.00  0.00     0.152 C 
HETATM   21  N5  UNL     1      26.667   8.079  50.083  1.00  0.00    -0.285 NA
HETATM   22  C17 UNL     1      27.413   9.157  49.850  1.00  0.00     0.199 C 
HETATM   23  N6  UNL     1      27.377   9.621  48.457  1.00  0.00    -0.365 N 
HETATM   24  C18 UNL     1      27.156  11.037  48.255  1.00  0.00     0.157 C 
HETATM   25  C19 UNL     1      27.010  11.519  46.898  1.00  0.00     0.151 C 
HETATM   26  O1  UNL     1      25.733  12.098  46.580  1.00  0.00    -0.383 OA
HETATM   27  C20 UNL     1      26.167  13.298  47.150  1.00  0.00     0.181 C 
HETATM   28  C21 UNL     1      27.571  12.898  46.700  1.00  0.00     0.089 C 
HETATM   29  H7  UNL     1      33.409   6.216  48.622  1.00  0.00     0.167 HD
ENDROOT
BRANCH   1  30
HETATM   30  N1  UNL     1      28.293  14.748  47.457  1.00  0.00    -0.402 N 
HETATM   31  H1  UNL     1      27.392  15.280  47.390  1.00  0.00     0.156 HD
HETATM   32  H2  UNL     1      28.848  15.630  47.412  1.00  0.00     0.156 HD
ENDBRANCH   1  30
TORSDOF 1
ENDMDL
MODEL 6
REMARK VINA RESULT:      -7.1      8.892     10.925
REMARK  1 active torsions:
REMARK  status: ('A' for Active; 'I' for Inactive)
REMARK    1  A    between atoms: N1_1  and  C1_2 
ROOT
HETATM    1  C1  UNL     1      24.279   3.000  51.779  1.00  0.00     0.011 C 
HETATM    2  C2  UNL     1      23.282   3.725  52.335  1.00  0.00     0.026 C 
HETATM    3  C3  UNL     1      22.232   4.737  52.379  1.00  0.00     0.021 C 
HETATM    4  C4  UNL     1      21.701   5.632  51.580  1.00  0.00     0.119 C 
HETATM    5  N2  UNL     1      21.513   6.383  50.372  1.00  0.00    -0.243 N 
HETATM    6  N3  UNL     1      21.069   7.729  50.562  1.00  0.00    -0.163 NA
HETATM    7  C5  UNL     1      20.033   8.350  49.997  1.00  0.00     0.230 C 
HETATM    8  N4  UNL     1      19.048   7.882  49.040  1.00  0.00    -0.349 N 
HETATM    9  C6  UNL     1      19.248   6.713  48.202  1.00  0.00     0.047 A 
HETATM   10  C7  UNL     1      18.186   6.403  47.379  1.00  0.00     0.030 A 
HETATM   11  C8  UNL     1      18.321   5.301  46.562  1.00  0.00     0.004 A 
HETATM   12  C9  UNL     1      19.436   4.477  46.498  1.00  0.00     0.020 A 
HETATM   13  C10 UNL     1      20.520   4.779  47.328  1.00  0.00     0.025 A 
HETATM   14 BR1  UNL     1      22.076   3.667  47.388  1.00  0.00    -0.050 Br
HETATM   15  C11 UNL     1      20.412   5.894  48.166  1.00  0.00     0.036 A 
HETATM   16  C12 UNL     1      21.671   6.094  48.958  1.00  0.00     0.070 C 
HETATM   17  C13 UNL     1      22.669   5.974  48.042  1.00  0.00     0.031 C 
HETATM   18  C14 UNL     1      24.177   6.118  48.190  1.00  0.00     0.112 C 
HETATM   19  C15 UNL     1      24.493   7.373  47.380  1.00  0.00     0.051 C 
HETATM   20  C16 UNL     1      25.666   8.057  47.954  1.00  0.00     0.152 C 
HETATM   21  N5  UNL     1      25.292   8.535  49.281  1.00  0.00    -0.285 NA
HETATM   22  C17 UNL     1      24.803   7.587  50.078  1.00  0.00     0.199 C 
HETATM   23  N6  UNL     1      24.738   6.258  49.457  1.00  0.00    -0.365 N 
HETATM   24  C18 UNL     1      25.261   5.156  50.236  1.00  0.00     0.157 C 
HETATM   25  C19 UNL     1      25.310   3.847  49.620  1.00  0.00     0.151 C 
HETATM   26  O1  UNL     1      26.626   3.292  49.448  1.00  0.00    -0.383 OA
HETATM   27  C20 UNL     1      26.588   2.863  50.778  1.00  0.00     0.181 C 
HETATM   28  C21 UNL     1      25.077   2.729  50.595  1.00  0.00     0.089 C 
HETATM   29  H7  UNL     1      18.158   8.362  48.913  1.00  0.00     0.167 HD
ENDROOT
BRANCH   1  30
HETATM   30  N1  UNL     1      24.948   1.975  52.578  1.00  0.00    -0.402 N 
HETATM   31  H1  UNL     1      24.833   0.940  52.702  1.00  0.00     0.156 HD
HETATM   32  H2  UNL     1      25.738   1.994  53.258  1.00  0.00     0.156 HD
ENDBRANCH   1  30
TORSDOF 1
ENDMDL
MODEL 7
REMARK VINA RESULT:      -7.0      2.280      3.059
REMARK  1 active torsions:
REMARK  status: ('A' for Active; 'I' for Inactive)
REMARK    1  A    between atoms: N1_1  and  C1_2 
ROOT
HETATM    1  C1  UNL     1      32.212   5.947  48.143  1.00  0.00     0.011 C 
HETATM    2  C2  UNL     1      32.077   6.831  49.158  1.00  0.00     0.026 C 
HETATM    3  C3  UNL     1      31.712   8.097  49.784  1.00  0.00     0.021 C 
HETATM    4  C4  UNL     1      31.193   9.250  49.434  1.00  0.00     0.119 C 
HETATM    5  N2  UNL     1      30.634  10.238  48.556  1.00  0.00    -0.243 N 
HETATM    6  N3  UNL     1      30.917  11.593  48.915  1.00  0.00    -0.163 NA
HETATM    7  C5  UNL     1      30.066  12.608  49.070  1.00  0.00     0.230 C 
HETATM    8  N4  UNL     1      28.622  12.670  48.931  1.00  0.00    -0.349 N 
HETATM    9  C6  UNL     1      27.851  11.681  48.199  1.00  0.00     0.047 A 
HETATM   10  C7  UNL     1      26.489  11.889  48.208  1.00  0.00     0.030 A 
HETATM   11  C8  UNL     1      25.707  10.979  47.528  1.00  0.00     0.004 A 
HETATM   12  C9  UNL     1      26.177   9.871  46.837  1.00  0.00     0.020 A 
HETATM   13  C10 UNL     1      27.557   9.647  46.821  1.00  0.00     0.025 A 
HETATM   14 BR1  UNL     1      28.313   8.108  45.973  1.00  0.00    -0.050 Br
HETATM   15  C11 UNL     1      28.375  10.557  47.500  1.00  0.00     0.036 A 
HETATM   16  C12 UNL     1      29.823  10.190  47.352  1.00  0.00     0.070 C 
HETATM   17  C13 UNL     1      29.974   9.936  46.025  1.00  0.00     0.031 C 
HETATM   18  C14 UNL     1      31.208   9.560  45.219  1.00  0.00     0.112 C 
HETATM   19  C15 UNL     1      31.432  10.779  44.328  1.00  0.00     0.051 C 
HETATM   20  C16 UNL     1      32.870  10.931  44.038  1.00  0.00     0.152 C 
HETATM   21  N5  UNL     1      33.543  11.240  45.295  1.00  0.00    -0.285 NA
HETATM   22  C17 UNL     1      33.299  10.364  46.267  1.00  0.00     0.199 C 
HETATM   23  N6  UNL     1      32.402   9.269  45.875  1.00  0.00    -0.365 N 
HETATM   24  C18 UNL     1      32.827   7.931  46.224  1.00  0.00     0.157 C 
HETATM   25  C19 UNL     1      32.023   6.817  45.766  1.00  0.00     0.151 C 
HETATM   26  O1  UNL     1      32.676   5.916  44.855  1.00  0.00    -0.383 OA
HETATM   27  C20 UNL     1      33.260   5.275  45.952  1.00  0.00     0.181 C 
HETATM   28  C21 UNL     1      32.006   5.667  46.732  1.00  0.00     0.089 C 
HETATM   29  H7  UNL     1      28.079  13.424  49.350  1.00  0.00     0.167 HD
ENDROOT
BRANCH   1  30
HETATM   30  N1  UNL     1      32.783   4.630  48.416  1.00  0.00    -0.402 N 
HETATM   31  H1  UNL     1      33.751   4.263  48.588  1.00  0.00     0.156 HD
HETATM   32  H2  UNL     1      32.376   3.675  48.517  1.00  0.00     0.156 HD
ENDBRANCH   1  30
TORSDOF 1
ENDMDL
MODEL 8
REMARK VINA RESULT:      -6.8      3.708      5.487
REMARK  1 active torsions:
REMARK  status: ('A' for Active; 'I' for Inactive)
REMARK    1  A    between atoms: N1_1  and  C1_2 
ROOT
HETATM    1  C1  UNL     1      32.164   5.797  46.712  1.00  0.00     0.011 C 
HETATM    2  C2  UNL     1      31.128   5.337  47.450  1.00  0.00     0.026 C 
HETATM    3  C3  UNL     1      29.826   5.396  48.105  1.00  0.00     0.021 C 
HETATM    4  C4  UNL     1      28.843   6.254  48.254  1.00  0.00     0.119 C 
HETATM    5  N2  UNL     1      28.131   7.490  48.104  1.00  0.00    -0.243 N 
HETATM    6  N3  UNL     1      27.291   7.839  49.209  1.00  0.00    -0.163 NA
HETATM    7  C5  UNL     1      26.002   8.181  49.197  1.00  0.00     0.230 C 
HETATM    8  N4  UNL     1      25.059   8.306  48.100  1.00  0.00    -0.349 N 
HETATM    9  C6  UNL     1      25.467   8.452  46.715  1.00  0.00     0.047 A 
HETATM   10  C7  UNL     1      24.429   8.521  45.811  1.00  0.00     0.030 A 
HETATM   11  C8  UNL     1      24.759   8.659  44.480  1.00  0.00     0.004 A 
HETATM   12  C9  UNL     1      26.049   8.734  43.973  1.00  0.00     0.020 A 
HETATM   13  C10 UNL     1      27.112   8.664  44.878  1.00  0.00     0.025 A 
HETATM   14 BR1  UNL     1      28.933   8.672  44.289  1.00  0.00    -0.050 Br
HETATM   15  C11 UNL     1      26.806   8.527  46.237  1.00  0.00     0.036 A 
HETATM   16  C12 UNL     1      28.056   8.504  47.068  1.00  0.00     0.070 C 
HETATM   17  C13 UNL     1      28.795   9.544  46.596  1.00  0.00     0.031 C 
HETATM   18  C14 UNL     1      30.143  10.088  47.044  1.00  0.00     0.112 C 
HETATM   19  C15 UNL     1      29.798  11.463  47.611  1.00  0.00     0.051 C 
HETATM   20  C16 UNL     1      30.747  11.816  48.682  1.00  0.00     0.152 C 
HETATM   21  N5  UNL     1      30.539  10.880  49.782  1.00  0.00    -0.285 NA
HETATM   22  C17 UNL     1      30.615   9.600  49.422  1.00  0.00     0.199 C 
HETATM   23  N6  UNL     1      30.889   9.395  47.994  1.00  0.00    -0.365 N 
HETATM   24  C18 UNL     1      31.934   8.448  47.668  1.00  0.00     0.157 C 
HETATM   25  C19 UNL     1      32.306   8.293  46.277  1.00  0.00     0.151 C 
HETATM   26  O1  UNL     1      33.657   8.664  45.952  1.00  0.00    -0.383 OA
HETATM   27  C20 UNL     1      34.077   7.405  46.391  1.00  0.00     0.181 C 
HETATM   28  C21 UNL     1      32.715   6.890  45.930  1.00  0.00     0.089 C 
HETATM   29  H7  UNL     1      24.053   8.296  48.260  1.00  0.00     0.167 HD
ENDROOT
BRANCH   1  30
HETATM   30  N1  UNL     1      33.317   4.929  46.482  1.00  0.00    -0.402 N 
HETATM   31  H1  UNL     1      34.266   4.826  46.918  1.00  0.00     0.156 HD
HETATM   32  H2  UNL     1      33.516   4.160  45.807  1.00  0.00     0.156 HD
ENDBRANCH   1  30
TORSDOF 1
ENDMDL
MODEL 9
REMARK VINA RESULT:      -6.8     10.205     12.729
REMARK  1 active torsions:
REMARK  status: ('A' for Active; 'I' for Inactive)
REMARK    1  A    between atoms: N1_1  and  C1_2 
ROOT
HETATM    1  C1  UNL     1      19.653   3.048  47.514  1.00  0.00     0.011 C 
HETATM    2  C2  UNL     1      20.865   2.602  47.111  1.00  0.00     0.026 C 
HETATM    3  C3  UNL     1      22.298   2.352  47.220  1.00  0.00     0.021 C 
HETATM    4  C4  UNL     1      23.266   2.562  48.080  1.00  0.00     0.119 C 
HETATM    5  N2  UNL     1      23.885   3.017  49.293  1.00  0.00    -0.243 N 
HETATM    6  N3  UNL     1      25.248   3.427  49.156  1.00  0.00    -0.163 NA
HETATM    7  C5  UNL     1      26.307   3.040  49.869  1.00  0.00     0.230 C 
HETATM    8  N4  UNL     1      26.423   2.109  50.976  1.00  0.00    -0.349 N 
HETATM    9  C6  UNL     1      25.292   1.696  51.788  1.00  0.00     0.047 A 
HETATM   10  C7  UNL     1      25.591   0.778  52.772  1.00  0.00     0.030 A 
HETATM   11  C8  UNL     1      24.554   0.351  53.572  1.00  0.00     0.004 A 
HETATM   12  C9  UNL     1      23.234   0.766  53.471  1.00  0.00     0.020 A 
HETATM   13  C10 UNL     1      22.915   1.695  52.477  1.00  0.00     0.025 A 
HETATM   14 BR1  UNL     1      21.116   2.277  52.188  1.00  0.00    -0.050 Br
HETATM   15  C11 UNL     1      23.950   2.150  51.651  1.00  0.00     0.036 A 
HETATM   16  C12 UNL     1      23.444   3.165  50.668  1.00  0.00     0.070 C 
HETATM   17  C13 UNL     1      22.692   4.016  51.417  1.00  0.00     0.031 C 
HETATM   18  C14 UNL     1      21.944   5.283  51.031  1.00  0.00     0.112 C 
HETATM   19  C15 UNL     1      22.710   6.382  51.763  1.00  0.00     0.051 C 
HETATM   20  C16 UNL     1      22.629   7.642  51.001  1.00  0.00     0.152 C 
HETATM   21  N5  UNL     1      23.341   7.444  49.743  1.00  0.00    -0.285 NA
HETATM   22  C17 UNL     1      22.923   6.389  49.047  1.00  0.00     0.199 C 
HETATM   23  N6  UNL     1      21.834   5.641  49.689  1.00  0.00    -0.365 N 
HETATM   24  C18 UNL     1      20.702   5.307  48.853  1.00  0.00     0.157 C 
HETATM   25  C19 UNL     1      19.563   4.662  49.471  1.00  0.00     0.151 C 
HETATM   26  O1  UNL     1      18.335   5.409  49.441  1.00  0.00    -0.383 OA
HETATM   27  C20 UNL     1      18.118   4.946  48.140  1.00  0.00     0.181 C 
HETATM   28  C21 UNL     1      18.873   3.686  48.561  1.00  0.00     0.089 C 
HETATM   29  H7  UNL     1      27.319   1.698  51.235  1.00  0.00     0.167 HD
ENDROOT
BRANCH   1  30
HETATM   30  N1  UNL     1      18.499   2.872  46.634  1.00  0.00    -0.402 N 
HETATM   31  H1  UNL     1      17.803   3.517  46.187  1.00  0.00     0.156 HD
HETATM   32  H2  UNL     1      18.044   2.040  46.202  1.00  0.00     0.156 HD
ENDBRANCH   1  30
TORSDOF 1
ENDMDL
