MODEL 1
REMARK VINA RESULT:      -8.6      0.000      0.000
REMARK  2 active torsions:
REMARK  status: ('A' for Active; 'I' for Inactive)
REMARK    1  A    between atoms: O1_2  and  C2_3 
REMARK    2  A    between atoms: C9_12  and  O2_13 
ROOT
HETATM    1  C2  UNL     1      22.358   0.304  52.364  1.00  0.00     0.104 A 
HETATM    2  C3  UNL     1      22.984  -0.427  53.339  1.00  0.00     0.072 A 
HETATM    3  C4  UNL     1      24.196   0.051  53.793  1.00  0.00     0.075 A 
HETATM    4  N1  UNL     1      24.755  -0.739  54.755  1.00  0.00    -0.241 NA
HETATM    5  C5  UNL     1      25.933  -0.437  55.305  1.00  0.00     0.236 A 
HETATM    6  N2  UNL     1      26.513   0.677  54.849  1.00  0.00    -0.224 NA
HETATM    7  C6  UNL     1      25.978   1.462  53.907  1.00  0.00     0.140 A 
HETATM    8  C7  UNL     1      24.773   1.203  53.308  1.00  0.00     0.049 A 
HETATM    9  C8  UNL     1      24.146   1.940  52.332  1.00  0.00     0.008 A 
HETATM   10  C9  UNL     1      22.935   1.458  51.881  1.00  0.00     0.110 A 
HETATM   11  C11 UNL     1      24.653   3.194  51.785  1.00  0.00     0.099 A 
HETATM   12  C12 UNL     1      23.778   3.872  50.816  1.00  0.00    -0.011 A 
HETATM   13  C13 UNL     1      24.238   4.324  49.633  1.00  0.00    -0.003 A 
HETATM   14  C14 UNL     1      25.618   4.212  49.171  1.00  0.00     0.002 A 
HETATM   15  C15 UNL     1      26.540   3.631  49.937  1.00  0.00     0.030 A 
HETATM   16  C16 UNL     1      25.999   3.170  51.208  1.00  0.00     0.068 A 
HETATM   17  N3  UNL     1      26.591   2.630  52.145  1.00  0.00    -0.157 NA
HETATM   18  N4  UNL     1      27.929   2.332  52.191  1.00  0.00    -0.162 NA
HETATM   19  C17 UNL     1      28.400   2.173  53.408  1.00  0.00     0.276 C 
HETATM   20  N5  UNL     1      27.023   2.460  53.800  1.00  0.00    -0.346 N 
HETATM   21  H15 UNL     1      26.439   3.273  54.086  1.00  0.00     0.163 HD
ENDROOT
BRANCH   1  22
HETATM   22  O1  UNL     1      21.137  -0.206  51.929  1.00  0.00    -0.353 OA
HETATM   23  C1  UNL     1      19.976  -0.096  52.694  1.00  0.00     0.210 C 
ENDBRANCH   1  22
BRANCH  10  24
HETATM   24  O2  UNL     1      22.118   2.012  50.906  1.00  0.00    -0.352 OA
HETATM   25  C10 UNL     1      22.037   1.349  49.633  1.00  0.00     0.210 C 
ENDBRANCH  10  24
TORSDOF 2
ENDMDL
MODEL 2
REMARK VINA RESULT:      -8.4      1.733      4.617
REMARK  2 active torsions:
REMARK  status: ('A' for Active; 'I' for Inactive)
REMARK    1  A    between atoms: O1_2  and  C2_3 
REMARK    2  A    between atoms: C9_12  and  O2_13 
ROOT
HETATM    1  C2  UNL     1      22.134   3.063  52.050  1.00  0.00     0.104 A 
HETATM    2  C3  UNL     1      23.230   3.653  51.478  1.00  0.00     0.072 A 
HETATM    3  C4  UNL     1      24.390   2.908  51.443  1.00  0.00     0.075 A 
HETATM    4  N1  UNL     1      25.433   3.572  50.865  1.00  0.00    -0.241 NA
HETATM    5  C5  UNL     1      26.638   3.009  50.752  1.00  0.00     0.236 A 
HETATM    6  N2  UNL     1      26.743   1.770  51.240  1.00  0.00    -0.224 NA
HETATM    7  C6  UNL     1      25.731   1.106  51.810  1.00  0.00     0.140 A 
HETATM    8  C7  UNL     1      24.473   1.632  51.952  1.00  0.00     0.049 A 
HETATM    9  C8  UNL     1      23.376   1.036  52.525  1.00  0.00     0.008 A 
HETATM   10  C9  UNL     1      22.217   1.784  52.558  1.00  0.00     0.110 A 
HETATM   11  C11 UNL     1      23.350  -0.324  53.053  1.00  0.00     0.099 A 
HETATM   12  C12 UNL     1      22.045  -0.801  53.536  1.00  0.00    -0.011 A 
HETATM   13  C13 UNL     1      21.902  -1.397  54.736  1.00  0.00    -0.003 A 
HETATM   14  C14 UNL     1      22.984  -1.646  55.682  1.00  0.00     0.002 A 
HETATM   15  C15 UNL     1      24.232  -1.283  55.392  1.00  0.00     0.030 A 
HETATM   16  C16 UNL     1      24.338  -0.655  54.082  1.00  0.00     0.068 A 
HETATM   17  N3  UNL     1      25.348  -0.242  53.506  1.00  0.00    -0.157 NA
HETATM   18  N4  UNL     1      26.629  -0.283  53.994  1.00  0.00    -0.162 NA
HETATM   19  C17 UNL     1      27.557  -0.200  53.068  1.00  0.00     0.276 C 
HETATM   20  N5  UNL     1      26.413  -0.122  52.163  1.00  0.00    -0.346 N 
HETATM   21  H15 UNL     1      25.827  -0.755  51.579  1.00  0.00     0.163 HD
ENDROOT
BRANCH   1  22
HETATM   22  O1  UNL     1      20.979   3.842  52.069  1.00  0.00    -0.353 OA
HETATM   23  C1  UNL     1      20.570   4.581  50.960  1.00  0.00     0.210 C 
ENDBRANCH   1  22
BRANCH  10  24
HETATM   24  O2  UNL     1      20.988   1.414  53.083  1.00  0.00    -0.352 OA
HETATM   25  C10 UNL     1      19.940   1.057  52.167  1.00  0.00     0.210 C 
ENDBRANCH  10  24
TORSDOF 2
ENDMDL
MODEL 3
REMARK VINA RESULT:      -8.2      2.567      5.328
REMARK  2 active torsions:
REMARK  status: ('A' for Active; 'I' for Inactive)
REMARK    1  A    between atoms: O1_2  and  C2_3 
REMARK    2  A    between atoms: C9_12  and  O2_13 
ROOT
HETATM    1  C2  UNL     1      25.960  -0.270  52.918  1.00  0.00     0.104 A 
HETATM    2  C3  UNL     1      26.702   0.584  52.146  1.00  0.00     0.072 A 
HETATM    3  C4  UNL     1      26.045   1.680  51.625  1.00  0.00     0.075 A 
HETATM    4  N1  UNL     1      26.853   2.474  50.862  1.00  0.00    -0.241 NA
HETATM    5  C5  UNL     1      26.386   3.576  50.271  1.00  0.00     0.236 A 
HETATM    6  N2  UNL     1      25.093   3.836  50.477  1.00  0.00    -0.224 NA
HETATM    7  C6  UNL     1      24.288   3.069  51.221  1.00  0.00     0.140 A 
HETATM    8  C7  UNL     1      24.711   1.929  51.853  1.00  0.00     0.049 A 
HETATM    9  C8  UNL     1      23.964   1.075  52.628  1.00  0.00     0.008 A 
HETATM   10  C9  UNL     1      24.624  -0.020  53.147  1.00  0.00     0.110 A 
HETATM   11  C11 UNL     1      22.558   1.272  52.964  1.00  0.00     0.099 A 
HETATM   12  C12 UNL     1      21.974   0.289  53.888  1.00  0.00    -0.011 A 
HETATM   13  C13 UNL     1      20.799  -0.320  53.635  1.00  0.00    -0.003 A 
HETATM   14  C14 UNL     1      19.973  -0.090  52.454  1.00  0.00     0.002 A 
HETATM   15  C15 UNL     1      20.357   0.781  51.522  1.00  0.00     0.030 A 
HETATM   16  C16 UNL     1      21.624   1.420  51.845  1.00  0.00     0.068 A 
HETATM   17  N3  UNL     1      22.230   2.291  51.215  1.00  0.00    -0.157 NA
HETATM   18  N4  UNL     1      21.828   2.858  50.032  1.00  0.00    -0.162 NA
HETATM   19  C17 UNL     1      22.379   4.025  49.785  1.00  0.00     0.276 C 
HETATM   20  N5  UNL     1      23.045   3.796  51.064  1.00  0.00    -0.346 N 
HETATM   21  H15 UNL     1      22.913   4.023  52.072  1.00  0.00     0.163 HD
ENDROOT
BRANCH   1  22
HETATM   22  O1  UNL     1      26.653  -1.366  53.428  1.00  0.00    -0.353 OA
HETATM   23  C1  UNL     1      27.211  -2.337  52.598  1.00  0.00     0.210 C 
ENDBRANCH   1  22
BRANCH  10  24
HETATM   24  O2  UNL     1      24.097  -1.022  53.948  1.00  0.00    -0.352 OA
HETATM   25  C10 UNL     1      24.518  -1.084  55.321  1.00  0.00     0.210 C 
ENDBRANCH  10  24
TORSDOF 2
ENDMDL
MODEL 4
REMARK VINA RESULT:      -8.2      2.739      4.598
REMARK  2 active torsions:
REMARK  status: ('A' for Active; 'I' for Inactive)
REMARK    1  A    between atoms: O1_2  and  C2_3 
REMARK    2  A    between atoms: C9_12  and  O2_13 
ROOT
HETATM    1  C2  UNL     1      27.165   0.207  54.199  1.00  0.00     0.104 A 
HETATM    2  C3  UNL     1      26.225  -0.486  54.915  1.00  0.00     0.072 A 
HETATM    3  C4  UNL     1      24.928  -0.441  54.446  1.00  0.00     0.075 A 
HETATM    4  N1  UNL     1      24.055  -1.150  55.220  1.00  0.00    -0.241 NA
HETATM    5  C5  UNL     1      22.756  -1.212  54.923  1.00  0.00     0.236 A 
HETATM    6  N2  UNL     1      22.381  -0.538  53.832  1.00  0.00    -0.224 NA
HETATM    7  C6  UNL     1      23.224   0.162  53.064  1.00  0.00     0.140 A 
HETATM    8  C7  UNL     1      24.567   0.260  53.317  1.00  0.00     0.049 A 
HETATM    9  C8  UNL     1      25.508   0.955  52.596  1.00  0.00     0.008 A 
HETATM   10  C9  UNL     1      26.803   0.908  53.069  1.00  0.00     0.110 A 
HETATM   11  C11 UNL     1      25.234   1.691  51.366  1.00  0.00     0.099 A 
HETATM   12  C12 UNL     1      26.402   2.285  50.700  1.00  0.00    -0.011 A 
HETATM   13  C13 UNL     1      26.414   3.568  50.288  1.00  0.00    -0.003 A 
HETATM   14  C14 UNL     1      25.307   4.506  50.436  1.00  0.00     0.002 A 
HETATM   15  C15 UNL     1      24.169   4.122  51.012  1.00  0.00     0.030 A 
HETATM   16  C16 UNL     1      24.201   2.727  51.430  1.00  0.00     0.068 A 
HETATM   17  N3  UNL     1      23.305   2.061  51.955  1.00  0.00    -0.157 NA
HETATM   18  N4  UNL     1      22.048   2.507  52.274  1.00  0.00    -0.162 NA
HETATM   19  C17 UNL     1      21.158   1.549  52.408  1.00  0.00     0.276 C 
HETATM   20  N5  UNL     1      22.288   0.681  52.087  1.00  0.00    -0.346 N 
HETATM   21  H15 UNL     1      22.719   0.224  51.256  1.00  0.00     0.163 HD
ENDROOT
BRANCH   1  22
HETATM   22  O1  UNL     1      28.463   0.140  54.700  1.00  0.00    -0.353 OA
HETATM   23  C1  UNL     1      29.404  -0.756  54.194  1.00  0.00     0.210 C 
ENDBRANCH   1  22
BRANCH  10  24
HETATM   24  O2  UNL     1      27.921   1.524  52.528  1.00  0.00    -0.352 OA
HETATM   25  C10 UNL     1      28.530   2.594  53.270  1.00  0.00     0.210 C 
ENDBRANCH  10  24
TORSDOF 2
ENDMDL
MODEL 5
REMARK VINA RESULT:      -7.9      2.519      4.765
REMARK  2 active torsions:
REMARK  status: ('A' for Active; 'I' for Inactive)
REMARK    1  A    between atoms: O1_2  and  C2_3 
REMARK    2  A    between atoms: C9_12  and  O2_13 
ROOT
HETATM    1  C2  UNL     1      21.302   1.652  49.348  1.00  0.00     0.104 A 
HETATM    2  C3  UNL     1      20.167   1.048  49.820  1.00  0.00     0.072 A 
HETATM    3  C4  UNL     1      20.201   0.589  51.120  1.00  0.00     0.075 A 
HETATM    4  N1  UNL     1      19.035  -0.007  51.507  1.00  0.00    -0.241 NA
HETATM    5  C5  UNL     1      18.888  -0.517  52.731  1.00  0.00     0.236 A 
HETATM    6  N2  UNL     1      19.951  -0.405  53.534  1.00  0.00    -0.224 NA
HETATM    7  C6  UNL     1      21.100   0.175  53.170  1.00  0.00     0.140 A 
HETATM    8  C7  UNL     1      21.308   0.718  51.929  1.00  0.00     0.049 A 
HETATM    9  C8  UNL     1      22.448   1.325  51.460  1.00  0.00     0.008 A 
HETATM   10  C9  UNL     1      22.410   1.782  50.159  1.00  0.00     0.110 A 
HETATM   11  C11 UNL     1      23.654   1.548  52.249  1.00  0.00     0.099 A 
HETATM   12  C12 UNL     1      24.726   2.304  51.584  1.00  0.00    -0.011 A 
HETATM   13  C13 UNL     1      26.005   1.879  51.583  1.00  0.00    -0.003 A 
HETATM   14  C14 UNL     1      26.484   0.659  52.222  1.00  0.00     0.002 A 
HETATM   15  C15 UNL     1      25.639  -0.136  52.877  1.00  0.00     0.030 A 
HETATM   16  C16 UNL     1      24.273   0.370  52.861  1.00  0.00     0.068 A 
HETATM   17  N3  UNL     1      23.270  -0.105  53.400  1.00  0.00    -0.157 NA
HETATM   18  N4  UNL     1      23.224  -1.252  54.150  1.00  0.00    -0.162 NA
HETATM   19  C17 UNL     1      22.189  -1.321  54.957  1.00  0.00     0.276 C 
HETATM   20  N5  UNL     1      21.865  -0.018  54.385  1.00  0.00    -0.346 N 
HETATM   21  H15 UNL     1      22.013   0.992  54.592  1.00  0.00     0.163 HD
ENDROOT
BRANCH   1  22
HETATM   22  O1  UNL     1      21.234   2.104  48.032  1.00  0.00    -0.353 OA
HETATM   23  C1  UNL     1      20.163   2.867  47.569  1.00  0.00     0.210 C 
ENDBRANCH   1  22
BRANCH  10  24
HETATM   24  O2  UNL     1      23.423   2.419  49.458  1.00  0.00    -0.352 OA
HETATM   25  C10 UNL     1      23.329   3.841  49.275  1.00  0.00     0.210 C 
ENDBRANCH  10  24
TORSDOF 2
ENDMDL
MODEL 6
REMARK VINA RESULT:      -7.8      1.775      4.886
REMARK  2 active torsions:
REMARK  status: ('A' for Active; 'I' for Inactive)
REMARK    1  A    between atoms: O1_2  and  C2_3 
REMARK    2  A    between atoms: C9_12  and  O2_13 
ROOT
HETATM    1  C2  UNL     1      24.408   3.123  50.676  1.00  0.00     0.104 A 
HETATM    2  C3  UNL     1      25.353   2.855  51.632  1.00  0.00     0.072 A 
HETATM    3  C4  UNL     1      25.120   1.769  52.449  1.00  0.00     0.075 A 
HETATM    4  N1  UNL     1      26.103   1.578  53.377  1.00  0.00    -0.241 NA
HETATM    5  C5  UNL     1      26.042   0.579  54.259  1.00  0.00     0.236 A 
HETATM    6  N2  UNL     1      24.965  -0.206  54.167  1.00  0.00    -0.224 NA
HETATM    7  C6  UNL     1      23.993  -0.032  53.264  1.00  0.00     0.140 A 
HETATM    8  C7  UNL     1      24.002   0.974  52.334  1.00  0.00     0.049 A 
HETATM    9  C8  UNL     1      23.054   1.238  51.376  1.00  0.00     0.008 A 
HETATM   10  C9  UNL     1      23.290   2.325  50.561  1.00  0.00     0.110 A 
HETATM   11  C11 UNL     1      21.859   0.432  51.145  1.00  0.00     0.099 A 
HETATM   12  C12 UNL     1      21.023   0.834  50.004  1.00  0.00    -0.011 A 
HETATM   13  C13 UNL     1      19.689   0.985  50.114  1.00  0.00    -0.003 A 
HETATM   14  C14 UNL     1      18.919   0.772  51.334  1.00  0.00     0.002 A 
HETATM   15  C15 UNL     1      19.526   0.394  52.458  1.00  0.00     0.030 A 
HETATM   16  C16 UNL     1      20.963   0.234  52.287  1.00  0.00     0.068 A 
HETATM   17  N3  UNL     1      21.800  -0.138  53.114  1.00  0.00    -0.157 NA
HETATM   18  N4  UNL     1      21.548  -0.485  54.417  1.00  0.00    -0.162 NA
HETATM   19  C17 UNL     1      22.478  -1.240  54.958  1.00  0.00     0.276 C 
HETATM   20  N5  UNL     1      23.109  -1.115  53.647  1.00  0.00    -0.346 N 
HETATM   21  H15 UNL     1      23.156  -1.630  52.744  1.00  0.00     0.163 HD
ENDROOT
BRANCH   1  22
HETATM   22  O1  UNL     1      24.674   4.226  49.868  1.00  0.00    -0.353 OA
HETATM   23  C1  UNL     1      25.972   4.688  49.653  1.00  0.00     0.210 C 
ENDBRANCH   1  22
BRANCH  10  24
HETATM   24  O2  UNL     1      22.489   2.798  49.532  1.00  0.00    -0.352 OA
HETATM   25  C10 UNL     1      21.755   4.015  49.749  1.00  0.00     0.210 C 
ENDBRANCH  10  24
TORSDOF 2
ENDMDL
MODEL 7
REMARK VINA RESULT:      -7.8      2.868      4.469
REMARK  2 active torsions:
REMARK  status: ('A' for Active; 'I' for Inactive)
REMARK    1  A    between atoms: O1_2  and  C2_3 
REMARK    2  A    between atoms: C9_12  and  O2_13 
ROOT
HETATM    1  C2  UNL     1      25.362   0.425  53.018  1.00  0.00     0.104 A 
HETATM    2  C3  UNL     1      24.165   0.097  53.599  1.00  0.00     0.072 A 
HETATM    3  C4  UNL     1      23.040   0.719  53.099  1.00  0.00     0.075 A 
HETATM    4  N1  UNL     1      21.894   0.343  53.738  1.00  0.00    -0.241 NA
HETATM    5  C5  UNL     1      20.708   0.850  53.393  1.00  0.00     0.236 A 
HETATM    6  N2  UNL     1      20.729   1.738  52.395  1.00  0.00    -0.224 NA
HETATM    7  C6  UNL     1      21.843   2.117  51.760  1.00  0.00     0.140 A 
HETATM    8  C7  UNL     1      23.087   1.631  52.068  1.00  0.00     0.049 A 
HETATM    9  C8  UNL     1      24.285   1.961  51.482  1.00  0.00     0.008 A 
HETATM   10  C9  UNL     1      25.408   1.336  51.985  1.00  0.00     0.110 A 
HETATM   11  C11 UNL     1      24.435   2.880  50.359  1.00  0.00     0.099 A 
HETATM   12  C12 UNL     1      25.796   3.019  49.820  1.00  0.00    -0.011 A 
HETATM   13  C13 UNL     1      26.354   4.224  49.592  1.00  0.00    -0.003 A 
HETATM   14  C14 UNL     1      25.705   5.508  49.834  1.00  0.00     0.002 A 
HETATM   15  C15 UNL     1      24.463   5.556  50.313  1.00  0.00     0.030 A 
HETATM   16  C16 UNL     1      23.899   4.232  50.533  1.00  0.00     0.068 A 
HETATM   17  N3  UNL     1      22.771   3.932  50.930  1.00  0.00    -0.157 NA
HETATM   18  N4  UNL     1      21.773   4.812  51.268  1.00  0.00    -0.162 NA
HETATM   19  C17 UNL     1      20.568   4.290  51.238  1.00  0.00     0.276 C 
HETATM   20  N5  UNL     1      21.281   3.081  50.836  1.00  0.00    -0.346 N 
HETATM   21  H15 UNL     1      21.563   2.586  49.964  1.00  0.00     0.163 HD
ENDROOT
BRANCH   1  22
HETATM   22  O1  UNL     1      26.477  -0.221  53.546  1.00  0.00    -0.353 OA
HETATM   23  C1  UNL     1      26.862  -0.060  54.876  1.00  0.00     0.210 C 
ENDBRANCH   1  22
BRANCH  10  24
HETATM   24  O2  UNL     1      26.721   1.502  51.572  1.00  0.00    -0.352 OA
HETATM   25  C10 UNL     1      27.600   2.278  52.404  1.00  0.00     0.210 C 
ENDBRANCH  10  24
TORSDOF 2
ENDMDL
MODEL 8
REMARK VINA RESULT:      -7.7      2.588      5.160
REMARK  2 active torsions:
REMARK  status: ('A' for Active; 'I' for Inactive)
REMARK    1  A    between atoms: O1_2  and  C2_3 
REMARK    2  A    between atoms: C9_12  and  O2_13 
ROOT
HETATM    1  C2  UNL     1      23.623   4.035  50.418  1.00  0.00     0.104 A 
HETATM    2  C3  UNL     1      22.262   3.884  50.454  1.00  0.00     0.072 A 
HETATM    3  C4  UNL     1      21.762   2.960  51.348  1.00  0.00     0.075 A 
HETATM    4  N1  UNL     1      20.401   2.866  51.313  1.00  0.00    -0.241 NA
HETATM    5  C5  UNL     1      19.742   2.017  52.105  1.00  0.00     0.236 A 
HETATM    6  N2  UNL     1      20.503   1.278  52.917  1.00  0.00    -0.224 NA
HETATM    7  C6  UNL     1      21.838   1.359  52.963  1.00  0.00     0.140 A 
HETATM    8  C7  UNL     1      22.567   2.212  52.177  1.00  0.00     0.049 A 
HETATM    9  C8  UNL     1      23.933   2.362  52.145  1.00  0.00     0.008 A 
HETATM   10  C9  UNL     1      24.429   3.286  51.249  1.00  0.00     0.110 A 
HETATM   11  C11 UNL     1      24.867   1.650  53.011  1.00  0.00     0.099 A 
HETATM   12  C12 UNL     1      26.281   2.031  52.880  1.00  0.00    -0.011 A 
HETATM   13  C13 UNL     1      27.258   1.113  52.743  1.00  0.00    -0.003 A 
HETATM   14  C14 UNL     1      27.054  -0.331  52.712  1.00  0.00     0.002 A 
HETATM   15  C15 UNL     1      25.828  -0.842  52.828  1.00  0.00     0.030 A 
HETATM   16  C16 UNL     1      24.810   0.187  52.985  1.00  0.00     0.068 A 
HETATM   17  N3  UNL     1      23.596   0.048  53.152  1.00  0.00    -0.157 NA
HETATM   18  N4  UNL     1      22.921  -1.145  53.222  1.00  0.00    -0.162 NA
HETATM   19  C17 UNL     1      21.755  -1.066  53.822  1.00  0.00     0.276 C 
HETATM   20  N5  UNL     1      22.109   0.344  53.962  1.00  0.00    -0.346 N 
HETATM   21  H15 UNL     1      22.557   0.979  54.655  1.00  0.00     0.163 HD
ENDROOT
BRANCH   1  22
HETATM   22  O1  UNL     1      24.094   4.975  49.504  1.00  0.00    -0.353 OA
HETATM   23  C1  UNL     1      23.415   5.259  48.321  1.00  0.00     0.210 C 
ENDBRANCH   1  22
BRANCH  10  24
HETATM   24  O2  UNL     1      25.757   3.615  51.025  1.00  0.00    -0.352 OA
HETATM   25  C10 UNL     1      26.372   3.159  49.808  1.00  0.00     0.210 C 
ENDBRANCH  10  24
TORSDOF 2
ENDMDL
MODEL 9
REMARK VINA RESULT:      -7.6      1.530      2.176
REMARK  2 active torsions:
REMARK  status: ('A' for Active; 'I' for Inactive)
REMARK    1  A    between atoms: O1_2  and  C2_3 
REMARK    2  A    between atoms: C9_12  and  O2_13 
ROOT
HETATM    1  C2  UNL     1      21.229   1.329  50.240  1.00  0.00     0.104 A 
HETATM    2  C3  UNL     1      21.194   0.304  51.148  1.00  0.00     0.072 A 
HETATM    3  C4  UNL     1      22.223   0.249  52.065  1.00  0.00     0.075 A 
HETATM    4  N1  UNL     1      22.117  -0.805  52.926  1.00  0.00    -0.241 NA
HETATM    5  C5  UNL     1      23.029  -1.020  53.876  1.00  0.00     0.236 A 
HETATM    6  N2  UNL     1      24.035  -0.143  53.919  1.00  0.00    -0.224 NA
HETATM    7  C6  UNL     1      24.154   0.895  53.082  1.00  0.00     0.140 A 
HETATM    8  C7  UNL     1      23.249   1.167  52.090  1.00  0.00     0.049 A 
HETATM    9  C8  UNL     1      23.286   2.198  51.182  1.00  0.00     0.008 A 
HETATM   10  C9  UNL     1      22.256   2.248  50.266  1.00  0.00     0.110 A 
HETATM   11  C11 UNL     1      24.304   3.243  51.153  1.00  0.00     0.099 A 
HETATM   12  C12 UNL     1      24.104   4.308  50.158  1.00  0.00    -0.011 A 
HETATM   13  C13 UNL     1      25.090   4.709  49.333  1.00  0.00    -0.003 A 
HETATM   14  C14 UNL     1      26.443   4.165  49.317  1.00  0.00     0.002 A 
HETATM   15  C15 UNL     1      26.792   3.199  50.165  1.00  0.00     0.030 A 
HETATM   16  C16 UNL     1      25.698   2.807  51.042  1.00  0.00     0.068 A 
HETATM   17  N3  UNL     1      25.703   1.975  51.953  1.00  0.00    -0.157 NA
HETATM   18  N4  UNL     1      26.773   1.211  52.344  1.00  0.00    -0.162 NA
HETATM   19  C17 UNL     1      26.676   0.740  53.566  1.00  0.00     0.276 C 
HETATM   20  N5  UNL     1      25.402   1.453  53.563  1.00  0.00    -0.346 N 
HETATM   21  H15 UNL     1      25.017   2.379  53.843  1.00  0.00     0.163 HD
ENDROOT
BRANCH   1  22
HETATM   22  O1  UNL     1      20.175   1.354  49.329  1.00  0.00    -0.353 OA
HETATM   23  C1  UNL     1      18.877   1.687  49.712  1.00  0.00     0.210 C 
ENDBRANCH   1  22
BRANCH  10  24
HETATM   24  O2  UNL     1      22.071   3.178  49.254  1.00  0.00    -0.352 OA
HETATM   25  C10 UNL     1      22.294   2.756  47.898  1.00  0.00     0.210 C 
ENDBRANCH  10  24
TORSDOF 2
ENDMDL
