MODEL 1
REMARK VINA RESULT:      -8.2      0.000      0.000
REMARK  4 active torsions:
REMARK  status: ('A' for Active; 'I' for Inactive)
REMARK    1  A    between atoms: C2_2  and  C3_3 
REMARK    2  A    between atoms: C9_9  and  N1_10 
REMARK    3  A    between atoms: N1_10  and  N2_11 
REMARK    4  A    between atoms: N2_11  and  C10_12 
ROOT
HETATM    1  C3  UNL     1      24.369  -0.025  53.337  1.00  0.00    -0.058 A 
HETATM    2  C4  UNL     1      25.127  -0.561  54.380  1.00  0.00     0.008 A 
HETATM    3  C5  UNL     1      26.421  -0.163  54.636  1.00  0.00     0.012 A 
HETATM    4  C6  UNL     1      26.966   0.796  53.824  1.00  0.00    -0.006 A 
HETATM    5  C7  UNL     1      26.227   1.343  52.779  1.00  0.00     0.021 A 
HETATM    6  C8  UNL     1      24.929   0.953  52.513  1.00  0.00     0.023 A 
HETATM    7  C9  UNL     1      27.047   2.331  52.085  1.00  0.00     0.149 A 
HETATM    8  N3  UNL     1      28.188   2.364  52.678  1.00  0.00    -0.246 NA
HETATM    9  C16 UNL     1      28.275   1.456  53.783  1.00  0.00     0.250 A 
HETATM   10  C17 UNL     1      29.364   0.504  53.673  1.00  0.00     0.091 C 
HETATM   11  N4  UNL     1      30.245  -0.245  53.597  1.00  0.00    -0.195 NA
ENDROOT
BRANCH   7  12
HETATM   12  N1  UNL     1      26.768   3.170  50.953  1.00  0.00    -0.283 N 
HETATM   13  H9  UNL     1      27.371   3.032  50.113  1.00  0.00     0.188 HD
BRANCH  12  14
HETATM   14  N2  UNL     1      25.713   4.116  51.033  1.00  0.00    -0.299 N 
HETATM   15  H10 UNL     1      26.151   5.065  51.158  1.00  0.00     0.187 HD
BRANCH  14  16
HETATM   16  C10 UNL     1      24.319   3.847  50.959  1.00  0.00     0.049 A 
HETATM   17  C11 UNL     1      23.379   4.321  51.846  1.00  0.00     0.031 A 
HETATM   18  C12 UNL     1      22.026   4.100  51.827  1.00  0.00     0.004 A 
HETATM   19  C13 UNL     1      21.553   3.310  50.798  1.00  0.00     0.019 A 
HETATM   20  C14 UNL     1      22.441   2.788  49.853  1.00  0.00     0.013 A 
HETATM   21 BR1  UNL     1      21.636   1.726  48.504  1.00  0.00    -0.051 Br
HETATM   22  C15 UNL     1      23.790   3.061  49.947  1.00  0.00     0.050 A 
ENDBRANCH  14  16
ENDBRANCH  12  14
ENDBRANCH   7  12
BRANCH   1  23
HETATM   23  C2  UNL     1      22.993  -0.481  53.097  1.00  0.00     0.034 C 
HETATM   24  C1  UNL     1      22.027   0.647  53.397  1.00  0.00     0.010 C 
ENDBRANCH   1  23
TORSDOF 4
ENDMDL
MODEL 2
REMARK VINA RESULT:      -8.1      2.466      5.732
REMARK  4 active torsions:
REMARK  status: ('A' for Active; 'I' for Inactive)
REMARK    1  A    between atoms: C2_2  and  C3_3 
REMARK    2  A    between atoms: C9_9  and  N1_10 
REMARK    3  A    between atoms: N1_10  and  N2_11 
REMARK    4  A    between atoms: N2_11  and  C10_12 
ROOT
HETATM    1  C3  UNL     1      22.393   0.441  52.633  1.00  0.00    -0.058 A 
HETATM    2  C4  UNL     1      21.497   0.175  51.596  1.00  0.00     0.008 A 
HETATM    3  C5  UNL     1      21.549   0.831  50.386  1.00  0.00     0.012 A 
HETATM    4  C6  UNL     1      22.525   1.777  50.214  1.00  0.00    -0.006 A 
HETATM    5  C7  UNL     1      23.428   2.056  51.236  1.00  0.00     0.021 A 
HETATM    6  C8  UNL     1      23.386   1.405  52.453  1.00  0.00     0.023 A 
HETATM    7  C9  UNL     1      24.347   3.095  50.784  1.00  0.00     0.149 A 
HETATM    8  N3  UNL     1      24.011   3.407  49.582  1.00  0.00    -0.246 NA
HETATM    9  C16 UNL     1      22.888   2.659  49.100  1.00  0.00     0.250 A 
HETATM   10  C17 UNL     1      21.775   3.485  48.673  1.00  0.00     0.091 C 
HETATM   11  N4  UNL     1      20.892   4.144  48.312  1.00  0.00    -0.195 NA
ENDROOT
BRANCH   7  12
HETATM   12  N1  UNL     1      25.451   3.738  51.442  1.00  0.00    -0.283 N 
HETATM   13  H9  UNL     1      25.236   4.620  51.955  1.00  0.00     0.188 HD
BRANCH  12  14
HETATM   14  N2  UNL     1      26.742   3.152  51.364  1.00  0.00    -0.299 N 
HETATM   15  H10 UNL     1      27.261   3.641  50.589  1.00  0.00     0.187 HD
BRANCH  14  16
HETATM   16  C10 UNL     1      27.253   2.104  52.176  1.00  0.00     0.049 A 
HETATM   17  C11 UNL     1      28.137   2.277  53.217  1.00  0.00     0.031 A 
HETATM   18  C12 UNL     1      28.663   1.310  54.036  1.00  0.00     0.004 A 
HETATM   19  C13 UNL     1      28.257   0.015  53.785  1.00  0.00     0.019 A 
HETATM   20  C14 UNL     1      27.360  -0.249  52.746  1.00  0.00     0.013 A 
HETATM   21 BR1  UNL     1      26.901  -2.076  52.533  1.00  0.00    -0.051 Br
HETATM   22  C15 UNL     1      26.880   0.785  51.969  1.00  0.00     0.050 A 
ENDBRANCH  14  16
ENDBRANCH  12  14
ENDBRANCH   7  12
BRANCH   1  23
HETATM   23  C2  UNL     1      22.299  -0.281  53.910  1.00  0.00     0.034 C 
HETATM   24  C1  UNL     1      20.988   0.061  54.588  1.00  0.00     0.010 C 
ENDBRANCH   1  23
TORSDOF 4
ENDMDL
MODEL 3
REMARK VINA RESULT:      -8.0      2.990      4.699
REMARK  4 active torsions:
REMARK  status: ('A' for Active; 'I' for Inactive)
REMARK    1  A    between atoms: C2_2  and  C3_3 
REMARK    2  A    between atoms: C9_9  and  N1_10 
REMARK    3  A    between atoms: N1_10  and  N2_11 
REMARK    4  A    between atoms: N2_11  and  C10_12 
ROOT
HETATM    1  C3  UNL     1      27.537   0.687  53.399  1.00  0.00    -0.058 A 
HETATM    2  C4  UNL     1      27.145  -0.649  53.503  1.00  0.00     0.008 A 
HETATM    3  C5  UNL     1      25.827  -1.042  53.434  1.00  0.00     0.012 A 
HETATM    4  C6  UNL     1      24.880  -0.068  53.254  1.00  0.00    -0.006 A 
HETATM    5  C7  UNL     1      25.251   1.269  53.147  1.00  0.00     0.021 A 
HETATM    6  C8  UNL     1      26.569   1.675  53.215  1.00  0.00     0.023 A 
HETATM    7  C9  UNL     1      24.051   2.080  52.964  1.00  0.00     0.149 A 
HETATM    8  N3  UNL     1      23.045   1.279  52.964  1.00  0.00    -0.246 NA
HETATM    9  C16 UNL     1      23.418  -0.094  53.135  1.00  0.00     0.250 A 
HETATM   10  C17 UNL     1      22.789  -0.734  54.275  1.00  0.00     0.091 C 
HETATM   11  N4  UNL     1      22.271  -1.253  55.173  1.00  0.00    -0.195 NA
ENDROOT
BRANCH   7  12
HETATM   12  N1  UNL     1      23.879   3.497  52.806  1.00  0.00    -0.283 N 
HETATM   13  H9  UNL     1      23.842   4.061  53.683  1.00  0.00     0.188 HD
BRANCH  12  14
HETATM   14  N2  UNL     1      23.772   4.042  51.499  1.00  0.00    -0.299 N 
HETATM   15  H10 UNL     1      22.747   4.167  51.295  1.00  0.00     0.187 HD
BRANCH  14  16
HETATM   16  C10 UNL     1      24.841   4.366  50.622  1.00  0.00     0.049 A 
HETATM   17  C11 UNL     1      25.764   3.463  50.141  1.00  0.00     0.031 A 
HETATM   18  C12 UNL     1      26.813   3.712  49.294  1.00  0.00     0.004 A 
HETATM   19  C13 UNL     1      26.959   5.019  48.874  1.00  0.00     0.019 A 
HETATM   20  C14 UNL     1      26.064   5.998  49.314  1.00  0.00     0.013 A 
HETATM   21 BR1  UNL     1      26.399   7.741  48.646  1.00  0.00    -0.051 Br
HETATM   22  C15 UNL     1      25.035   5.661  50.168  1.00  0.00     0.050 A 
ENDBRANCH  14  16
ENDBRANCH  12  14
ENDBRANCH   7  12
BRANCH   1  23
HETATM   23  C2  UNL     1      28.956   1.061  53.482  1.00  0.00     0.034 C 
HETATM   24  C1  UNL     1      29.802  -0.189  53.616  1.00  0.00     0.010 C 
ENDBRANCH   1  23
TORSDOF 4
ENDMDL
MODEL 4
REMARK VINA RESULT:      -7.7      3.159      4.582
REMARK  4 active torsions:
REMARK  status: ('A' for Active; 'I' for Inactive)
REMARK    1  A    between atoms: C2_2  and  C3_3 
REMARK    2  A    between atoms: C9_9  and  N1_10 
REMARK    3  A    between atoms: N1_10  and  N2_11 
REMARK    4  A    between atoms: N2_11  and  C10_12 
ROOT
HETATM    1  C3  UNL     1      24.503   2.240  51.133  1.00  0.00    -0.058 A 
HETATM    2  C4  UNL     1      25.882   2.383  50.970  1.00  0.00     0.008 A 
HETATM    3  C5  UNL     1      26.794   1.621  51.667  1.00  0.00     0.012 A 
HETATM    4  C6  UNL     1      26.307   0.693  52.549  1.00  0.00    -0.006 A 
HETATM    5  C7  UNL     1      24.936   0.534  52.725  1.00  0.00     0.021 A 
HETATM    6  C8  UNL     1      24.012   1.292  52.032  1.00  0.00     0.023 A 
HETATM    7  C9  UNL     1      24.704  -0.513  53.715  1.00  0.00     0.149 A 
HETATM    8  N3  UNL     1      25.855  -0.941  54.095  1.00  0.00    -0.246 NA
HETATM    9  C16 UNL     1      26.946  -0.276  53.447  1.00  0.00     0.250 A 
HETATM   10  C17 UNL     1      27.874   0.358  54.363  1.00  0.00     0.091 C 
HETATM   11  N4  UNL     1      28.627   0.849  55.095  1.00  0.00    -0.195 NA
ENDROOT
BRANCH   7  12
HETATM   12  N1  UNL     1      23.488  -1.057  54.253  1.00  0.00    -0.283 N 
HETATM   13  H9  UNL     1      23.491  -2.078  54.466  1.00  0.00     0.188 HD
BRANCH  12  14
HETATM   14  N2  UNL     1      22.377  -0.199  54.465  1.00  0.00    -0.299 N 
HETATM   15  H10 UNL     1      22.645   0.479  55.224  1.00  0.00     0.187 HD
BRANCH  14  16
HETATM   16  C10 UNL     1      21.131  -0.236  53.783  1.00  0.00     0.049 A 
HETATM   17  C11 UNL     1      20.712   0.697  52.861  1.00  0.00     0.031 A 
HETATM   18  C12 UNL     1      19.528   0.716  52.170  1.00  0.00     0.004 A 
HETATM   19  C13 UNL     1      18.655  -0.321  52.431  1.00  0.00     0.019 A 
HETATM   20  C14 UNL     1      19.002  -1.311  53.355  1.00  0.00     0.013 A 
HETATM   21 BR1  UNL     1      17.698  -2.665  53.600  1.00  0.00    -0.051 Br
HETATM   22  C15 UNL     1      20.217  -1.253  54.006  1.00  0.00     0.050 A 
ENDBRANCH  14  16
ENDBRANCH  12  14
ENDBRANCH   7  12
BRANCH   1  23
HETATM   23  C2  UNL     1      23.566   3.077  50.370  1.00  0.00     0.034 C 
HETATM   24  C1  UNL     1      22.498   2.201  49.748  1.00  0.00     0.010 C 
ENDBRANCH   1  23
TORSDOF 4
ENDMDL
MODEL 5
REMARK VINA RESULT:      -7.6      2.409      3.140
REMARK  4 active torsions:
REMARK  status: ('A' for Active; 'I' for Inactive)
REMARK    1  A    between atoms: C2_2  and  C3_3 
REMARK    2  A    between atoms: C9_9  and  N1_10 
REMARK    3  A    between atoms: N1_10  and  N2_11 
REMARK    4  A    between atoms: N2_11  and  C10_12 
ROOT
HETATM    1  C3  UNL     1      22.739   1.061  52.182  1.00  0.00    -0.058 A 
HETATM    2  C4  UNL     1      22.813  -0.098  52.956  1.00  0.00     0.008 A 
HETATM    3  C5  UNL     1      24.005  -0.594  53.437  1.00  0.00     0.012 A 
HETATM    4  C6  UNL     1      25.151   0.094  53.132  1.00  0.00    -0.006 A 
HETATM    5  C7  UNL     1      25.098   1.252  52.362  1.00  0.00     0.021 A 
HETATM    6  C8  UNL     1      23.908   1.758  51.875  1.00  0.00     0.023 A 
HETATM    7  C9  UNL     1      26.451   1.771  52.193  1.00  0.00     0.149 A 
HETATM    8  N3  UNL     1      27.246   0.976  52.819  1.00  0.00    -0.246 NA
HETATM    9  C16 UNL     1      26.567  -0.115  53.452  1.00  0.00     0.250 A 
HETATM   10  C17 UNL     1      27.035  -1.421  53.028  1.00  0.00     0.091 C 
HETATM   11  N4  UNL     1      27.422  -2.465  52.706  1.00  0.00    -0.195 NA
ENDROOT
BRANCH   7  12
HETATM   12  N1  UNL     1      26.945   2.925  51.494  1.00  0.00    -0.283 N 
HETATM   13  H9  UNL     1      27.527   3.590  52.049  1.00  0.00     0.188 HD
BRANCH  12  14
HETATM   14  N2  UNL     1      26.627   3.094  50.121  1.00  0.00    -0.299 N 
HETATM   15  H10 UNL     1      26.763   2.162  49.651  1.00  0.00     0.187 HD
BRANCH  14  16
HETATM   16  C10 UNL     1      26.200   4.292  49.487  1.00  0.00     0.049 A 
HETATM   17  C11 UNL     1      27.043   5.249  48.968  1.00  0.00     0.031 A 
HETATM   18  C12 UNL     1      26.695   6.419  48.344  1.00  0.00     0.004 A 
HETATM   19  C13 UNL     1      25.342   6.665  48.224  1.00  0.00     0.019 A 
HETATM   20  C14 UNL     1      24.417   5.744  48.725  1.00  0.00     0.013 A 
HETATM   21 BR1  UNL     1      22.600   6.227  48.481  1.00  0.00    -0.051 Br
HETATM   22  C15 UNL     1      24.855   4.589  49.339  1.00  0.00     0.050 A 
ENDBRANCH  14  16
ENDBRANCH  12  14
ENDBRANCH   7  12
BRANCH   1  23
HETATM   23  C2  UNL     1      21.445   1.552  51.687  1.00  0.00     0.034 C 
HETATM   24  C1  UNL     1      20.510   0.379  51.470  1.00  0.00     0.010 C 
ENDBRANCH   1  23
TORSDOF 4
ENDMDL
MODEL 6
REMARK VINA RESULT:      -7.5      4.037      7.795
REMARK  4 active torsions:
REMARK  status: ('A' for Active; 'I' for Inactive)
REMARK    1  A    between atoms: C2_2  and  C3_3 
REMARK    2  A    between atoms: C9_9  and  N1_10 
REMARK    3  A    between atoms: N1_10  and  N2_11 
REMARK    4  A    between atoms: N2_11  and  C10_12 
ROOT
HETATM    1  C3  UNL     1      28.452   6.528  47.828  1.00  0.00    -0.058 A 
HETATM    2  C4  UNL     1      27.541   7.532  47.493  1.00  0.00     0.008 A 
HETATM    3  C5  UNL     1      26.211   7.472  47.842  1.00  0.00     0.012 A 
HETATM    4  C6  UNL     1      25.785   6.376  48.546  1.00  0.00    -0.006 A 
HETATM    5  C7  UNL     1      26.677   5.364  48.889  1.00  0.00     0.021 A 
HETATM    6  C8  UNL     1      28.014   5.414  48.544  1.00  0.00     0.023 A 
HETATM    7  C9  UNL     1      25.959   4.329  49.626  1.00  0.00     0.149 A 
HETATM    8  N3  UNL     1      24.731   4.703  49.711  1.00  0.00    -0.246 NA
HETATM    9  C16 UNL     1      24.482   5.965  49.080  1.00  0.00     0.250 A 
HETATM   10  C17 UNL     1      23.461   5.912  48.050  1.00  0.00     0.091 C 
HETATM   11  N4  UNL     1      22.632   5.876  47.241  1.00  0.00    -0.195 NA
ENDROOT
BRANCH   7  12
HETATM   12  N1  UNL     1      26.404   3.089  50.199  1.00  0.00    -0.283 N 
HETATM   13  H9  UNL     1      26.637   2.325  49.528  1.00  0.00     0.188 HD
BRANCH  12  14
HETATM   14  N2  UNL     1      26.505   2.973  51.610  1.00  0.00    -0.299 N 
HETATM   15  H10 UNL     1      25.982   3.784  52.029  1.00  0.00     0.187 HD
BRANCH  14  16
HETATM   16  C10 UNL     1      27.181   1.954  52.334  1.00  0.00     0.049 A 
HETATM   17  C11 UNL     1      28.150   2.179  53.288  1.00  0.00     0.031 A 
HETATM   18  C12 UNL     1      28.834   1.243  54.020  1.00  0.00     0.004 A 
HETATM   19  C13 UNL     1      28.514  -0.076  53.772  1.00  0.00     0.019 A 
HETATM   20  C14 UNL     1      27.540  -0.392  52.820  1.00  0.00     0.013 A 
HETATM   21 BR1  UNL     1      27.215  -2.247  52.598  1.00  0.00    -0.051 Br
HETATM   22  C15 UNL     1      26.899   0.614  52.127  1.00  0.00     0.050 A 
ENDBRANCH  14  16
ENDBRANCH  12  14
ENDBRANCH   7  12
BRANCH   1  23
HETATM   23  C2  UNL     1      29.864   6.632  47.431  1.00  0.00     0.034 C 
HETATM   24  C1  UNL     1      30.722   5.864  48.416  1.00  0.00     0.010 C 
ENDBRANCH   1  23
TORSDOF 4
ENDMDL
MODEL 7
REMARK VINA RESULT:      -7.5      1.719      2.338
REMARK  4 active torsions:
REMARK  status: ('A' for Active; 'I' for Inactive)
REMARK    1  A    between atoms: C2_2  and  C3_3 
REMARK    2  A    between atoms: C9_9  and  N1_10 
REMARK    3  A    between atoms: N1_10  and  N2_11 
REMARK    4  A    between atoms: N2_11  and  C10_12 
ROOT
HETATM    1  C3  UNL     1      22.561   0.775  51.520  1.00  0.00    -0.058 A 
HETATM    2  C4  UNL     1      22.651   0.026  52.695  1.00  0.00     0.008 A 
HETATM    3  C5  UNL     1      23.744   0.089  53.531  1.00  0.00     0.012 A 
HETATM    4  C6  UNL     1      24.770   0.925  53.178  1.00  0.00    -0.006 A 
HETATM    5  C7  UNL     1      24.699   1.680  52.010  1.00  0.00     0.021 A 
HETATM    6  C8  UNL     1      23.608   1.625  51.164  1.00  0.00     0.023 A 
HETATM    7  C9  UNL     1      25.918   2.472  51.883  1.00  0.00     0.149 A 
HETATM    8  N3  UNL     1      26.656   2.204  52.901  1.00  0.00    -0.246 NA
HETATM    9  C16 UNL     1      26.061   1.252  53.793  1.00  0.00     0.250 A 
HETATM   10  C17 UNL     1      26.874   0.072  54.017  1.00  0.00     0.091 C 
HETATM   11  N4  UNL     1      27.531  -0.862  54.214  1.00  0.00    -0.195 NA
ENDROOT
BRANCH   7  12
HETATM   12  N1  UNL     1      26.344   3.403  50.876  1.00  0.00    -0.283 N 
HETATM   13  H9  UNL     1      27.133   3.098  50.265  1.00  0.00     0.188 HD
BRANCH  12  14
HETATM   14  N2  UNL     1      25.685   4.656  50.765  1.00  0.00    -0.299 N 
HETATM   15  H10 UNL     1      26.378   5.399  51.040  1.00  0.00     0.187 HD
BRANCH  14  16
HETATM   16  C10 UNL     1      24.343   4.880  50.358  1.00  0.00     0.049 A 
HETATM   17  C11 UNL     1      23.336   5.329  51.184  1.00  0.00     0.031 A 
HETATM   18  C12 UNL     1      22.027   5.565  50.852  1.00  0.00     0.004 A 
HETATM   19  C13 UNL     1      21.679   5.325  49.538  1.00  0.00     0.019 A 
HETATM   20  C14 UNL     1      22.642   4.868  48.632  1.00  0.00     0.013 A 
HETATM   21 BR1  UNL     1      22.007   4.589  46.868  1.00  0.00    -0.051 Br
HETATM   22  C15 UNL     1      23.939   4.656  49.051  1.00  0.00     0.050 A 
ENDBRANCH  14  16
ENDBRANCH  12  14
ENDBRANCH   7  12
BRANCH   1  23
HETATM   23  C2  UNL     1      21.377   0.674  50.655  1.00  0.00     0.034 C 
HETATM   24  C1  UNL     1      21.685   1.285  49.303  1.00  0.00     0.010 C 
ENDBRANCH   1  23
TORSDOF 4
ENDMDL
MODEL 8
REMARK VINA RESULT:      -7.4      2.848      4.262
REMARK  4 active torsions:
REMARK  status: ('A' for Active; 'I' for Inactive)
REMARK    1  A    between atoms: C2_2  and  C3_3 
REMARK    2  A    between atoms: C9_9  and  N1_10 
REMARK    3  A    between atoms: N1_10  and  N2_11 
REMARK    4  A    between atoms: N2_11  and  C10_12 
ROOT
HETATM    1  C3  UNL     1      25.037   3.008  50.868  1.00  0.00    -0.058 A 
HETATM    2  C4  UNL     1      26.360   2.569  50.794  1.00  0.00     0.008 A 
HETATM    3  C5  UNL     1      26.815   1.469  51.486  1.00  0.00     0.012 A 
HETATM    4  C6  UNL     1      25.918   0.792  52.270  1.00  0.00    -0.006 A 
HETATM    5  C7  UNL     1      24.595   1.213  52.357  1.00  0.00     0.021 A 
HETATM    6  C8  UNL     1      24.127   2.315  51.668  1.00  0.00     0.023 A 
HETATM    7  C9  UNL     1      23.871   0.319  53.254  1.00  0.00     0.149 A 
HETATM    8  N3  UNL     1      24.707  -0.566  53.668  1.00  0.00    -0.246 NA
HETATM    9  C16 UNL     1      26.024  -0.391  53.132  1.00  0.00     0.250 A 
HETATM   10  C17 UNL     1      27.053  -0.240  54.143  1.00  0.00     0.091 C 
HETATM   11  N4  UNL     1      27.879  -0.139  54.950  1.00  0.00    -0.195 NA
ENDROOT
BRANCH   7  12
HETATM   12  N1  UNL     1      22.500   0.310  53.683  1.00  0.00    -0.283 N 
HETATM   13  H9  UNL     1      22.279   0.853  54.546  1.00  0.00     0.188 HD
BRANCH  12  14
HETATM   14  N2  UNL     1      21.541  -0.416  52.928  1.00  0.00    -0.299 N 
HETATM   15  H10 UNL     1      21.574  -1.415  53.258  1.00  0.00     0.187 HD
BRANCH  14  16
HETATM   16  C10 UNL     1      20.688   0.098  51.915  1.00  0.00     0.049 A 
HETATM   17  C11 UNL     1      19.312   0.033  51.940  1.00  0.00     0.031 A 
HETATM   18  C12 UNL     1      18.437   0.510  50.998  1.00  0.00     0.004 A 
HETATM   19  C13 UNL     1      19.001   1.126  49.899  1.00  0.00     0.019 A 
HETATM   20  C14 UNL     1      20.391   1.235  49.796  1.00  0.00     0.013 A 
HETATM   21 BR1  UNL     1      21.009   2.108  48.230  1.00  0.00    -0.051 Br
HETATM   22  C15 UNL     1      21.200   0.726  50.791  1.00  0.00     0.050 A 
ENDBRANCH  14  16
ENDBRANCH  12  14
ENDBRANCH   7  12
BRANCH   1  23
HETATM   23  C2  UNL     1      24.595   4.190  50.115  1.00  0.00     0.034 C 
HETATM   24  C1  UNL     1      25.755   4.739  49.311  1.00  0.00     0.010 C 
ENDBRANCH   1  23
TORSDOF 4
ENDMDL
MODEL 9
REMARK VINA RESULT:      -7.3      2.470      6.115
REMARK  4 active torsions:
REMARK  status: ('A' for Active; 'I' for Inactive)
REMARK    1  A    between atoms: C2_2  and  C3_3 
REMARK    2  A    between atoms: C9_9  and  N1_10 
REMARK    3  A    between atoms: N1_10  and  N2_11 
REMARK    4  A    between atoms: N2_11  and  C10_12 
ROOT
HETATM    1  C3  UNL     1      22.444   2.916  48.790  1.00  0.00    -0.058 A 
HETATM    2  C4  UNL     1      22.013   4.041  48.086  1.00  0.00     0.008 A 
HETATM    3  C5  UNL     1      22.763   5.193  47.999  1.00  0.00     0.012 A 
HETATM    4  C6  UNL     1      23.977   5.214  48.634  1.00  0.00    -0.006 A 
HETATM    5  C7  UNL     1      24.425   4.102  49.341  1.00  0.00     0.021 A 
HETATM    6  C8  UNL     1      23.681   2.941  49.435  1.00  0.00     0.023 A 
HETATM    7  C9  UNL     1      25.734   4.399  49.912  1.00  0.00     0.149 A 
HETATM    8  N3  UNL     1      26.037   5.601  49.568  1.00  0.00    -0.246 NA
HETATM    9  C16 UNL     1      25.028   6.228  48.767  1.00  0.00     0.250 A 
HETATM   10  C17 UNL     1      24.524   7.468  49.325  1.00  0.00     0.091 C 
HETATM   11  N4  UNL     1      24.134   8.470  49.760  1.00  0.00    -0.195 NA
ENDROOT
BRANCH   7  12
HETATM   12  N1  UNL     1      26.620   3.607  50.719  1.00  0.00    -0.283 N 
HETATM   13  H9  UNL     1      27.577   3.445  50.335  1.00  0.00     0.188 HD
BRANCH  12  14
HETATM   14  N2  UNL     1      26.161   3.102  51.963  1.00  0.00    -0.299 N 
HETATM   15  H10 UNL     1      25.999   3.927  52.596  1.00  0.00     0.187 HD
BRANCH  14  16
HETATM   16  C10 UNL     1      25.953   1.738  52.305  1.00  0.00     0.049 A 
HETATM   17  C11 UNL     1      26.892   0.741  52.161  1.00  0.00     0.031 A 
HETATM   18  C12 UNL     1      26.754  -0.587  52.473  1.00  0.00     0.004 A 
HETATM   19  C13 UNL     1      25.532  -0.967  52.991  1.00  0.00     0.019 A 
HETATM   20  C14 UNL     1      24.523  -0.016  53.170  1.00  0.00     0.013 A 
HETATM   21 BR1  UNL     1      22.906  -0.695  53.892  1.00  0.00    -0.051 Br
HETATM   22  C15 UNL     1      24.747   1.302  52.829  1.00  0.00     0.050 A 
ENDBRANCH  14  16
ENDBRANCH  12  14
ENDBRANCH   7  12
BRANCH   1  23
HETATM   23  C2  UNL     1      21.609   1.708  48.859  1.00  0.00     0.034 C 
HETATM   24  C1  UNL     1      21.746   1.078  50.230  1.00  0.00     0.010 C 
ENDBRANCH   1  23
TORSDOF 4
ENDMDL
