MODEL 1
REMARK VINA RESULT:      -8.4      0.000      0.000
REMARK  4 active torsions:
REMARK  status: ('A' for Active; 'I' for Inactive)
REMARK       I    between atoms: C1_2  and  N1_3 
REMARK       I    between atoms: C1_2  and  N3_12 
REMARK    1  A    between atoms: N1_3  and  C2_4 
REMARK    2  A    between atoms: C2_4  and  C3_5 
REMARK    3  A    between atoms: C3_5  and  N2_6 
REMARK    4  A    between atoms: N3_12  and  C8_13 
ROOT
HETATM    1  C8  UNL     1      25.063   1.986  52.638  1.00  0.00     0.079 C 
HETATM    2  C9  UNL     1      25.603   0.884  52.003  1.00  0.00     0.012 C 
HETATM    3  C10 UNL     1      26.684  -0.162  51.931  1.00  0.00     0.055 C 
HETATM    4  C11 UNL     1      27.757  -0.434  52.661  1.00  0.00     0.029 C 
HETATM    5  C12 UNL     1      28.743  -0.250  53.788  1.00  0.00     0.150 C 
HETATM    6 CL1  UNL     1      29.911  -1.550  53.842  1.00  0.00    -0.089 Cl
HETATM    7  C13 UNL     1      29.419   1.084  53.748  1.00  0.00     0.039 C 
HETATM    8  C14 UNL     1      28.808   2.295  53.879  1.00  0.00     0.089 C 
HETATM    9  N4  UNL     1      27.435   2.765  53.582  1.00  0.00    -0.349 N 
HETATM   10  C15 UNL     1      26.163   2.014  53.677  1.00  0.00     0.155 C 
HETATM   11  N5  UNL     1      25.866   1.242  54.731  1.00  0.00    -0.222 NA
HETATM   12  C16 UNL     1      26.681   0.130  55.228  1.00  0.00     0.232 C 
HETATM   13  N6  UNL     1      27.884  -0.360  54.986  1.00  0.00    -0.252 NA
HETATM   14  H20 UNL     1      27.400   3.746  53.272  1.00  0.00     0.167 HD
ENDROOT
BRANCH   1  15
HETATM   15  N3  UNL     1      23.895   2.640  52.225  1.00  0.00    -0.306 N 
HETATM   16  C1  UNL     1      22.661   2.103  52.638  1.00  0.00     0.320 C 
HETATM   17  O1  UNL     1      22.672   1.074  53.351  1.00  0.00    -0.247 OA
HETATM   18  N1  UNL     1      21.474   2.777  52.212  1.00  0.00    -0.341 N 
HETATM   19  H1  UNL     1      21.562   3.647  51.607  1.00  0.00     0.164 HD
HETATM   20  H14 UNL     1      24.054   3.484  51.635  1.00  0.00     0.171 HD
BRANCH  18  21
HETATM   21  C2  UNL     1      20.185   2.215  52.644  1.00  0.00     0.154 C 
BRANCH  21  22
HETATM   22  C3  UNL     1      19.586   1.574  51.423  1.00  0.00     0.292 C 
BRANCH  22  23
HETATM   23  N2  UNL     1      19.351   0.166  51.532  1.00  0.00     0.094 N 
HETATM   24  C4  UNL     1      18.055  -0.077  50.911  1.00  0.00     0.298 C 
HETATM   25  C5  UNL     1      16.973   0.214  51.926  1.00  0.00     0.198 C 
HETATM   26  O2  UNL     1      16.995  -0.766  52.901  1.00  0.00    -0.388 OA
HETATM   27  C6  UNL     1      18.249  -1.223  53.226  1.00  0.00     0.198 C 
HETATM   28  C7  UNL     1      19.340  -0.222  52.912  1.00  0.00     0.298 C 
ENDBRANCH  22  23
ENDBRANCH  21  22
ENDBRANCH  18  21
ENDBRANCH   1  15
TORSDOF 4
ENDMDL
MODEL 2
REMARK VINA RESULT:      -8.1      3.614      5.042
REMARK  4 active torsions:
REMARK  status: ('A' for Active; 'I' for Inactive)
REMARK       I    between atoms: C1_2  and  N1_3 
REMARK       I    between atoms: C1_2  and  N3_12 
REMARK    1  A    between atoms: N1_3  and  C2_4 
REMARK    2  A    between atoms: C2_4  and  C3_5 
REMARK    3  A    between atoms: C3_5  and  N2_6 
REMARK    4  A    between atoms: N3_12  and  C8_13 
ROOT
HETATM    1  C8  UNL     1      24.808   1.564  52.965  1.00  0.00     0.079 C 
HETATM    2  C9  UNL     1      25.400   0.497  52.316  1.00  0.00     0.012 C 
HETATM    3  C10 UNL     1      26.583  -0.422  52.159  1.00  0.00     0.055 C 
HETATM    4  C11 UNL     1      27.756  -0.530  52.766  1.00  0.00     0.029 C 
HETATM    5  C12 UNL     1      28.835  -0.173  53.759  1.00  0.00     0.150 C 
HETATM    6 CL1  UNL     1      30.148  -1.328  53.728  1.00  0.00    -0.089 Cl
HETATM    7  C13 UNL     1      29.339   1.224  53.584  1.00  0.00     0.039 C 
HETATM    8  C14 UNL     1      28.607   2.364  53.737  1.00  0.00     0.089 C 
HETATM    9  N4  UNL     1      27.162   2.657  53.587  1.00  0.00    -0.349 N 
HETATM   10  C15 UNL     1      26.009   1.773  53.863  1.00  0.00     0.155 C 
HETATM   11  N5  UNL     1      25.927   1.032  54.977  1.00  0.00    -0.222 NA
HETATM   12  C16 UNL     1      26.919   0.049  55.419  1.00  0.00     0.232 C 
HETATM   13  N6  UNL     1      28.137  -0.315  55.055  1.00  0.00    -0.252 NA
HETATM   14  H20 UNL     1      26.976   3.609  53.243  1.00  0.00     0.167 HD
ENDROOT
BRANCH   1  15
HETATM   15  N3  UNL     1      23.532   2.058  52.668  1.00  0.00    -0.306 N 
HETATM   16  C1  UNL     1      23.419   3.418  52.317  1.00  0.00     0.320 C 
HETATM   17  O1  UNL     1      24.462   4.110  52.289  1.00  0.00    -0.247 OA
HETATM   18  N1  UNL     1      22.113   3.913  52.015  1.00  0.00    -0.341 N 
HETATM   19  H1  UNL     1      21.283   3.249  52.065  1.00  0.00     0.164 HD
HETATM   20  H14 UNL     1      22.765   1.355  52.737  1.00  0.00     0.171 HD
BRANCH  18  21
HETATM   21  C2  UNL     1      21.996   5.334  51.649  1.00  0.00     0.154 C 
BRANCH  21  22
HETATM   22  C3  UNL     1      22.215   5.393  50.163  1.00  0.00     0.292 C 
BRANCH  22  23
HETATM   23  N2  UNL     1      22.982   6.513  49.708  1.00  0.00     0.094 N 
HETATM   24  C4  UNL     1      23.829   6.014  48.631  1.00  0.00     0.298 C 
HETATM   25  C5  UNL     1      25.058   5.379  49.241  1.00  0.00     0.198 C 
HETATM   26  O2  UNL     1      25.858   6.371  49.777  1.00  0.00    -0.388 OA
HETATM   27  C6  UNL     1      25.171   7.416  50.347  1.00  0.00     0.198 C 
HETATM   28  C7  UNL     1      23.773   7.032  50.785  1.00  0.00     0.298 C 
ENDBRANCH  22  23
ENDBRANCH  21  22
ENDBRANCH  18  21
ENDBRANCH   1  15
TORSDOF 4
ENDMDL
MODEL 3
REMARK VINA RESULT:      -8.0      2.918      3.385
REMARK  4 active torsions:
REMARK  status: ('A' for Active; 'I' for Inactive)
REMARK       I    between atoms: C1_2  and  N1_3 
REMARK       I    between atoms: C1_2  and  N3_12 
REMARK    1  A    between atoms: N1_3  and  C2_4 
REMARK    2  A    between atoms: C2_4  and  C3_5 
REMARK    3  A    between atoms: C3_5  and  N2_6 
REMARK    4  A    between atoms: N3_12  and  C8_13 
ROOT
HETATM    1  C8  UNL     1      24.905   2.026  53.023  1.00  0.00     0.079 C 
HETATM    2  C9  UNL     1      25.332   0.925  52.304  1.00  0.00     0.012 C 
HETATM    3  C10 UNL     1      26.371  -0.139  52.071  1.00  0.00     0.055 C 
HETATM    4  C11 UNL     1      27.527  -0.444  52.645  1.00  0.00     0.029 C 
HETATM    5  C12 UNL     1      28.660  -0.297  53.631  1.00  0.00     0.150 C 
HETATM    6 CL1  UNL     1      29.798  -1.620  53.507  1.00  0.00    -0.089 Cl
HETATM    7  C13 UNL     1      29.352   1.025  53.518  1.00  0.00     0.039 C 
HETATM    8  C14 UNL     1      28.790   2.245  53.748  1.00  0.00     0.089 C 
HETATM    9  N4  UNL     1      27.398   2.744  53.647  1.00  0.00    -0.349 N 
HETATM   10  C15 UNL     1      26.137   2.015  53.903  1.00  0.00     0.155 C 
HETATM   11  N5  UNL     1      25.969   1.232  54.977  1.00  0.00    -0.222 NA
HETATM   12  C16 UNL     1      26.820   0.097  55.343  1.00  0.00     0.232 C 
HETATM   13  N6  UNL     1      27.969  -0.412  54.932  1.00  0.00    -0.252 NA
HETATM   14  H20 UNL     1      27.342   3.731  53.359  1.00  0.00     0.167 HD
ENDROOT
BRANCH   1  15
HETATM   15  N3  UNL     1      23.706   2.709  52.781  1.00  0.00    -0.306 N 
HETATM   16  C1  UNL     1      23.607   3.461  51.595  1.00  0.00     0.320 C 
HETATM   17  O1  UNL     1      24.592   3.480  50.821  1.00  0.00    -0.247 OA
HETATM   18  N1  UNL     1      22.380   4.155  51.356  1.00  0.00    -0.341 N 
HETATM   19  H1  UNL     1      21.596   4.080  52.071  1.00  0.00     0.164 HD
HETATM   20  H14 UNL     1      22.982   2.593  53.521  1.00  0.00     0.171 HD
BRANCH  18  21
HETATM   21  C2  UNL     1      22.277   4.941  50.116  1.00  0.00     0.154 C 
BRANCH  21  22
HETATM   22  C3  UNL     1      20.971   4.545  49.487  1.00  0.00     0.292 C 
BRANCH  22  23
HETATM   23  N2  UNL     1      21.083   3.885  48.222  1.00  0.00     0.094 N 
HETATM   24  C4  UNL     1      20.127   2.785  48.253  1.00  0.00     0.298 C 
HETATM   25  C5  UNL     1      20.767   1.612  48.958  1.00  0.00     0.198 C 
HETATM   26  O2  UNL     1      21.758   1.086  48.150  1.00  0.00    -0.388 OA
HETATM   27  C6  UNL     1      22.457   2.018  47.422  1.00  0.00     0.198 C 
HETATM   28  C7  UNL     1      22.419   3.399  48.043  1.00  0.00     0.298 C 
ENDBRANCH  22  23
ENDBRANCH  21  22
ENDBRANCH  18  21
ENDBRANCH   1  15
TORSDOF 4
ENDMDL
MODEL 4
REMARK VINA RESULT:      -8.0      1.632      1.947
REMARK  4 active torsions:
REMARK  status: ('A' for Active; 'I' for Inactive)
REMARK       I    between atoms: C1_2  and  N1_3 
REMARK       I    between atoms: C1_2  and  N3_12 
REMARK    1  A    between atoms: N1_3  and  C2_4 
REMARK    2  A    between atoms: C2_4  and  C3_5 
REMARK    3  A    between atoms: C3_5  and  N2_6 
REMARK    4  A    between atoms: N3_12  and  C8_13 
ROOT
HETATM    1  C8  UNL     1      25.408   2.520  52.669  1.00  0.00     0.079 C 
HETATM    2  C9  UNL     1      25.738   1.399  51.931  1.00  0.00     0.012 C 
HETATM    3  C10 UNL     1      26.596   0.172  51.762  1.00  0.00     0.055 C 
HETATM    4  C11 UNL     1      27.578  -0.373  52.467  1.00  0.00     0.029 C 
HETATM    5  C12 UNL     1      28.554  -0.493  53.611  1.00  0.00     0.150 C 
HETATM    6 CL1  UNL     1      29.445  -1.997  53.543  1.00  0.00    -0.089 Cl
HETATM    7  C13 UNL     1      29.478   0.679  53.704  1.00  0.00     0.039 C 
HETATM    8  C14 UNL     1      29.111   1.969  53.951  1.00  0.00     0.089 C 
HETATM    9  N4  UNL     1      27.863   2.725  53.695  1.00  0.00    -0.349 N 
HETATM   10  C15 UNL     1      26.468   2.232  53.710  1.00  0.00     0.155 C 
HETATM   11  N5  UNL     1      26.001   1.437  54.683  1.00  0.00    -0.222 NA
HETATM   12  C16 UNL     1      26.572   0.145  55.072  1.00  0.00     0.232 C 
HETATM   13  N6  UNL     1      27.662  -0.547  54.788  1.00  0.00    -0.252 NA
HETATM   14  H20 UNL     1      28.027   3.718  53.482  1.00  0.00     0.167 HD
ENDROOT
BRANCH   1  15
HETATM   15  N3  UNL     1      24.400   3.426  52.316  1.00  0.00    -0.306 N 
HETATM   16  C1  UNL     1      23.062   3.014  52.473  1.00  0.00     0.320 C 
HETATM   17  O1  UNL     1      22.846   1.864  52.918  1.00  0.00    -0.247 OA
HETATM   18  N1  UNL     1      22.040   3.946  52.110  1.00  0.00    -0.341 N 
HETATM   19  H1  UNL     1      22.320   4.903  51.740  1.00  0.00     0.164 HD
HETATM   20  H14 UNL     1      24.743   4.344  51.961  1.00  0.00     0.171 HD
BRANCH  18  21
HETATM   21  C2  UNL     1      20.643   3.515  52.275  1.00  0.00     0.154 C 
BRANCH  21  22
HETATM   22  C3  UNL     1      19.886   4.133  51.133  1.00  0.00     0.292 C 
BRANCH  22  23
HETATM   23  N2  UNL     1      18.935   3.270  50.499  1.00  0.00     0.094 N 
HETATM   24  C4  UNL     1      17.725   4.063  50.320  1.00  0.00     0.298 C 
HETATM   25  C5  UNL     1      16.938   4.034  51.611  1.00  0.00     0.198 C 
HETATM   26  O2  UNL     1      16.409   2.769  51.788  1.00  0.00    -0.388 OA
HETATM   27  C6  UNL     1      17.219   1.745  51.361  1.00  0.00     0.198 C 
HETATM   28  C7  UNL     1      18.684   2.128  51.328  1.00  0.00     0.298 C 
ENDBRANCH  22  23
ENDBRANCH  21  22
ENDBRANCH  18  21
ENDBRANCH   1  15
TORSDOF 4
ENDMDL
MODEL 5
REMARK VINA RESULT:      -7.5      5.214      7.752
REMARK  4 active torsions:
REMARK  status: ('A' for Active; 'I' for Inactive)
REMARK       I    between atoms: C1_2  and  N1_3 
REMARK       I    between atoms: C1_2  and  N3_12 
REMARK    1  A    between atoms: N1_3  and  C2_4 
REMARK    2  A    between atoms: C2_4  and  C3_5 
REMARK    3  A    between atoms: C3_5  and  N2_6 
REMARK    4  A    between atoms: N3_12  and  C8_13 
ROOT
HETATM    1  C8  UNL     1      24.978   4.236  49.391  1.00  0.00     0.079 C 
HETATM    2  C9  UNL     1      26.311   4.364  49.049  1.00  0.00     0.012 C 
HETATM    3  C10 UNL     1      27.455   5.246  48.625  1.00  0.00     0.055 C 
HETATM    4  C11 UNL     1      27.580   6.544  48.382  1.00  0.00     0.029 C 
HETATM    5  C12 UNL     1      27.122   7.976  48.260  1.00  0.00     0.150 C 
HETATM    6 CL1  UNL     1      28.461   9.057  47.944  1.00  0.00    -0.089 Cl
HETATM    7  C13 UNL     1      26.036   8.148  47.246  1.00  0.00     0.039 C 
HETATM    8  C14 UNL     1      24.792   7.594  47.304  1.00  0.00     0.089 C 
HETATM    9  N4  UNL     1      24.270   6.362  47.941  1.00  0.00    -0.349 N 
HETATM   10  C15 UNL     1      24.714   5.714  49.195  1.00  0.00     0.155 C 
HETATM   11  N5  UNL     1      24.950   6.410  50.315  1.00  0.00    -0.222 NA
HETATM   12  C16 UNL     1      25.887   7.529  50.439  1.00  0.00     0.232 C 
HETATM   13  N6  UNL     1      26.615   8.266  49.618  1.00  0.00    -0.252 NA
HETATM   14  H20 UNL     1      23.499   5.929  47.415  1.00  0.00     0.167 HD
ENDROOT
BRANCH   1  15
HETATM   15  N3  UNL     1      24.366   3.026  49.743  1.00  0.00    -0.306 N 
HETATM   16  C1  UNL     1      24.305   2.695  51.110  1.00  0.00     0.320 C 
HETATM   17  O1  UNL     1      24.796   3.497  51.936  1.00  0.00    -0.247 OA
HETATM   18  N1  UNL     1      23.679   1.458  51.460  1.00  0.00    -0.341 N 
HETATM   19  H1  UNL     1      23.288   0.839  50.688  1.00  0.00     0.164 HD
HETATM   20  H14 UNL     1      24.007   2.469  48.938  1.00  0.00     0.171 HD
BRANCH  18  21
HETATM   21  C2  UNL     1      23.615   1.113  52.889  1.00  0.00     0.154 C 
BRANCH  21  22
HETATM   22  C3  UNL     1      24.726   0.128  53.124  1.00  0.00     0.292 C 
BRANCH  22  23
HETATM   23  N2  UNL     1      26.023   0.707  53.297  1.00  0.00     0.094 N 
HETATM   24  C4  UNL     1      26.893   0.051  52.330  1.00  0.00     0.298 C 
HETATM   25  C5  UNL     1      27.365  -1.259  52.920  1.00  0.00     0.198 C 
HETATM   26  O2  UNL     1      28.252  -0.996  53.948  1.00  0.00    -0.388 OA
HETATM   27  C6  UNL     1      27.950   0.116  54.695  1.00  0.00     0.198 C 
HETATM   28  C7  UNL     1      26.482   0.484  54.637  1.00  0.00     0.298 C 
ENDBRANCH  22  23
ENDBRANCH  21  22
ENDBRANCH  18  21
ENDBRANCH   1  15
TORSDOF 4
ENDMDL
MODEL 6
REMARK VINA RESULT:      -7.3      5.348      8.921
REMARK  4 active torsions:
REMARK  status: ('A' for Active; 'I' for Inactive)
REMARK       I    between atoms: C1_2  and  N1_3 
REMARK       I    between atoms: C1_2  and  N3_12 
REMARK    1  A    between atoms: N1_3  and  C2_4 
REMARK    2  A    between atoms: C2_4  and  C3_5 
REMARK    3  A    between atoms: C3_5  and  N2_6 
REMARK    4  A    between atoms: N3_12  and  C8_13 
ROOT
HETATM    1  C8  UNL     1      25.171   4.982  50.243  1.00  0.00     0.079 C 
HETATM    2  C9  UNL     1      24.610   5.095  48.985  1.00  0.00     0.012 C 
HETATM    3  C10 UNL     1      23.645   5.789  48.060  1.00  0.00     0.055 C 
HETATM    4  C11 UNL     1      22.791   6.794  48.200  1.00  0.00     0.029 C 
HETATM    5  C12 UNL     1      22.066   7.898  48.930  1.00  0.00     0.150 C 
HETATM    6 CL1  UNL     1      21.067   8.840  47.845  1.00  0.00    -0.089 Cl
HETATM    7  C13 UNL     1      21.274   7.394  50.094  1.00  0.00     0.039 C 
HETATM    8  C14 UNL     1      21.781   6.785  51.203  1.00  0.00     0.089 C 
HETATM    9  N4  UNL     1      23.004   5.982  51.438  1.00  0.00    -0.349 N 
HETATM   10  C15 UNL     1      24.330   6.113  50.795  1.00  0.00     0.155 C 
HETATM   11  N5  UNL     1      24.925   7.301  50.621  1.00  0.00    -0.222 NA
HETATM   12  C16 UNL     1      24.350   8.444  49.908  1.00  0.00     0.232 C 
HETATM   13  N6  UNL     1      23.175   8.759  49.390  1.00  0.00    -0.252 NA
HETATM   14  H20 UNL     1      22.876   5.246  52.146  1.00  0.00     0.167 HD
ENDROOT
BRANCH   1  15
HETATM   15  N3  UNL     1      26.150   4.043  50.588  1.00  0.00    -0.306 N 
HETATM   16  C1  UNL     1      25.722   2.826  51.154  1.00  0.00     0.320 C 
HETATM   17  O1  UNL     1      24.494   2.649  51.317  1.00  0.00    -0.247 OA
HETATM   18  N1  UNL     1      26.729   1.873  51.504  1.00  0.00    -0.341 N 
HETATM   19  H1  UNL     1      27.750   2.111  51.327  1.00  0.00     0.164 HD
HETATM   20  H14 UNL     1      27.129   4.340  50.390  1.00  0.00     0.171 HD
BRANCH  18  21
HETATM   21  C2  UNL     1      26.281   0.602  52.094  1.00  0.00     0.154 C 
BRANCH  21  22
HETATM   22  C3  UNL     1      26.549   0.718  53.569  1.00  0.00     0.292 C 
BRANCH  22  23
HETATM   23  N2  UNL     1      27.342  -0.336  54.125  1.00  0.00     0.094 N 
HETATM   24  C4  UNL     1      28.399   0.312  54.891  1.00  0.00     0.298 C 
HETATM   25  C5  UNL     1      29.514   0.693  53.944  1.00  0.00     0.198 C 
HETATM   26  O2  UNL     1      30.154  -0.455  53.517  1.00  0.00    -0.388 OA
HETATM   27  C6  UNL     1      29.328  -1.537  53.333  1.00  0.00     0.198 C 
HETATM   28  C7  UNL     1      27.890  -1.142  53.073  1.00  0.00     0.298 C 
ENDBRANCH  22  23
ENDBRANCH  21  22
ENDBRANCH  18  21
ENDBRANCH   1  15
TORSDOF 4
ENDMDL
MODEL 7
REMARK VINA RESULT:      -7.2      5.869     10.097
REMARK  4 active torsions:
REMARK  status: ('A' for Active; 'I' for Inactive)
REMARK       I    between atoms: C1_2  and  N1_3 
REMARK       I    between atoms: C1_2  and  N3_12 
REMARK    1  A    between atoms: N1_3  and  C2_4 
REMARK    2  A    between atoms: C2_4  and  C3_5 
REMARK    3  A    between atoms: C3_5  and  N2_6 
REMARK    4  A    between atoms: N3_12  and  C8_13 
ROOT
HETATM    1  C8  UNL     1      25.001   4.581  50.377  1.00  0.00     0.079 C 
HETATM    2  C9  UNL     1      24.266   3.755  49.547  1.00  0.00     0.012 C 
HETATM    3  C10 UNL     1      23.255   2.649  49.394  1.00  0.00     0.055 C 
HETATM    4  C11 UNL     1      22.553   1.915  50.246  1.00  0.00     0.029 C 
HETATM    5  C12 UNL     1      22.076   1.448  51.599  1.00  0.00     0.150 C 
HETATM    6 CL1  UNL     1      20.773   0.289  51.460  1.00  0.00    -0.089 Cl
HETATM    7  C13 UNL     1      23.187   0.913  52.446  1.00  0.00     0.039 C 
HETATM    8  C14 UNL     1      24.261   1.622  52.898  1.00  0.00     0.089 C 
HETATM    9  N4  UNL     1      24.971   2.812  52.375  1.00  0.00    -0.349 N 
HETATM   10  C15 UNL     1      24.415   3.962  51.627  1.00  0.00     0.155 C 
HETATM   11  N5  UNL     1      23.283   4.575  51.997  1.00  0.00    -0.222 NA
HETATM   12  C16 UNL     1      21.981   3.925  52.171  1.00  0.00     0.232 C 
HETATM   13  N6  UNL     1      21.523   2.685  52.189  1.00  0.00    -0.252 NA
HETATM   14  H20 UNL     1      25.980   2.804  52.578  1.00  0.00     0.167 HD
ENDROOT
BRANCH   1  15
HETATM   15  N3  UNL     1      25.903   5.552  49.924  1.00  0.00    -0.306 N 
HETATM   16  C1  UNL     1      27.076   5.110  49.281  1.00  0.00     0.320 C 
HETATM   17  O1  UNL     1      27.248   3.877  49.147  1.00  0.00    -0.247 OA
HETATM   18  N1  UNL     1      27.991   6.108  48.822  1.00  0.00    -0.341 N 
HETATM   19  H1  UNL     1      27.759   7.134  48.980  1.00  0.00     0.164 HD
HETATM   20  H14 UNL     1      25.615   6.536  50.111  1.00  0.00     0.171 HD
BRANCH  18  21
HETATM   21  C2  UNL     1      29.216   5.645  48.150  1.00  0.00     0.154 C 
BRANCH  21  22
HETATM   22  C3  UNL     1      30.229   6.738  48.345  1.00  0.00     0.292 C 
BRANCH  22  23
HETATM   23  N2  UNL     1      31.320   6.405  49.210  1.00  0.00     0.094 N 
HETATM   24  C4  UNL     1      31.947   7.669  49.577  1.00  0.00     0.298 C 
HETATM   25  C5  UNL     1      32.901   8.069  48.475  1.00  0.00     0.198 C 
HETATM   26  O2  UNL     1      33.987   7.215  48.487  1.00  0.00    -0.388 OA
HETATM   27  C6  UNL     1      33.688   5.913  48.806  1.00  0.00     0.198 C 
HETATM   28  C7  UNL     1      32.245   5.553  48.522  1.00  0.00     0.298 C 
ENDBRANCH  22  23
ENDBRANCH  21  22
ENDBRANCH  18  21
ENDBRANCH   1  15
TORSDOF 4
ENDMDL
MODEL 8
REMARK VINA RESULT:      -7.1      5.004      7.773
REMARK  4 active torsions:
REMARK  status: ('A' for Active; 'I' for Inactive)
REMARK       I    between atoms: C1_2  and  N1_3 
REMARK       I    between atoms: C1_2  and  N3_12 
REMARK    1  A    between atoms: N1_3  and  C2_4 
REMARK    2  A    between atoms: C2_4  and  C3_5 
REMARK    3  A    between atoms: C3_5  and  N2_6 
REMARK    4  A    between atoms: N3_12  and  C8_13 
ROOT
HETATM    1  C8  UNL     1      24.018   3.805  49.832  1.00  0.00     0.079 C 
HETATM    2  C9  UNL     1      23.444   4.479  48.771  1.00  0.00     0.012 C 
HETATM    3  C10 UNL     1      23.353   5.727  47.933  1.00  0.00     0.055 C 
HETATM    4  C11 UNL     1      23.971   6.900  47.952  1.00  0.00     0.029 C 
HETATM    5  C12 UNL     1      24.942   7.941  48.453  1.00  0.00     0.150 C 
HETATM    6 CL1  UNL     1      24.993   9.336  47.398  1.00  0.00    -0.089 Cl
HETATM    7  C13 UNL     1      24.675   8.343  49.869  1.00  0.00     0.039 C 
HETATM    8  C14 UNL     1      24.749   7.528  50.959  1.00  0.00     0.089 C 
HETATM    9  N4  UNL     1      24.574   6.067  51.134  1.00  0.00    -0.349 N 
HETATM   10  C15 UNL     1      24.904   4.979  50.188  1.00  0.00     0.155 C 
HETATM   11  N5  UNL     1      26.065   4.942  49.519  1.00  0.00    -0.222 NA
HETATM   12  C16 UNL     1      26.575   6.000  48.643  1.00  0.00     0.232 C 
HETATM   13  N6  UNL     1      26.241   7.244  48.347  1.00  0.00    -0.252 NA
HETATM   14  H20 UNL     1      24.166   5.814  52.045  1.00  0.00     0.167 HD
ENDROOT
BRANCH   1  15
HETATM   15  N3  UNL     1      23.683   2.498  50.210  1.00  0.00    -0.306 N 
HETATM   16  C1  UNL     1      23.786   2.163  51.574  1.00  0.00     0.320 C 
HETATM   17  O1  UNL     1      24.168   3.047  52.374  1.00  0.00    -0.247 OA
HETATM   18  N1  UNL     1      23.442   0.827  51.950  1.00  0.00    -0.341 N 
HETATM   19  H1  UNL     1      23.126   0.143  51.199  1.00  0.00     0.164 HD
HETATM   20  H14 UNL     1      23.383   1.881  49.426  1.00  0.00     0.171 HD
BRANCH  18  21
HETATM   21  C2  UNL     1      23.549   0.477  53.376  1.00  0.00     0.154 C 
BRANCH  21  22
HETATM   22  C3  UNL     1      24.809  -0.333  53.506  1.00  0.00     0.292 C 
BRANCH  22  23
HETATM   23  N2  UNL     1      26.014   0.432  53.608  1.00  0.00     0.094 N 
HETATM   24  C4  UNL     1      26.889  -0.046  52.545  1.00  0.00     0.298 C 
HETATM   25  C5  UNL     1      27.600  -1.288  53.030  1.00  0.00     0.198 C 
HETATM   26  O2  UNL     1      28.520  -0.932  53.999  1.00  0.00    -0.388 OA
HETATM   27  C6  UNL     1      28.118   0.093  54.821  1.00  0.00     0.198 C 
HETATM   28  C7  UNL     1      26.612   0.232  54.895  1.00  0.00     0.298 C 
ENDBRANCH  22  23
ENDBRANCH  21  22
ENDBRANCH  18  21
ENDBRANCH   1  15
TORSDOF 4
ENDMDL
MODEL 9
REMARK VINA RESULT:      -7.1      8.193     10.184
REMARK  4 active torsions:
REMARK  status: ('A' for Active; 'I' for Inactive)
REMARK       I    between atoms: C1_2  and  N1_3 
REMARK       I    between atoms: C1_2  and  N3_12 
REMARK    1  A    between atoms: N1_3  and  C2_4 
REMARK    2  A    between atoms: C2_4  and  C3_5 
REMARK    3  A    between atoms: C3_5  and  N2_6 
REMARK    4  A    between atoms: N3_12  and  C8_13 
ROOT
HETATM    1  C8  UNL     1      31.779   7.278  48.841  1.00  0.00     0.079 C 
HETATM    2  C9  UNL     1      32.259   7.581  47.580  1.00  0.00     0.012 C 
HETATM    3  C10 UNL     1      33.018   7.154  46.352  1.00  0.00     0.055 C 
HETATM    4  C11 UNL     1      33.638   6.039  45.990  1.00  0.00     0.029 C 
HETATM    5  C12 UNL     1      34.130   4.621  46.143  1.00  0.00     0.150 C 
HETATM    6 CL1  UNL     1      34.862   4.030  44.669  1.00  0.00    -0.089 Cl
HETATM    7  C13 UNL     1      35.052   4.455  47.309  1.00  0.00     0.039 C 
HETATM    8  C14 UNL     1      34.727   4.647  48.620  1.00  0.00     0.089 C 
HETATM    9  N4  UNL     1      33.716   5.498  49.289  1.00  0.00    -0.349 N 
HETATM   10  C15 UNL     1      32.372   5.886  48.808  1.00  0.00     0.155 C 
HETATM   11  N5  UNL     1      31.528   5.002  48.259  1.00  0.00    -0.222 NA
HETATM   12  C16 UNL     1      31.816   4.160  47.095  1.00  0.00     0.232 C 
HETATM   13  N6  UNL     1      32.876   3.869  46.361  1.00  0.00    -0.252 NA
HETATM   14  H20 UNL     1      34.025   5.848  50.207  1.00  0.00     0.167 HD
ENDROOT
BRANCH   1  15
HETATM   15  N3  UNL     1      31.039   8.162  49.636  1.00  0.00    -0.306 N 
HETATM   16  C1  UNL     1      29.747   8.514  49.199  1.00  0.00     0.320 C 
HETATM   17  O1  UNL     1      29.330   8.019  48.127  1.00  0.00    -0.247 OA
HETATM   18  N1  UNL     1      28.999   9.417  50.017  1.00  0.00    -0.341 N 
HETATM   19  H1  UNL     1      29.437   9.787  50.913  1.00  0.00     0.164 HD
HETATM   20  H14 UNL     1      31.527   8.486  50.498  1.00  0.00     0.171 HD
BRANCH  18  21
HETATM   21  C2  UNL     1      27.650   9.785  49.560  1.00  0.00     0.154 C 
BRANCH  21  22
HETATM   22  C3  UNL     1      26.712   8.825  50.237  1.00  0.00     0.292 C 
BRANCH  22  23
HETATM   23  N2  UNL     1      25.860   8.086  49.356  1.00  0.00     0.094 N 
HETATM   24  C4  UNL     1      24.494   8.389  49.763  1.00  0.00     0.298 C 
HETATM   25  C5  UNL     1      24.127   7.491  50.922  1.00  0.00     0.198 C 
HETATM   26  O2  UNL     1      23.991   6.195  50.462  1.00  0.00    -0.388 OA
HETATM   27  C6  UNL     1      24.873   5.844  49.469  1.00  0.00     0.198 C 
HETATM   28  C7  UNL     1      26.133   6.684  49.477  1.00  0.00     0.298 C 
ENDBRANCH  22  23
ENDBRANCH  21  22
ENDBRANCH  18  21
ENDBRANCH   1  15
TORSDOF 4
ENDMDL
