MODEL 1
REMARK VINA RESULT:      -8.7      0.000      0.000
REMARK  7 active torsions:
REMARK  status: ('A' for Active; 'I' for Inactive)
REMARK    1  A    between atoms: N1_2  and  C1_3 
REMARK    2  A    between atoms: C6_8  and  C7_9 
REMARK    3  A    between atoms: C7_9  and  C11_15 
REMARK    4  A    between atoms: C8_10  and  N2_11 
REMARK    5  A    between atoms: N2_11  and  C9_12 
REMARK    6  A    between atoms: C9_12  and  C10_13 
REMARK    7  A    between atoms: C10_13  and  O2_14 
ROOT
HETATM    1  C7  UNL     1      25.781   2.304  51.875  1.00  0.00     0.019 C 
HETATM    2  C8  UNL     1      25.772   3.225  50.962  1.00  0.00     0.097 C 
ENDROOT
BRANCH   1   3
HETATM    3  C6  UNL     1      24.458   1.875  52.299  1.00  0.00    -0.022 A 
HETATM    4  C5  UNL     1      24.227   0.681  52.943  1.00  0.00     0.020 A 
HETATM    5  C4  UNL     1      22.997   0.224  53.367  1.00  0.00    -0.049 A 
HETATM    6  C3  UNL     1      22.510  -0.997  54.061  1.00  0.00     0.042 C 
HETATM    7  C19 UNL     1      21.890   1.014  53.138  1.00  0.00    -0.025 A 
HETATM    8  C2  UNL     1      21.181  -0.596  54.655  1.00  0.00     0.039 C 
HETATM    9  C1  UNL     1      20.662   0.395  53.640  1.00  0.00     0.172 C 
HETATM   10  C18 UNL     1      22.041   2.232  52.494  1.00  0.00     0.011 A 
HETATM   11  C17 UNL     1      23.310   2.609  52.105  1.00  0.00     0.013 A 
BRANCH   9  12
HETATM   12  N1  UNL     1      19.969  -0.310  52.597  1.00  0.00    -0.131 NA
HETATM   13  O1  UNL     1      18.784  -0.239  52.521  1.00  0.00    -0.066 OA
ENDBRANCH   9  12
ENDBRANCH   1   3
BRANCH   1  14
HETATM   14  C11 UNL     1      27.002   1.760  52.442  1.00  0.00     0.082 A 
HETATM   15  N3  UNL     1      28.101   2.263  52.899  1.00  0.00    -0.245 NA
HETATM   16  C12 UNL     1      28.645   1.016  53.205  1.00  0.00     0.087 A 
HETATM   17  C13 UNL     1      29.736   0.356  53.719  1.00  0.00     0.148 A 
HETATM   18  C16 UNL     1      27.491   0.434  52.728  1.00  0.00     0.025 A 
HETATM   19  N4  UNL     1      29.683  -1.007  53.766  1.00  0.00    -0.271 NA
HETATM   20  C14 UNL     1      28.574  -1.656  53.312  1.00  0.00     0.117 A 
HETATM   21  C15 UNL     1      27.498  -0.923  52.801  1.00  0.00     0.035 A 
ENDBRANCH   1  14
BRANCH   2  22
HETATM   22  N2  UNL     1      26.823   3.900  50.291  1.00  0.00    -0.396 N 
HETATM   23  H8  UNL     1      27.864   3.832  50.467  1.00  0.00     0.158 HD
BRANCH  22  24
HETATM   24  C9  UNL     1      26.305   4.772  49.245  1.00  0.00     0.145 C 
BRANCH  24  25
HETATM   25  C10 UNL     1      27.478   5.415  48.525  1.00  0.00     0.183 C 
BRANCH  25  26
HETATM   26  O2  UNL     1      28.659   5.217  49.221  1.00  0.00    -0.399 OA
HETATM   27  H13 UNL     1      28.539   4.681  50.042  1.00  0.00     0.209 HD
ENDBRANCH  25  26
ENDBRANCH  24  25
ENDBRANCH  22  24
ENDBRANCH   2  22
TORSDOF 7
ENDMDL
MODEL 2
REMARK VINA RESULT:      -8.4      2.909      6.067
REMARK  7 active torsions:
REMARK  status: ('A' for Active; 'I' for Inactive)
REMARK    1  A    between atoms: N1_2  and  C1_3 
REMARK    2  A    between atoms: C6_8  and  C7_9 
REMARK    3  A    between atoms: C7_9  and  C11_15 
REMARK    4  A    between atoms: C8_10  and  N2_11 
REMARK    5  A    between atoms: N2_11  and  C9_12 
REMARK    6  A    between atoms: C9_12  and  C10_13 
REMARK    7  A    between atoms: C10_13  and  O2_14 
ROOT
HETATM    1  C7  UNL     1      26.305   0.686  53.320  1.00  0.00     0.019 C 
HETATM    2  C8  UNL     1      27.582   0.527  53.483  1.00  0.00     0.097 C 
ENDROOT
BRANCH   1   3
HETATM    3  C6  UNL     1      25.954   1.733  52.374  1.00  0.00    -0.022 A 
HETATM    4  C5  UNL     1      24.905   2.602  52.571  1.00  0.00     0.020 A 
HETATM    5  C4  UNL     1      24.527   3.610  51.711  1.00  0.00    -0.049 A 
HETATM    6  C3  UNL     1      23.459   4.644  51.705  1.00  0.00     0.042 C 
HETATM    7  C19 UNL     1      25.245   3.782  50.546  1.00  0.00    -0.025 A 
HETATM    8  C2  UNL     1      23.955   5.702  50.748  1.00  0.00     0.039 C 
HETATM    9  C1  UNL     1      24.724   4.884  49.737  1.00  0.00     0.172 C 
HETATM   10  C18 UNL     1      26.317   2.945  50.274  1.00  0.00     0.011 A 
HETATM   11  C17 UNL     1      26.624   1.963  51.193  1.00  0.00     0.013 A 
BRANCH   9  12
HETATM   12  N1  UNL     1      23.822   4.407  48.724  1.00  0.00    -0.131 NA
HETATM   13  O1  UNL     1      22.992   5.134  48.281  1.00  0.00    -0.066 OA
ENDBRANCH   9  12
ENDBRANCH   1   3
BRANCH   1  14
HETATM   14  C11 UNL     1      25.309  -0.094  54.032  1.00  0.00     0.082 A 
HETATM   15  N3  UNL     1      25.314  -0.834  55.092  1.00  0.00    -0.245 NA
HETATM   16  C12 UNL     1      23.959  -1.144  54.985  1.00  0.00     0.087 A 
HETATM   17  C13 UNL     1      22.912  -1.837  55.548  1.00  0.00     0.148 A 
HETATM   18  C16 UNL     1      23.905  -0.366  53.851  1.00  0.00     0.025 A 
HETATM   19  N4  UNL     1      21.697  -1.752  54.930  1.00  0.00    -0.271 NA
HETATM   20  C14 UNL     1      21.564  -1.000  53.801  1.00  0.00     0.117 A 
HETATM   21  C15 UNL     1      22.671  -0.320  53.282  1.00  0.00     0.035 A 
ENDBRANCH   1  14
BRANCH   2  22
HETATM   22  N2  UNL     1      28.325  -0.366  54.296  1.00  0.00    -0.396 N 
HETATM   23  H8  UNL     1      28.346  -0.431  55.352  1.00  0.00     0.158 HD
BRANCH  22  24
HETATM   24  C9  UNL     1      29.129  -1.271  53.485  1.00  0.00     0.145 C 
BRANCH  24  25
HETATM   25  C10 UNL     1      28.227  -2.365  52.940  1.00  0.00     0.183 C 
BRANCH  25  26
HETATM   26  O2  UNL     1      28.654  -3.616  53.355  1.00  0.00    -0.399 OA
HETATM   27  H13 UNL     1      27.978  -4.098  53.889  1.00  0.00     0.209 HD
ENDBRANCH  25  26
ENDBRANCH  24  25
ENDBRANCH  22  24
ENDBRANCH   2  22
TORSDOF 7
ENDMDL
MODEL 3
REMARK VINA RESULT:      -8.3      2.677      6.256
REMARK  7 active torsions:
REMARK  status: ('A' for Active; 'I' for Inactive)
REMARK    1  A    between atoms: N1_2  and  C1_3 
REMARK    2  A    between atoms: C6_8  and  C7_9 
REMARK    3  A    between atoms: C7_9  and  C11_15 
REMARK    4  A    between atoms: C8_10  and  N2_11 
REMARK    5  A    between atoms: N2_11  and  C9_12 
REMARK    6  A    between atoms: C9_12  and  C10_13 
REMARK    7  A    between atoms: C10_13  and  O2_14 
ROOT
HETATM    1  C7  UNL     1      25.886   0.642  52.593  1.00  0.00     0.019 C 
HETATM    2  C8  UNL     1      27.090   0.213  52.374  1.00  0.00     0.097 C 
ENDROOT
BRANCH   1   3
HETATM    3  C6  UNL     1      25.562   1.881  51.906  1.00  0.00    -0.022 A 
HETATM    4  C5  UNL     1      26.396   2.466  50.980  1.00  0.00     0.020 A 
HETATM    5  C4  UNL     1      26.142   3.638  50.300  1.00  0.00    -0.049 A 
HETATM    6  C3  UNL     1      26.868   4.445  49.285  1.00  0.00     0.042 C 
HETATM    7  C19 UNL     1      24.958   4.299  50.553  1.00  0.00    -0.025 A 
HETATM    8  C2  UNL     1      25.799   5.284  48.625  1.00  0.00     0.039 C 
HETATM    9  C1  UNL     1      24.833   5.524  49.761  1.00  0.00     0.172 C 
HETATM   10  C18 UNL     1      24.064   3.773  51.474  1.00  0.00     0.011 A 
HETATM   11  C17 UNL     1      24.402   2.595  52.107  1.00  0.00     0.013 A 
BRANCH   9  12
HETATM   12  N1  UNL     1      25.256   6.675  50.511  1.00  0.00    -0.131 NA
HETATM   13  O1  UNL     1      24.467   7.274  51.169  1.00  0.00    -0.066 OA
ENDBRANCH   9  12
ENDBRANCH   1   3
BRANCH   1  14
HETATM   14  C11 UNL     1      24.946  -0.041  53.464  1.00  0.00     0.082 A 
HETATM   15  N3  UNL     1      25.030  -0.656  54.597  1.00  0.00    -0.245 NA
HETATM   16  C12 UNL     1      23.669  -0.960  54.631  1.00  0.00     0.087 A 
HETATM   17  C13 UNL     1      22.667  -1.571  55.348  1.00  0.00     0.148 A 
HETATM   18  C16 UNL     1      23.531  -0.314  53.423  1.00  0.00     0.025 A 
HETATM   19  N4  UNL     1      21.408  -1.542  54.819  1.00  0.00    -0.271 NA
HETATM   20  C14 UNL     1      21.191  -0.922  53.625  1.00  0.00     0.117 A 
HETATM   21  C15 UNL     1      22.256  -0.319  52.949  1.00  0.00     0.035 A 
ENDBRANCH   1  14
BRANCH   2  22
HETATM   22  N2  UNL     1      27.783  -0.932  52.841  1.00  0.00    -0.396 N 
HETATM   23  H8  UNL     1      27.526  -1.951  52.720  1.00  0.00     0.158 HD
BRANCH  22  24
HETATM   24  C9  UNL     1      28.991  -0.557  53.565  1.00  0.00     0.145 C 
BRANCH  24  25
HETATM   25  C10 UNL     1      28.587   0.104  54.872  1.00  0.00     0.183 C 
BRANCH  25  26
HETATM   26  O2  UNL     1      29.099   1.388  54.959  1.00  0.00    -0.399 OA
HETATM   27  H13 UNL     1      29.823   1.561  54.310  1.00  0.00     0.209 HD
ENDBRANCH  25  26
ENDBRANCH  24  25
ENDBRANCH  22  24
ENDBRANCH   2  22
TORSDOF 7
ENDMDL
MODEL 4
REMARK VINA RESULT:      -8.1      2.852      6.482
REMARK  7 active torsions:
REMARK  status: ('A' for Active; 'I' for Inactive)
REMARK    1  A    between atoms: N1_2  and  C1_3 
REMARK    2  A    between atoms: C6_8  and  C7_9 
REMARK    3  A    between atoms: C7_9  and  C11_15 
REMARK    4  A    between atoms: C8_10  and  N2_11 
REMARK    5  A    between atoms: N2_11  and  C9_12 
REMARK    6  A    between atoms: C9_12  and  C10_13 
REMARK    7  A    between atoms: C10_13  and  O2_14 
ROOT
HETATM    1  C7  UNL     1      23.545   2.470  52.634  1.00  0.00     0.019 C 
HETATM    2  C8  UNL     1      23.744   3.751  52.654  1.00  0.00     0.097 C 
ENDROOT
BRANCH   1   3
HETATM    3  C6  UNL     1      24.680   1.685  53.091  1.00  0.00    -0.022 A 
HETATM    4  C5  UNL     1      25.974   2.152  53.066  1.00  0.00     0.020 A 
HETATM    5  C4  UNL     1      27.087   1.454  53.485  1.00  0.00    -0.049 A 
HETATM    6  C3  UNL     1      28.544   1.736  53.552  1.00  0.00     0.042 C 
HETATM    7  C19 UNL     1      26.912   0.175  53.974  1.00  0.00    -0.025 A 
HETATM    8  C2  UNL     1      29.079   0.762  54.574  1.00  0.00     0.039 C 
HETATM    9  C1  UNL     1      28.181  -0.437  54.374  1.00  0.00     0.172 C 
HETATM   10  C18 UNL     1      25.638  -0.367  54.031  1.00  0.00     0.011 A 
HETATM   11  C17 UNL     1      24.583   0.405  53.590  1.00  0.00     0.013 A 
BRANCH   9  12
HETATM   12  N1  UNL     1      28.714  -1.262  53.325  1.00  0.00    -0.131 NA
HETATM   13  O1  UNL     1      28.523  -2.436  53.341  1.00  0.00    -0.066 OA
ENDBRANCH   9  12
ENDBRANCH   1   3
BRANCH   1  14
HETATM   14  C11 UNL     1      22.306   1.865  52.177  1.00  0.00     0.082 A 
HETATM   15  N3  UNL     1      21.613   1.913  51.088  1.00  0.00    -0.245 NA
HETATM   16  C12 UNL     1      20.634   1.046  51.572  1.00  0.00     0.087 A 
HETATM   17  C13 UNL     1      19.452   0.404  51.283  1.00  0.00     0.148 A 
HETATM   18  C16 UNL     1      21.339   0.964  52.752  1.00  0.00     0.025 A 
HETATM   19  N4  UNL     1      18.916  -0.394  52.253  1.00  0.00    -0.271 NA
HETATM   20  C14 UNL     1      19.556  -0.527  53.449  1.00  0.00     0.117 A 
HETATM   21  C15 UNL     1      20.756   0.155  53.677  1.00  0.00     0.035 A 
ENDBRANCH   1  14
BRANCH   2  22
HETATM   22  N2  UNL     1      22.911   4.841  52.298  1.00  0.00    -0.396 N 
HETATM   23  H8  UNL     1      22.170   5.321  52.883  1.00  0.00     0.158 HD
BRANCH  22  24
HETATM   24  C9  UNL     1      23.183   5.290  50.939  1.00  0.00     0.145 C 
BRANCH  24  25
HETATM   25  C10 UNL     1      24.399   6.200  50.962  1.00  0.00     0.183 C 
BRANCH  25  26
HETATM   26  O2  UNL     1      24.387   7.020  52.079  1.00  0.00    -0.399 OA
HETATM   27  H13 UNL     1      23.751   6.719  52.772  1.00  0.00     0.209 HD
ENDBRANCH  25  26
ENDBRANCH  24  25
ENDBRANCH  22  24
ENDBRANCH   2  22
TORSDOF 7
ENDMDL
MODEL 5
REMARK VINA RESULT:      -8.0      2.379      5.816
REMARK  7 active torsions:
REMARK  status: ('A' for Active; 'I' for Inactive)
REMARK    1  A    between atoms: N1_2  and  C1_3 
REMARK    2  A    between atoms: C6_8  and  C7_9 
REMARK    3  A    between atoms: C7_9  and  C11_15 
REMARK    4  A    between atoms: C8_10  and  N2_11 
REMARK    5  A    between atoms: N2_11  and  C9_12 
REMARK    6  A    between atoms: C9_12  and  C10_13 
REMARK    7  A    between atoms: C10_13  and  O2_14 
ROOT
HETATM    1  C7  UNL     1      24.046   0.775  53.214  1.00  0.00     0.019 C 
HETATM    2  C8  UNL     1      23.018   0.040  53.506  1.00  0.00     0.097 C 
ENDROOT
BRANCH   1   3
HETATM    3  C6  UNL     1      23.753   1.871  52.306  1.00  0.00    -0.022 A 
HETATM    4  C5  UNL     1      23.506   1.690  50.964  1.00  0.00     0.020 A 
HETATM    5  C4  UNL     1      23.224   2.691  50.058  1.00  0.00    -0.049 A 
HETATM    6  C3  UNL     1      22.934   2.741  48.602  1.00  0.00     0.042 C 
HETATM    7  C19 UNL     1      23.180   3.992  50.512  1.00  0.00    -0.025 A 
HETATM    8  C2  UNL     1      22.224   4.058  48.397  1.00  0.00     0.039 C 
HETATM    9  C1  UNL     1      22.874   4.938  49.438  1.00  0.00     0.172 C 
HETATM   10  C18 UNL     1      23.418   4.258  51.853  1.00  0.00     0.011 A 
HETATM   11  C17 UNL     1      23.693   3.193  52.686  1.00  0.00     0.013 A 
BRANCH   9  12
HETATM   12  N1  UNL     1      24.073   5.514  48.893  1.00  0.00    -0.131 NA
HETATM   13  O1  UNL     1      24.003   6.278  47.985  1.00  0.00    -0.066 OA
ENDBRANCH   9  12
ENDBRANCH   1   3
BRANCH   1  14
HETATM   14  C11 UNL     1      25.379   0.517  53.728  1.00  0.00     0.082 A 
HETATM   15  N3  UNL     1      25.928  -0.434  54.409  1.00  0.00    -0.245 NA
HETATM   16  C12 UNL     1      27.180   0.179  54.419  1.00  0.00     0.087 A 
HETATM   17  C13 UNL     1      28.484   0.075  54.842  1.00  0.00     0.148 A 
HETATM   18  C16 UNL     1      26.639   1.216  53.692  1.00  0.00     0.025 A 
HETATM   19  N4  UNL     1      29.334   1.093  54.517  1.00  0.00    -0.271 NA
HETATM   20  C14 UNL     1      28.873   2.156  53.799  1.00  0.00     0.117 A 
HETATM   21  C15 UNL     1      27.533   2.198  53.400  1.00  0.00     0.035 A 
ENDBRANCH   1  14
BRANCH   2  22
HETATM   22  N2  UNL     1      22.878  -1.101  54.336  1.00  0.00    -0.396 N 
HETATM   23  H8  UNL     1      23.637  -1.731  54.719  1.00  0.00     0.158 HD
BRANCH  22  24
HETATM   24  C9  UNL     1      21.478  -1.356  54.650  1.00  0.00     0.145 C 
BRANCH  24  25
HETATM   25  C10 UNL     1      20.613  -0.577  53.674  1.00  0.00     0.183 C 
BRANCH  25  26
HETATM   26  O2  UNL     1      19.268  -0.822  53.896  1.00  0.00    -0.399 OA
HETATM   27  H13 UNL     1      18.696  -0.557  53.136  1.00  0.00     0.209 HD
ENDBRANCH  25  26
ENDBRANCH  24  25
ENDBRANCH  22  24
ENDBRANCH   2  22
TORSDOF 7
ENDMDL
MODEL 6
REMARK VINA RESULT:      -7.9      2.851      7.648
REMARK  7 active torsions:
REMARK  status: ('A' for Active; 'I' for Inactive)
REMARK    1  A    between atoms: N1_2  and  C1_3 
REMARK    2  A    between atoms: C6_8  and  C7_9 
REMARK    3  A    between atoms: C7_9  and  C11_15 
REMARK    4  A    between atoms: C8_10  and  N2_11 
REMARK    5  A    between atoms: N2_11  and  C9_12 
REMARK    6  A    between atoms: C9_12  and  C10_13 
REMARK    7  A    between atoms: C10_13  and  O2_14 
ROOT
HETATM    1  C7  UNL     1      23.214   1.328  51.935  1.00  0.00     0.019 C 
HETATM    2  C8  UNL     1      22.525   0.475  52.628  1.00  0.00     0.097 C 
ENDROOT
BRANCH   1   3
HETATM    3  C6  UNL     1      24.626   1.368  52.275  1.00  0.00    -0.022 A 
HETATM    4  C5  UNL     1      25.151   0.736  53.379  1.00  0.00     0.020 A 
HETATM    5  C4  UNL     1      26.479   0.740  53.750  1.00  0.00    -0.049 A 
HETATM    6  C3  UNL     1      27.262   0.151  54.867  1.00  0.00     0.042 C 
HETATM    7  C19 UNL     1      27.377   1.430  52.963  1.00  0.00    -0.025 A 
HETATM    8  C2  UNL     1      28.685   0.118  54.364  1.00  0.00     0.039 C 
HETATM    9  C1  UNL     1      28.742   1.345  53.485  1.00  0.00     0.172 C 
HETATM   10  C18 UNL     1      26.926   2.094  51.832  1.00  0.00     0.011 A 
HETATM   11  C17 UNL     1      25.579   2.036  51.538  1.00  0.00     0.013 A 
BRANCH   9  12
HETATM   12  N1  UNL     1      29.065   2.493  54.288  1.00  0.00    -0.131 NA
HETATM   13  O1  UNL     1      29.816   2.382  55.203  1.00  0.00    -0.066 OA
ENDBRANCH   9  12
ENDBRANCH   1   3
BRANCH   1  14
HETATM   14  C11 UNL     1      22.626   2.187  50.921  1.00  0.00     0.082 A 
HETATM   15  N3  UNL     1      22.383   2.075  49.657  1.00  0.00    -0.245 NA
HETATM   16  C12 UNL     1      21.834   3.352  49.562  1.00  0.00     0.087 A 
HETATM   17  C13 UNL     1      21.261   4.275  48.718  1.00  0.00     0.148 A 
HETATM   18  C16 UNL     1      22.074   3.518  50.908  1.00  0.00     0.025 A 
HETATM   19  N4  UNL     1      20.891   5.475  49.254  1.00  0.00    -0.271 NA
HETATM   20  C14 UNL     1      21.097   5.714  50.580  1.00  0.00     0.117 A 
HETATM   21  C15 UNL     1      21.685   4.731  51.383  1.00  0.00     0.035 A 
ENDBRANCH   1  14
BRANCH   2  22
HETATM   22  N2  UNL     1      21.150   0.134  52.607  1.00  0.00    -0.396 N 
HETATM   23  H8  UNL     1      20.410   0.431  51.911  1.00  0.00     0.158 HD
BRANCH  22  24
HETATM   24  C9  UNL     1      20.807  -0.740  53.721  1.00  0.00     0.145 C 
BRANCH  24  25
HETATM   25  C10 UNL     1      22.023  -0.877  54.622  1.00  0.00     0.183 C 
BRANCH  25  26
HETATM   26  O2  UNL     1      22.015  -2.092  55.288  1.00  0.00    -0.399 OA
HETATM   27  H13 UNL     1      22.897  -2.335  55.659  1.00  0.00     0.209 HD
ENDBRANCH  25  26
ENDBRANCH  24  25
ENDBRANCH  22  24
ENDBRANCH   2  22
TORSDOF 7
ENDMDL
MODEL 7
REMARK VINA RESULT:      -7.9      2.259      6.054
REMARK  7 active torsions:
REMARK  status: ('A' for Active; 'I' for Inactive)
REMARK    1  A    between atoms: N1_2  and  C1_3 
REMARK    2  A    between atoms: C6_8  and  C7_9 
REMARK    3  A    between atoms: C7_9  and  C11_15 
REMARK    4  A    between atoms: C8_10  and  N2_11 
REMARK    5  A    between atoms: N2_11  and  C9_12 
REMARK    6  A    between atoms: C9_12  and  C10_13 
REMARK    7  A    between atoms: C10_13  and  O2_14 
ROOT
HETATM    1  C7  UNL     1      24.716   1.612  52.948  1.00  0.00     0.019 C 
HETATM    2  C8  UNL     1      23.620   0.923  53.028  1.00  0.00     0.097 C 
ENDROOT
BRANCH   1   3
HETATM    3  C6  UNL     1      24.585   2.853  52.203  1.00  0.00    -0.022 A 
HETATM    4  C5  UNL     1      25.350   3.151  51.099  1.00  0.00     0.020 A 
HETATM    5  C4  UNL     1      25.269   4.310  50.356  1.00  0.00    -0.049 A 
HETATM    6  C3  UNL     1      25.970   4.845  49.160  1.00  0.00     0.042 C 
HETATM    7  C19 UNL     1      24.349   5.267  50.732  1.00  0.00    -0.025 A 
HETATM    8  C2  UNL     1      25.036   5.893  48.603  1.00  0.00     0.039 C 
HETATM    9  C1  UNL     1      24.384   6.437  49.853  1.00  0.00     0.172 C 
HETATM   10  C18 UNL     1      23.540   5.041  51.835  1.00  0.00     0.011 A 
HETATM   11  C17 UNL     1      23.691   3.852  52.519  1.00  0.00     0.013 A 
BRANCH   9  12
HETATM   12  N1  UNL     1      25.205   7.479  50.405  1.00  0.00    -0.131 NA
HETATM   13  O1  UNL     1      24.783   8.588  50.479  1.00  0.00    -0.066 OA
ENDBRANCH   9  12
ENDBRANCH   1   3
BRANCH   1  14
HETATM   14  C11 UNL     1      25.973   1.176  53.530  1.00  0.00     0.082 A 
HETATM   15  N3  UNL     1      26.748   1.615  54.466  1.00  0.00    -0.245 NA
HETATM   16  C12 UNL     1      27.668   0.579  54.308  1.00  0.00     0.087 A 
HETATM   17  C13 UNL     1      28.854   0.045  54.754  1.00  0.00     0.148 A 
HETATM   18  C16 UNL     1      26.874   0.073  53.303  1.00  0.00     0.025 A 
HETATM   19  N4  UNL     1      29.297  -1.096  54.150  1.00  0.00    -0.271 NA
HETATM   20  C14 UNL     1      28.566  -1.658  53.147  1.00  0.00     0.117 A 
HETATM   21  C15 UNL     1      27.367  -1.062  52.741  1.00  0.00     0.035 A 
ENDBRANCH   1  14
BRANCH   2  22
HETATM   22  N2  UNL     1      23.328  -0.316  53.652  1.00  0.00    -0.396 N 
HETATM   23  H8  UNL     1      23.979  -1.130  53.832  1.00  0.00     0.158 HD
BRANCH  22  24
HETATM   24  C9  UNL     1      21.932  -0.381  54.064  1.00  0.00     0.145 C 
BRANCH  24  25
HETATM   25  C10 UNL     1      21.698  -1.700  54.780  1.00  0.00     0.183 C 
BRANCH  25  26
HETATM   26  O2  UNL     1      22.705  -1.954  55.697  1.00  0.00    -0.399 OA
HETATM   27  H13 UNL     1      22.379  -2.404  56.514  1.00  0.00     0.209 HD
ENDBRANCH  25  26
ENDBRANCH  24  25
ENDBRANCH  22  24
ENDBRANCH   2  22
TORSDOF 7
ENDMDL
MODEL 8
REMARK VINA RESULT:      -7.9      1.834      1.938
REMARK  7 active torsions:
REMARK  status: ('A' for Active; 'I' for Inactive)
REMARK    1  A    between atoms: N1_2  and  C1_3 
REMARK    2  A    between atoms: C6_8  and  C7_9 
REMARK    3  A    between atoms: C7_9  and  C11_15 
REMARK    4  A    between atoms: C8_10  and  N2_11 
REMARK    5  A    between atoms: N2_11  and  C9_12 
REMARK    6  A    between atoms: C9_12  and  C10_13 
REMARK    7  A    between atoms: C10_13  and  O2_14 
ROOT
HETATM    1  C7  UNL     1      25.605   2.785  51.213  1.00  0.00     0.019 C 
HETATM    2  C8  UNL     1      25.879   3.633  50.271  1.00  0.00     0.097 C 
ENDROOT
BRANCH   1   3
HETATM    3  C6  UNL     1      24.190   2.691  51.533  1.00  0.00    -0.022 A 
HETATM    4  C5  UNL     1      23.433   1.573  51.266  1.00  0.00     0.020 A 
HETATM    5  C4  UNL     1      22.091   1.427  51.547  1.00  0.00    -0.049 A 
HETATM    6  C3  UNL     1      21.086   0.350  51.356  1.00  0.00     0.042 C 
HETATM    7  C19 UNL     1      21.429   2.479  52.146  1.00  0.00    -0.025 A 
HETATM    8  C2  UNL     1      19.989   0.667  52.344  1.00  0.00     0.039 C 
HETATM    9  C1  UNL     1      20.015   2.177  52.377  1.00  0.00     0.172 C 
HETATM   10  C18 UNL     1      22.123   3.641  52.447  1.00  0.00     0.011 A 
HETATM   11  C17 UNL     1      23.465   3.697  52.130  1.00  0.00     0.013 A 
BRANCH   9  12
HETATM   12  N1  UNL     1      19.193   2.692  51.316  1.00  0.00    -0.131 NA
HETATM   13  O1  UNL     1      18.704   3.771  51.418  1.00  0.00    -0.066 OA
ENDBRANCH   9  12
ENDBRANCH   1   3
BRANCH   1  14
HETATM   14  C11 UNL     1      26.619   2.011  51.906  1.00  0.00     0.082 A 
HETATM   15  N3  UNL     1      27.752   2.282  52.465  1.00  0.00    -0.245 NA
HETATM   16  C12 UNL     1      27.982   0.958  52.838  1.00  0.00     0.087 A 
HETATM   17  C13 UNL     1      28.851   0.097  53.466  1.00  0.00     0.148 A 
HETATM   18  C16 UNL     1      26.781   0.622  52.254  1.00  0.00     0.025 A 
HETATM   19  N4  UNL     1      28.500  -1.222  53.522  1.00  0.00    -0.271 NA
HETATM   20  C14 UNL     1      27.326  -1.632  52.966  1.00  0.00     0.117 A 
HETATM   21  C15 UNL     1      26.487  -0.703  52.341  1.00  0.00     0.035 A 
ENDBRANCH   1  14
BRANCH   2  22
HETATM   22  N2  UNL     1      27.107   4.016  49.674  1.00  0.00    -0.396 N 
HETATM   23  H8  UNL     1      28.053   3.548  49.759  1.00  0.00     0.158 HD
BRANCH  22  24
HETATM   24  C9  UNL     1      26.945   5.212  48.858  1.00  0.00     0.145 C 
BRANCH  24  25
HETATM   25  C10 UNL     1      25.986   6.155  49.563  1.00  0.00     0.183 C 
BRANCH  25  26
HETATM   26  O2  UNL     1      26.639   7.296  49.999  1.00  0.00    -0.399 OA
HETATM   27  H13 UNL     1      26.162   7.760  50.729  1.00  0.00     0.209 HD
ENDBRANCH  25  26
ENDBRANCH  24  25
ENDBRANCH  22  24
ENDBRANCH   2  22
TORSDOF 7
ENDMDL
MODEL 9
REMARK VINA RESULT:      -7.7      2.781      6.454
REMARK  7 active torsions:
REMARK  status: ('A' for Active; 'I' for Inactive)
REMARK    1  A    between atoms: N1_2  and  C1_3 
REMARK    2  A    between atoms: C6_8  and  C7_9 
REMARK    3  A    between atoms: C7_9  and  C11_15 
REMARK    4  A    between atoms: C8_10  and  N2_11 
REMARK    5  A    between atoms: N2_11  and  C9_12 
REMARK    6  A    between atoms: C9_12  and  C10_13 
REMARK    7  A    between atoms: C10_13  and  O2_14 
ROOT
HETATM    1  C7  UNL     1      23.052   1.900  51.340  1.00  0.00     0.019 C 
HETATM    2  C8  UNL     1      22.884   2.679  50.317  1.00  0.00     0.097 C 
ENDROOT
BRANCH   1   3
HETATM    3  C6  UNL     1      24.429   1.807  51.796  1.00  0.00    -0.022 A 
HETATM    4  C5  UNL     1      24.798   1.130  52.936  1.00  0.00     0.020 A 
HETATM    5  C4  UNL     1      26.085   1.010  53.416  1.00  0.00    -0.049 A 
HETATM    6  C3  UNL     1      26.714   0.352  54.590  1.00  0.00     0.042 C 
HETATM    7  C19 UNL     1      27.106   1.611  52.710  1.00  0.00    -0.025 A 
HETATM    8  C2  UNL     1      28.165   0.184  54.207  1.00  0.00     0.039 C 
HETATM    9  C1  UNL     1      28.409   1.399  53.343  1.00  0.00     0.172 C 
HETATM   10  C18 UNL     1      26.815   2.313  51.550  1.00  0.00     0.011 A 
HETATM   11  C17 UNL     1      25.498   2.381  51.145  1.00  0.00     0.013 A 
BRANCH   9  12
HETATM   12  N1  UNL     1      28.771   2.513  54.177  1.00  0.00    -0.131 NA
HETATM   13  O1  UNL     1      29.625   2.387  54.994  1.00  0.00    -0.066 OA
ENDBRANCH   9  12
ENDBRANCH   1   3
BRANCH   1  14
HETATM   14  C11 UNL     1      21.967   1.166  51.966  1.00  0.00     0.082 A 
HETATM   15  N3  UNL     1      20.681   1.284  51.996  1.00  0.00    -0.245 NA
HETATM   16  C12 UNL     1      20.511   0.169  52.815  1.00  0.00     0.087 A 
HETATM   17  C13 UNL     1      19.596  -0.623  53.469  1.00  0.00     0.148 A 
HETATM   18  C16 UNL     1      21.878   0.002  52.813  1.00  0.00     0.025 A 
HETATM   19  N4  UNL     1      20.078  -1.678  54.190  1.00  0.00    -0.271 NA
HETATM   20  C14 UNL     1      21.420  -1.908  54.236  1.00  0.00     0.117 A 
HETATM   21  C15 UNL     1      22.296  -1.063  53.546  1.00  0.00     0.035 A 
ENDBRANCH   1  14
BRANCH   2  22
HETATM   22  N2  UNL     1      21.725   3.036  49.582  1.00  0.00    -0.396 N 
HETATM   23  H8  UNL     1      21.090   3.871  49.722  1.00  0.00     0.158 HD
BRANCH  22  24
HETATM   24  C9  UNL     1      21.455   2.073  48.523  1.00  0.00     0.145 C 
BRANCH  24  25
HETATM   25  C10 UNL     1      22.497   2.248  47.431  1.00  0.00     0.183 C 
BRANCH  25  26
HETATM   26  O2  UNL     1      22.081   3.175  46.490  1.00  0.00    -0.399 OA
HETATM   27  H13 UNL     1      21.845   4.049  46.885  1.00  0.00     0.209 HD
ENDBRANCH  25  26
ENDBRANCH  24  25
ENDBRANCH  22  24
ENDBRANCH   2  22
TORSDOF 7
ENDMDL
