MODEL 1
REMARK VINA RESULT:      -8.8      0.000      0.000
REMARK  5 active torsions:
REMARK  status: ('A' for Active; 'I' for Inactive)
REMARK    1  A    between atoms: C2_2  and  C3_3 
REMARK    2  A    between atoms: C3_3  and  C4_4 
REMARK    3  A    between atoms: C4_4  and  N1_5 
REMARK    4  A    between atoms: C11_13  and  N3_14 
REMARK    5  A    between atoms: N3_14  and  C12_15 
ROOT
HETATM    1  N1  UNL     1      18.639   0.071  52.317  1.00  0.00    -0.379 N 
HETATM    2  C5  UNL     1      17.874   1.038  51.512  1.00  0.00     0.124 C 
HETATM    3  C6  UNL     1      18.774   2.000  50.810  1.00  0.00     0.039 C 
HETATM    4  C7  UNL     1      19.665   1.412  49.769  1.00  0.00     0.121 C 
HETATM    5  N2  UNL     1      20.945   1.113  50.432  1.00  0.00    -0.388 N 
HETATM    6  C8  UNL     1      21.054   0.470  51.707  1.00  0.00     0.056 A 
HETATM    7  C9  UNL     1      22.351   0.298  52.136  1.00  0.00     0.049 A 
HETATM    8  C10 UNL     1      22.747  -0.287  53.316  1.00  0.00     0.041 A 
HETATM    9  C11 UNL     1      24.058  -0.441  53.708  1.00  0.00     0.142 A 
HETATM   10  N4  UNL     1      24.207  -1.039  54.893  1.00  0.00    -0.224 NA
HETATM   11  C18 UNL     1      23.242  -1.477  55.687  1.00  0.00     0.236 A 
HETATM   12  N5  UNL     1      21.950  -1.314  55.276  1.00  0.00    -0.241 NA
HETATM   13  C19 UNL     1      21.688  -0.717  54.086  1.00  0.00     0.074 A 
HETATM   14  C20 UNL     1      20.365  -0.583  53.729  1.00  0.00     0.064 A 
HETATM   15  C21 UNL     1      20.044   0.014  52.530  1.00  0.00     0.059 A 
HETATM   16  H16 UNL     1      21.852   1.367  49.982  1.00  0.00     0.159 HD
ENDROOT
BRANCH   9  17
HETATM   17  N3  UNL     1      25.093   0.032  52.873  1.00  0.00    -0.340 N 
HETATM   18  H18 UNL     1      24.905   0.529  52.003  1.00  0.00     0.167 HD
BRANCH  17  19
HETATM   19  C12 UNL     1      26.489  -0.092  53.077  1.00  0.00     0.035 A 
HETATM   20  C13 UNL     1      27.181  -1.251  52.846  1.00  0.00     0.032 A 
HETATM   21  C14 UNL     1      28.534  -1.402  53.045  1.00  0.00     0.046 A 
HETATM   22  C15 UNL     1      29.283  -0.355  53.504  1.00  0.00     0.138 A 
HETATM   23  F1  UNL     1      30.614  -0.424  53.725  1.00  0.00    -0.204 F 
HETATM   24  C16 UNL     1      28.643   0.837  53.755  1.00  0.00     0.074 A 
HETATM   25 CL1  UNL     1      29.531   2.225  54.344  1.00  0.00    -0.081 Cl
HETATM   26  C17 UNL     1      27.297   0.919  53.536  1.00  0.00     0.056 A 
ENDBRANCH  17  19
ENDBRANCH   9  17
BRANCH   1  27
HETATM   27  C4  UNL     1      17.869  -0.951  52.974  1.00  0.00     0.123 C 
BRANCH  27  28
HETATM   28  C3  UNL     1      16.410  -0.943  52.722  1.00  0.00     0.019 C 
BRANCH  28  29
HETATM   29  C2  UNL     1      15.937  -2.301  52.180  1.00  0.00    -0.003 C 
HETATM   30  C1  UNL     1      16.226  -3.400  53.164  1.00  0.00     0.005 C 
ENDBRANCH  28  29
ENDBRANCH  27  28
ENDBRANCH   1  27
TORSDOF 5
ENDMDL
MODEL 2
REMARK VINA RESULT:      -8.6      4.974      7.111
REMARK  5 active torsions:
REMARK  status: ('A' for Active; 'I' for Inactive)
REMARK    1  A    between atoms: C2_2  and  C3_3 
REMARK    2  A    between atoms: C3_3  and  C4_4 
REMARK    3  A    between atoms: C4_4  and  N1_5 
REMARK    4  A    between atoms: C11_13  and  N3_14 
REMARK    5  A    between atoms: N3_14  and  C12_15 
ROOT
HETATM    1  N1  UNL     1      24.260  -0.087  53.068  1.00  0.00    -0.379 N 
HETATM    2  C5  UNL     1      25.565  -0.761  53.163  1.00  0.00     0.124 C 
HETATM    3  C6  UNL     1      26.692   0.197  52.966  1.00  0.00     0.039 C 
HETATM    4  C7  UNL     1      26.842   1.247  54.013  1.00  0.00     0.121 C 
HETATM    5  N2  UNL     1      26.107   2.428  53.532  1.00  0.00    -0.388 N 
HETATM    6  C8  UNL     1      24.796   2.375  52.959  1.00  0.00     0.056 A 
HETATM    7  C9  UNL     1      24.307   3.603  52.572  1.00  0.00     0.049 A 
HETATM    8  C10 UNL     1      23.081   3.846  51.996  1.00  0.00     0.041 A 
HETATM    9  C11 UNL     1      22.628   5.092  51.624  1.00  0.00     0.142 A 
HETATM   10  N4  UNL     1      21.406   5.090  51.085  1.00  0.00    -0.224 NA
HETATM   11  C18 UNL     1      20.628   4.036  50.888  1.00  0.00     0.236 A 
HETATM   12  N5  UNL     1      21.099   2.812  51.267  1.00  0.00    -0.241 NA
HETATM   13  C19 UNL     1      22.331   2.703  51.825  1.00  0.00     0.074 A 
HETATM   14  C20 UNL     1      22.747   1.441  52.184  1.00  0.00     0.064 A 
HETATM   15  C21 UNL     1      23.989   1.274  52.757  1.00  0.00     0.059 A 
HETATM   16  H16 UNL     1      26.529   3.381  53.593  1.00  0.00     0.159 HD
ENDROOT
BRANCH   9  17
HETATM   17  N3  UNL     1      23.455   6.219  51.821  1.00  0.00    -0.340 N 
HETATM   18  H18 UNL     1      23.502   6.709  52.714  1.00  0.00     0.167 HD
BRANCH  17  19
HETATM   19  C12 UNL     1      24.311   6.834  50.876  1.00  0.00     0.035 A 
HETATM   20  C13 UNL     1      24.220   8.157  50.531  1.00  0.00     0.032 A 
HETATM   21  C14 UNL     1      25.032   8.778  49.609  1.00  0.00     0.046 A 
HETATM   22  C15 UNL     1      26.009   8.071  48.966  1.00  0.00     0.138 A 
HETATM   23  F1  UNL     1      26.844   8.607  48.049  1.00  0.00    -0.204 F 
HETATM   24  C16 UNL     1      26.148   6.736  49.271  1.00  0.00     0.074 A 
HETATM   25 CL1  UNL     1      27.375   5.762  48.490  1.00  0.00    -0.081 Cl
HETATM   26  C17 UNL     1      25.310   6.183  50.195  1.00  0.00     0.056 A 
ENDBRANCH  17  19
ENDBRANCH   9  17
BRANCH   1  27
HETATM   27  C4  UNL     1      23.105  -0.908  53.320  1.00  0.00     0.123 C 
BRANCH  27  28
HETATM   28  C3  UNL     1      22.691  -1.044  54.736  1.00  0.00     0.019 C 
BRANCH  28  29
HETATM   29  C2  UNL     1      21.262  -0.517  54.944  1.00  0.00    -0.003 C 
HETATM   30  C1  UNL     1      20.383  -0.884  53.781  1.00  0.00     0.005 C 
ENDBRANCH  28  29
ENDBRANCH  27  28
ENDBRANCH   1  27
TORSDOF 5
ENDMDL
MODEL 3
REMARK VINA RESULT:      -8.5      4.697      6.816
REMARK  5 active torsions:
REMARK  status: ('A' for Active; 'I' for Inactive)
REMARK    1  A    between atoms: C2_2  and  C3_3 
REMARK    2  A    between atoms: C3_3  and  C4_4 
REMARK    3  A    between atoms: C4_4  and  N1_5 
REMARK    4  A    between atoms: C11_13  and  N3_14 
REMARK    5  A    between atoms: N3_14  and  C12_15 
ROOT
HETATM    1  N1  UNL     1      24.245  -0.220  53.251  1.00  0.00    -0.379 N 
HETATM    2  C5  UNL     1      25.363  -0.891  53.934  1.00  0.00     0.124 C 
HETATM    3  C6  UNL     1      26.615  -0.083  53.859  1.00  0.00     0.039 C 
HETATM    4  C7  UNL     1      26.588   1.222  54.580  1.00  0.00     0.121 C 
HETATM    5  N2  UNL     1      26.191   2.239  53.594  1.00  0.00    -0.388 N 
HETATM    6  C8  UNL     1      25.110   2.076  52.669  1.00  0.00     0.056 A 
HETATM    7  C9  UNL     1      24.924   3.156  51.833  1.00  0.00     0.049 A 
HETATM    8  C10 UNL     1      23.965   3.270  50.854  1.00  0.00     0.041 A 
HETATM    9  C11 UNL     1      23.810   4.369  50.039  1.00  0.00     0.142 A 
HETATM   10  N4  UNL     1      22.811   4.261  49.159  1.00  0.00    -0.224 NA
HETATM   11  C18 UNL     1      21.992   3.230  49.012  1.00  0.00     0.236 A 
HETATM   12  N5  UNL     1      22.165   2.152  49.833  1.00  0.00    -0.241 NA
HETATM   13  C19 UNL     1      23.153   2.160  50.763  1.00  0.00     0.074 A 
HETATM   14  C20 UNL     1      23.274   1.043  51.558  1.00  0.00     0.064 A 
HETATM   15  C21 UNL     1      24.259   0.999  52.520  1.00  0.00     0.059 A 
HETATM   16  H16 UNL     1      26.698   3.149  53.530  1.00  0.00     0.159 HD
ENDROOT
BRANCH   9  17
HETATM   17  N3  UNL     1      24.685   5.468  50.182  1.00  0.00    -0.340 N 
HETATM   18  H18 UNL     1      24.504   6.224  50.842  1.00  0.00     0.167 HD
BRANCH  17  19
HETATM   19  C12 UNL     1      25.891   5.705  49.480  1.00  0.00     0.035 A 
HETATM   20  C13 UNL     1      26.780   4.714  49.160  1.00  0.00     0.032 A 
HETATM   21  C14 UNL     1      27.964   4.918  48.487  1.00  0.00     0.046 A 
HETATM   22  C15 UNL     1      28.321   6.176  48.091  1.00  0.00     0.138 A 
HETATM   23  F1  UNL     1      29.465   6.457  47.427  1.00  0.00    -0.204 F 
HETATM   24  C16 UNL     1      27.467   7.214  48.384  1.00  0.00     0.074 A 
HETATM   25 CL1  UNL     1      27.854   8.854  47.912  1.00  0.00    -0.081 Cl
HETATM   26  C17 UNL     1      26.309   6.942  49.054  1.00  0.00     0.056 A 
ENDBRANCH  17  19
ENDBRANCH   9  17
BRANCH   1  27
HETATM   27  C4  UNL     1      22.968  -0.880  53.331  1.00  0.00     0.123 C 
BRANCH  27  28
HETATM   28  C3  UNL     1      22.273  -0.814  54.636  1.00  0.00     0.019 C 
BRANCH  28  29
HETATM   29  C2  UNL     1      21.051   0.116  54.562  1.00  0.00    -0.003 C 
HETATM   30  C1  UNL     1      20.042  -0.405  53.577  1.00  0.00     0.005 C 
ENDBRANCH  28  29
ENDBRANCH  27  28
ENDBRANCH   1  27
TORSDOF 5
ENDMDL
MODEL 4
REMARK VINA RESULT:      -8.4      5.448      7.638
REMARK  5 active torsions:
REMARK  status: ('A' for Active; 'I' for Inactive)
REMARK    1  A    between atoms: C2_2  and  C3_3 
REMARK    2  A    between atoms: C3_3  and  C4_4 
REMARK    3  A    between atoms: C4_4  and  N1_5 
REMARK    4  A    between atoms: C11_13  and  N3_14 
REMARK    5  A    between atoms: N3_14  and  C12_15 
ROOT
HETATM    1  N1  UNL     1      24.655   0.220  52.907  1.00  0.00    -0.379 N 
HETATM    2  C5  UNL     1      25.554  -0.866  53.330  1.00  0.00     0.124 C 
HETATM    3  C6  UNL     1      26.918  -0.707  52.744  1.00  0.00     0.039 C 
HETATM    4  C7  UNL     1      27.685   0.486  53.203  1.00  0.00     0.121 C 
HETATM    5  N2  UNL     1      27.431   1.552  52.221  1.00  0.00    -0.388 N 
HETATM    6  C8  UNL     1      26.134   1.871  51.704  1.00  0.00     0.056 A 
HETATM    7  C9  UNL     1      26.136   2.901  50.790  1.00  0.00     0.049 A 
HETATM    8  C10 UNL     1      25.038   3.413  50.138  1.00  0.00     0.041 A 
HETATM    9  C11 UNL     1      25.082   4.446  49.230  1.00  0.00     0.142 A 
HETATM   10  N4  UNL     1      23.893   4.780  48.723  1.00  0.00    -0.224 NA
HETATM   11  C18 UNL     1      22.725   4.222  49.008  1.00  0.00     0.236 A 
HETATM   12  N5  UNL     1      22.707   3.199  49.912  1.00  0.00    -0.241 NA
HETATM   13  C19 UNL     1      23.863   2.783  50.488  1.00  0.00     0.074 A 
HETATM   14  C20 UNL     1      23.777   1.748  51.391  1.00  0.00     0.064 A 
HETATM   15  C21 UNL     1      24.920   1.288  52.006  1.00  0.00     0.059 A 
HETATM   16  H16 UNL     1      28.214   2.136  51.852  1.00  0.00     0.159 HD
ENDROOT
BRANCH   9  17
HETATM   17  N3  UNL     1      26.324   5.039  48.912  1.00  0.00    -0.340 N 
HETATM   18  H18 UNL     1      27.087   4.509  48.493  1.00  0.00     0.167 HD
BRANCH  17  19
HETATM   19  C12 UNL     1      26.709   6.388  49.108  1.00  0.00     0.035 A 
HETATM   20  C13 UNL     1      26.055   7.239  49.959  1.00  0.00     0.032 A 
HETATM   21  C14 UNL     1      26.402   8.556  50.160  1.00  0.00     0.046 A 
HETATM   22  C15 UNL     1      27.461   9.098  49.489  1.00  0.00     0.138 A 
HETATM   23  F1  UNL     1      27.863  10.380  49.631  1.00  0.00    -0.204 F 
HETATM   24  C16 UNL     1      28.158   8.291  48.619  1.00  0.00     0.074 A 
HETATM   25 CL1  UNL     1      29.527   8.911  47.722  1.00  0.00    -0.081 Cl
HETATM   26  C17 UNL     1      27.761   6.994  48.466  1.00  0.00     0.056 A 
ENDBRANCH  17  19
ENDBRANCH   9  17
BRANCH   1  27
HETATM   27  C4  UNL     1      23.334   0.205  53.479  1.00  0.00     0.123 C 
BRANCH  27  28
HETATM   28  C3  UNL     1      23.035  -0.900  54.418  1.00  0.00     0.019 C 
BRANCH  28  29
HETATM   29  C2  UNL     1      21.518  -1.085  54.586  1.00  0.00    -0.003 C 
HETATM   30  C1  UNL     1      20.797   0.221  54.398  1.00  0.00     0.005 C 
ENDBRANCH  28  29
ENDBRANCH  27  28
ENDBRANCH   1  27
TORSDOF 5
ENDMDL
MODEL 5
REMARK VINA RESULT:      -8.3      4.352      8.651
REMARK  5 active torsions:
REMARK  status: ('A' for Active; 'I' for Inactive)
REMARK    1  A    between atoms: C2_2  and  C3_3 
REMARK    2  A    between atoms: C3_3  and  C4_4 
REMARK    3  A    between atoms: C4_4  and  N1_5 
REMARK    4  A    between atoms: C11_13  and  N3_14 
REMARK    5  A    between atoms: N3_14  and  C12_15 
ROOT
HETATM    1  N1  UNL     1      26.165   1.858  52.532  1.00  0.00    -0.379 N 
HETATM    2  C5  UNL     1      26.787   2.493  51.359  1.00  0.00     0.124 C 
HETATM    3  C6  UNL     1      25.790   2.738  50.276  1.00  0.00     0.039 C 
HETATM    4  C7  UNL     1      24.719   3.724  50.592  1.00  0.00     0.121 C 
HETATM    5  N2  UNL     1      23.574   2.952  51.103  1.00  0.00    -0.388 N 
HETATM    6  C8  UNL     1      23.686   1.901  52.069  1.00  0.00     0.056 A 
HETATM    7  C9  UNL     1      22.484   1.313  52.394  1.00  0.00     0.049 A 
HETATM    8  C10 UNL     1      22.297   0.284  53.289  1.00  0.00     0.041 A 
HETATM    9  C11 UNL     1      21.076  -0.276  53.588  1.00  0.00     0.142 A 
HETATM   10  N4  UNL     1      21.133  -1.262  54.487  1.00  0.00    -0.224 NA
HETATM   11  C18 UNL     1      22.218  -1.724  55.089  1.00  0.00     0.236 A 
HETATM   12  N5  UNL     1      23.418  -1.151  54.776  1.00  0.00    -0.241 NA
HETATM   13  C19 UNL     1      23.471  -0.141  53.872  1.00  0.00     0.074 A 
HETATM   14  C20 UNL     1      24.710   0.394  53.602  1.00  0.00     0.064 A 
HETATM   15  C21 UNL     1      24.821   1.424  52.693  1.00  0.00     0.059 A 
HETATM   16  H16 UNL     1      22.605   3.149  50.769  1.00  0.00     0.159 HD
ENDROOT
BRANCH   9  17
HETATM   17  N3  UNL     1      19.915   0.204  52.943  1.00  0.00    -0.340 N 
HETATM   18  H18 UNL     1      19.860   1.144  52.553  1.00  0.00     0.167 HD
BRANCH  17  19
HETATM   19  C12 UNL     1      18.696  -0.488  52.738  1.00  0.00     0.035 A 
HETATM   20  C13 UNL     1      17.678   0.000  51.963  1.00  0.00     0.032 A 
HETATM   21  C14 UNL     1      16.481  -0.646  51.755  1.00  0.00     0.046 A 
HETATM   22  C15 UNL     1      16.242  -1.857  52.340  1.00  0.00     0.138 A 
HETATM   23  F1  UNL     1      15.094  -2.553  52.185  1.00  0.00    -0.204 F 
HETATM   24  C16 UNL     1      17.229  -2.399  53.132  1.00  0.00     0.074 A 
HETATM   25 CL1  UNL     1      17.000  -3.946  53.916  1.00  0.00    -0.081 Cl
HETATM   26  C17 UNL     1      18.393  -1.705  53.296  1.00  0.00     0.056 A 
ENDBRANCH  17  19
ENDBRANCH   9  17
BRANCH   1  27
HETATM   27  C4  UNL     1      27.025   1.648  53.667  1.00  0.00     0.123 C 
BRANCH  27  28
HETATM   28  C3  UNL     1      28.440   2.051  53.504  1.00  0.00     0.019 C 
BRANCH  28  29
HETATM   29  C2  UNL     1      29.388   0.943  53.991  1.00  0.00    -0.003 C 
HETATM   30  C1  UNL     1      28.822  -0.415  53.686  1.00  0.00     0.005 C 
ENDBRANCH  28  29
ENDBRANCH  27  28
ENDBRANCH   1  27
TORSDOF 5
ENDMDL
MODEL 6
REMARK VINA RESULT:      -8.3      2.431      4.286
REMARK  5 active torsions:
REMARK  status: ('A' for Active; 'I' for Inactive)
REMARK    1  A    between atoms: C2_2  and  C3_3 
REMARK    2  A    between atoms: C3_3  and  C4_4 
REMARK    3  A    between atoms: C4_4  and  N1_5 
REMARK    4  A    between atoms: C11_13  and  N3_14 
REMARK    5  A    between atoms: N3_14  and  C12_15 
ROOT
HETATM    1  N1  UNL     1      20.292   1.312  51.118  1.00  0.00    -0.379 N 
HETATM    2  C5  UNL     1      19.448   0.251  51.691  1.00  0.00     0.124 C 
HETATM    3  C6  UNL     1      20.170  -0.511  52.752  1.00  0.00     0.039 C 
HETATM    4  C7  UNL     1      20.523   0.260  53.978  1.00  0.00     0.121 C 
HETATM    5  N2  UNL     1      21.892   0.761  53.780  1.00  0.00    -0.388 N 
HETATM    6  C8  UNL     1      22.353   1.371  52.570  1.00  0.00     0.056 A 
HETATM    7  C9  UNL     1      23.675   1.757  52.609  1.00  0.00     0.049 A 
HETATM    8  C10 UNL     1      24.375   2.365  51.592  1.00  0.00     0.041 A 
HETATM    9  C11 UNL     1      25.698   2.737  51.672  1.00  0.00     0.142 A 
HETATM   10  N4  UNL     1      26.171   3.314  50.563  1.00  0.00    -0.224 NA
HETATM   11  C18 UNL     1      25.502   3.546  49.443  1.00  0.00     0.236 A 
HETATM   12  N5  UNL     1      24.191   3.168  49.389  1.00  0.00    -0.241 NA
HETATM   13  C19 UNL     1      23.613   2.573  50.463  1.00  0.00     0.074 A 
HETATM   14  C20 UNL     1      22.288   2.217  50.345  1.00  0.00     0.064 A 
HETATM   15  C21 UNL     1      21.652   1.612  51.406  1.00  0.00     0.059 A 
HETATM   16  H16 UNL     1      22.603   0.688  54.542  1.00  0.00     0.159 HD
ENDROOT
BRANCH   9  17
HETATM   17  N3  UNL     1      26.421   2.484  52.857  1.00  0.00    -0.340 N 
HETATM   18  H18 UNL     1      26.342   3.081  53.680  1.00  0.00     0.167 HD
BRANCH  17  19
HETATM   19  C12 UNL     1      27.330   1.427  53.102  1.00  0.00     0.035 A 
HETATM   20  C13 UNL     1      28.576   1.617  53.638  1.00  0.00     0.032 A 
HETATM   21  C14 UNL     1      29.482   0.608  53.877  1.00  0.00     0.046 A 
HETATM   22  C15 UNL     1      29.166  -0.686  53.576  1.00  0.00     0.138 A 
HETATM   23  F1  UNL     1      29.999  -1.730  53.781  1.00  0.00    -0.204 F 
HETATM   24  C16 UNL     1      27.926  -0.940  53.035  1.00  0.00     0.074 A 
HETATM   25 CL1  UNL     1      27.445  -2.571  52.622  1.00  0.00    -0.081 Cl
HETATM   26  C17 UNL     1      27.075   0.106  52.823  1.00  0.00     0.056 A 
ENDBRANCH  17  19
ENDBRANCH   9  17
BRANCH   1  27
HETATM   27  C4  UNL     1      19.664   2.158  50.139  1.00  0.00     0.123 C 
BRANCH  27  28
HETATM   28  C3  UNL     1      18.210   1.963  49.934  1.00  0.00     0.019 C 
BRANCH  28  29
HETATM   29  C2  UNL     1      17.453   3.296  50.054  1.00  0.00    -0.003 C 
HETATM   30  C1  UNL     1      17.199   3.637  51.495  1.00  0.00     0.005 C 
ENDBRANCH  28  29
ENDBRANCH  27  28
ENDBRANCH   1  27
TORSDOF 5
ENDMDL
MODEL 7
REMARK VINA RESULT:      -8.1      4.172      8.368
REMARK  5 active torsions:
REMARK  status: ('A' for Active; 'I' for Inactive)
REMARK    1  A    between atoms: C2_2  and  C3_3 
REMARK    2  A    between atoms: C3_3  and  C4_4 
REMARK    3  A    between atoms: C4_4  and  N1_5 
REMARK    4  A    between atoms: C11_13  and  N3_14 
REMARK    5  A    between atoms: N3_14  and  C12_15 
ROOT
HETATM    1  N1  UNL     1      26.343   1.886  51.922  1.00  0.00    -0.379 N 
HETATM    2  C5  UNL     1      26.809   2.610  50.728  1.00  0.00     0.124 C 
HETATM    3  C6  UNL     1      25.666   3.132  49.923  1.00  0.00     0.039 C 
HETATM    4  C7  UNL     1      24.836   4.181  50.580  1.00  0.00     0.121 C 
HETATM    5  N2  UNL     1      23.713   3.484  51.228  1.00  0.00    -0.388 N 
HETATM    6  C8  UNL     1      23.855   2.294  52.012  1.00  0.00     0.056 A 
HETATM    7  C9  UNL     1      22.667   1.812  52.514  1.00  0.00     0.049 A 
HETATM    8  C10 UNL     1      22.510   0.691  53.296  1.00  0.00     0.041 A 
HETATM    9  C11 UNL     1      21.302   0.242  53.781  1.00  0.00     0.142 A 
HETATM   10  N4  UNL     1      21.388  -0.866  54.521  1.00  0.00    -0.224 NA
HETATM   11  C18 UNL     1      22.490  -1.540  54.814  1.00  0.00     0.236 A 
HETATM   12  N5  UNL     1      23.676  -1.075  54.322  1.00  0.00    -0.241 NA
HETATM   13  C19 UNL     1      23.699   0.046  53.558  1.00  0.00     0.074 A 
HETATM   14  C20 UNL     1      24.926   0.463  53.093  1.00  0.00     0.064 A 
HETATM   15  C21 UNL     1      25.007   1.596  52.315  1.00  0.00     0.059 A 
HETATM   16  H16 UNL     1      22.736   3.843  51.137  1.00  0.00     0.159 HD
ENDROOT
BRANCH   9  17
HETATM   17  N3  UNL     1      20.121   0.949  53.465  1.00  0.00    -0.340 N 
HETATM   18  H18 UNL     1      19.791   1.733  54.026  1.00  0.00     0.167 HD
BRANCH  17  19
HETATM   19  C12 UNL     1      19.239   0.710  52.384  1.00  0.00     0.035 A 
HETATM   20  C13 UNL     1      18.358  -0.339  52.351  1.00  0.00     0.032 A 
HETATM   21  C14 UNL     1      17.497  -0.599  51.310  1.00  0.00     0.046 A 
HETATM   22  C15 UNL     1      17.481   0.213  50.211  1.00  0.00     0.138 A 
HETATM   23  F1  UNL     1      16.667   0.024  49.149  1.00  0.00    -0.204 F 
HETATM   24  C16 UNL     1      18.345   1.284  50.185  1.00  0.00     0.074 A 
HETATM   25 CL1  UNL     1      18.386   2.370  48.814  1.00  0.00    -0.081 Cl
HETATM   26  C17 UNL     1      19.173   1.485  51.252  1.00  0.00     0.056 A 
ENDBRANCH  17  19
ENDBRANCH   9  17
BRANCH   1  27
HETATM   27  C4  UNL     1      27.368   1.407  52.810  1.00  0.00     0.123 C 
BRANCH  27  28
HETATM   28  C3  UNL     1      28.156   2.438  53.524  1.00  0.00     0.019 C 
BRANCH  28  29
HETATM   29  C2  UNL     1      29.272   1.796  54.363  1.00  0.00    -0.003 C 
HETATM   30  C1  UNL     1      29.281   0.303  54.187  1.00  0.00     0.005 C 
ENDBRANCH  28  29
ENDBRANCH  27  28
ENDBRANCH   1  27
TORSDOF 5
ENDMDL
MODEL 8
REMARK VINA RESULT:      -8.1      3.300      3.890
REMARK  5 active torsions:
REMARK  status: ('A' for Active; 'I' for Inactive)
REMARK    1  A    between atoms: C2_2  and  C3_3 
REMARK    2  A    between atoms: C3_3  and  C4_4 
REMARK    3  A    between atoms: C4_4  and  N1_5 
REMARK    4  A    between atoms: C11_13  and  N3_14 
REMARK    5  A    between atoms: N3_14  and  C12_15 
ROOT
HETATM    1  N1  UNL     1      18.077  -1.254  53.090  1.00  0.00    -0.379 N 
HETATM    2  C5  UNL     1      16.902  -0.580  52.515  1.00  0.00     0.124 C 
HETATM    3  C6  UNL     1      17.296   0.601  51.691  1.00  0.00     0.039 C 
HETATM    4  C7  UNL     1      18.078   0.299  50.458  1.00  0.00     0.121 C 
HETATM    5  N2  UNL     1      19.499   0.416  50.822  1.00  0.00    -0.388 N 
HETATM    6  C8  UNL     1      20.068  -0.144  52.010  1.00  0.00     0.056 A 
HETATM    7  C9  UNL     1      21.418   0.097  52.149  1.00  0.00     0.049 A 
HETATM    8  C10 UNL     1      22.216  -0.321  53.189  1.00  0.00     0.041 A 
HETATM    9  C11 UNL     1      23.564  -0.060  53.289  1.00  0.00     0.142 A 
HETATM   10  N4  UNL     1      24.138  -0.565  54.384  1.00  0.00    -0.224 NA
HETATM   11  C18 UNL     1      23.545  -1.267  55.339  1.00  0.00     0.236 A 
HETATM   12  N5  UNL     1      22.207  -1.513  55.216  1.00  0.00    -0.241 NA
HETATM   13  C19 UNL     1      21.528  -1.043  54.139  1.00  0.00     0.074 A 
HETATM   14  C20 UNL     1      20.182  -1.326  54.074  1.00  0.00     0.064 A 
HETATM   15  C21 UNL     1      19.445  -0.874  53.002  1.00  0.00     0.059 A 
HETATM   16  H16 UNL     1      20.168   0.929  50.206  1.00  0.00     0.159 HD
ENDROOT
BRANCH   9  17
HETATM   17  N3  UNL     1      24.202   0.696  52.282  1.00  0.00    -0.340 N 
HETATM   18  H18 UNL     1      24.829   0.270  51.599  1.00  0.00     0.167 HD
BRANCH  17  19
HETATM   19  C12 UNL     1      24.098   2.089  52.054  1.00  0.00     0.035 A 
HETATM   20  C13 UNL     1      23.791   2.990  53.039  1.00  0.00     0.032 A 
HETATM   21  C14 UNL     1      23.673   4.347  52.843  1.00  0.00     0.046 A 
HETATM   22  C15 UNL     1      23.865   4.882  51.601  1.00  0.00     0.138 A 
HETATM   23  F1  UNL     1      23.768   6.202  51.328  1.00  0.00    -0.204 F 
HETATM   24  C16 UNL     1      24.177   4.026  50.569  1.00  0.00     0.074 A 
HETATM   25 CL1  UNL     1      24.437   4.632  48.948  1.00  0.00    -0.081 Cl
HETATM   26  C17 UNL     1      24.278   2.690  50.832  1.00  0.00     0.056 A 
ENDBRANCH  17  19
ENDBRANCH   9  17
BRANCH   1  27
HETATM   27  C4  UNL     1      17.813  -2.453  53.840  1.00  0.00     0.123 C 
BRANCH  27  28
HETATM   28  C3  UNL     1      17.417  -3.646  53.057  1.00  0.00     0.019 C 
BRANCH  28  29
HETATM   29  C2  UNL     1      16.004  -4.113  53.442  1.00  0.00    -0.003 C 
HETATM   30  C1  UNL     1      16.059  -5.398  54.219  1.00  0.00     0.005 C 
ENDBRANCH  28  29
ENDBRANCH  27  28
ENDBRANCH   1  27
TORSDOF 5
ENDMDL
MODEL 9
REMARK VINA RESULT:      -8.0      5.290      8.987
REMARK  5 active torsions:
REMARK  status: ('A' for Active; 'I' for Inactive)
REMARK    1  A    between atoms: C2_2  and  C3_3 
REMARK    2  A    between atoms: C3_3  and  C4_4 
REMARK    3  A    between atoms: C4_4  and  N1_5 
REMARK    4  A    between atoms: C11_13  and  N3_14 
REMARK    5  A    between atoms: N3_14  and  C12_15 
ROOT
HETATM    1  N1  UNL     1      25.727   0.005  52.790  1.00  0.00    -0.379 N 
HETATM    2  C5  UNL     1      25.021  -0.646  53.906  1.00  0.00     0.124 C 
HETATM    3  C6  UNL     1      23.629  -0.127  54.051  1.00  0.00     0.039 C 
HETATM    4  C7  UNL     1      22.704  -0.428  52.921  1.00  0.00     0.121 C 
HETATM    5  N2  UNL     1      22.756   0.731  52.016  1.00  0.00    -0.388 N 
HETATM    6  C8  UNL     1      23.968   1.372  51.606  1.00  0.00     0.056 A 
HETATM    7  C9  UNL     1      23.775   2.443  50.761  1.00  0.00     0.049 A 
HETATM    8  C10 UNL     1      24.758   3.237  50.216  1.00  0.00     0.041 A 
HETATM    9  C11 UNL     1      24.523   4.300  49.373  1.00  0.00     0.142 A 
HETATM   10  N4  UNL     1      25.628   4.927  48.963  1.00  0.00    -0.224 NA
HETATM   11  C18 UNL     1      26.877   4.625  49.286  1.00  0.00     0.236 A 
HETATM   12  N5  UNL     1      27.085   3.566  50.124  1.00  0.00    -0.241 NA
HETATM   13  C19 UNL     1      26.027   2.860  50.598  1.00  0.00     0.074 A 
HETATM   14  C20 UNL     1      26.304   1.805  51.437  1.00  0.00     0.064 A 
HETATM   15  C21 UNL     1      25.268   1.053  51.945  1.00  0.00     0.059 A 
HETATM   16  H16 UNL     1      21.879   1.144  51.625  1.00  0.00     0.159 HD
ENDROOT
BRANCH   9  17
HETATM   17  N3  UNL     1      23.194   4.635  49.032  1.00  0.00    -0.340 N 
HETATM   18  H18 UNL     1      22.488   4.843  49.737  1.00  0.00     0.167 HD
BRANCH  17  19
HETATM   19  C12 UNL     1      22.638   4.733  47.734  1.00  0.00     0.035 A 
HETATM   20  C13 UNL     1      22.114   3.663  47.058  1.00  0.00     0.032 A 
HETATM   21  C14 UNL     1      21.576   3.729  45.793  1.00  0.00     0.046 A 
HETATM   22  C15 UNL     1      21.540   4.919  45.122  1.00  0.00     0.138 A 
HETATM   23  F1  UNL     1      21.030   5.065  43.879  1.00  0.00    -0.204 F 
HETATM   24  C16 UNL     1      22.053   6.031  45.750  1.00  0.00     0.074 A 
HETATM   25 CL1  UNL     1      22.045   7.591  44.957  1.00  0.00    -0.081 Cl
HETATM   26  C17 UNL     1      22.572   5.896  47.006  1.00  0.00     0.056 A 
ENDBRANCH  17  19
ENDBRANCH   9  17
BRANCH   1  27
HETATM   27  C4  UNL     1      27.053  -0.479  52.513  1.00  0.00     0.123 C 
BRANCH  27  28
HETATM   28  C3  UNL     1      27.271  -1.935  52.677  1.00  0.00     0.019 C 
BRANCH  28  29
HETATM   29  C2  UNL     1      28.724  -2.231  53.081  1.00  0.00    -0.003 C 
HETATM   30  C1  UNL     1      29.433  -0.971  53.493  1.00  0.00     0.005 C 
ENDBRANCH  28  29
ENDBRANCH  27  28
ENDBRANCH   1  27
TORSDOF 5
ENDMDL
