MODEL 1
REMARK VINA RESULT:      -9.1      0.000      0.000
REMARK  6 active torsions:
REMARK  status: ('A' for Active; 'I' for Inactive)
REMARK    1  A    between atoms: N2_5  and  C4_6 
REMARK    2  A    between atoms: C4_6  and  C5_7 
REMARK    3  A    between atoms: C5_7  and  C6_8 
REMARK    4  A    between atoms: C7_9  and  C8_10 
REMARK       I    between atoms: C8_10  and  N3_12 
REMARK    5  A    between atoms: C12_16  and  N4_17 
REMARK    6  A    between atoms: N4_17  and  C13_18 
ROOT
HETATM    1  C8  UNL     1      25.392   4.733  49.871  1.00  0.00     0.322 C 
HETATM    2  O1  UNL     1      24.264   5.287  49.837  1.00  0.00    -0.256 OA
HETATM    3  N3  UNL     1      25.504   3.532  50.626  1.00  0.00    -0.201 N 
HETATM    4  C9  UNL     1      24.342   3.048  51.283  1.00  0.00     0.136 A 
HETATM    5  C10 UNL     1      24.371   1.924  52.011  1.00  0.00     0.015 A 
HETATM    6  C11 UNL     1      23.078   1.621  52.587  1.00  0.00     0.065 A 
HETATM    7  C12 UNL     1      22.733   0.589  53.366  1.00  0.00     0.130 A 
HETATM    8  N5  UNL     1      23.589  -0.464  53.808  1.00  0.00    -0.224 NA
HETATM    9  C19 UNL     1      24.857  -0.670  53.573  1.00  0.00     0.236 A 
HETATM   10  N6  UNL     1      25.787   0.085  52.806  1.00  0.00    -0.240 NA
HETATM   11  C20 UNL     1      25.609   1.170  52.146  1.00  0.00     0.089 A 
HETATM   12  C21 UNL     1      26.778   1.713  51.448  1.00  0.00     0.171 A 
HETATM   13  N7  UNL     1      26.688   2.803  50.760  1.00  0.00    -0.175 NA
ENDROOT
BRANCH   1  14
HETATM   14  C7  UNL     1      26.446   5.355  49.156  1.00  0.00    -0.003 C 
HETATM   15  C6  UNL     1      27.339   5.898  48.555  1.00  0.00    -0.095 C 
BRANCH  15  16
HETATM   16  C5  UNL     1      28.432   6.536  47.840  1.00  0.00     0.124 C 
BRANCH  16  17
HETATM   17  C4  UNL     1      29.773   6.012  48.265  1.00  0.00     0.284 C 
BRANCH  17  18
HETATM   18  N2  UNL     1      30.798   7.000  48.401  1.00  0.00     0.092 N 
HETATM   19  C3  UNL     1      31.683   6.581  49.466  1.00  0.00     0.291 C 
HETATM   20  C2  UNL     1      32.838   5.754  49.071  1.00  0.00     0.146 C 
HETATM   21  N1  UNL     1      32.834   5.187  47.786  1.00  0.00    -0.413 N 
HETATM   22  C1  UNL     1      32.854   3.750  47.737  1.00  0.00     0.143 C 
HETATM   23  C23 UNL     1      32.039   5.798  46.774  1.00  0.00     0.146 C 
HETATM   24  C22 UNL     1      31.614   7.161  47.224  1.00  0.00     0.291 C 
ENDBRANCH  17  18
ENDBRANCH  16  17
ENDBRANCH  15  16
ENDBRANCH   1  14
BRANCH   7  25
HETATM   25  N4  UNL     1      21.377   0.544  53.790  1.00  0.00    -0.341 N 
HETATM   26  H14 UNL     1      21.229   0.781  54.796  1.00  0.00     0.167 HD
BRANCH  25  27
HETATM   27  C13 UNL     1      20.243   0.217  53.001  1.00  0.00     0.033 A 
HETATM   28  C14 UNL     1      20.025   0.801  51.774  1.00  0.00     0.032 A 
HETATM   29  C15 UNL     1      18.931   0.483  51.019  1.00  0.00     0.044 A 
HETATM   30  C16 UNL     1      17.993  -0.450  51.469  1.00  0.00     0.116 A 
HETATM   31  F1  UNL     1      16.951  -0.682  50.630  1.00  0.00    -0.206 F 
HETATM   32  C17 UNL     1      18.185  -1.052  52.696  1.00  0.00     0.044 A 
HETATM   33  C18 UNL     1      19.304  -0.698  53.420  1.00  0.00     0.032 A 
ENDBRANCH  25  27
ENDBRANCH   7  25
TORSDOF 6
ENDMDL
MODEL 2
REMARK VINA RESULT:      -9.1      4.128      5.903
REMARK  6 active torsions:
REMARK  status: ('A' for Active; 'I' for Inactive)
REMARK    1  A    between atoms: N2_5  and  C4_6 
REMARK    2  A    between atoms: C4_6  and  C5_7 
REMARK    3  A    between atoms: C5_7  and  C6_8 
REMARK    4  A    between atoms: C7_9  and  C8_10 
REMARK       I    between atoms: C8_10  and  N3_12 
REMARK    5  A    between atoms: C12_16  and  N4_17 
REMARK    6  A    between atoms: N4_17  and  C13_18 
ROOT
HETATM    1  C8  UNL     1      27.005   5.135  48.976  1.00  0.00     0.322 C 
HETATM    2  O1  UNL     1      28.026   4.404  48.944  1.00  0.00    -0.256 OA
HETATM    3  N3  UNL     1      25.901   4.676  49.747  1.00  0.00    -0.201 N 
HETATM    4  C9  UNL     1      26.030   3.432  50.421  1.00  0.00     0.136 A 
HETATM    5  C10 UNL     1      25.033   2.937  51.164  1.00  0.00     0.015 A 
HETATM    6  C11 UNL     1      25.384   1.663  51.756  1.00  0.00     0.065 A 
HETATM    7  C12 UNL     1      24.644   0.880  52.551  1.00  0.00     0.130 A 
HETATM    8  N5  UNL     1      23.314   1.141  52.998  1.00  0.00    -0.224 NA
HETATM    9  C19 UNL     1      22.530   2.156  52.756  1.00  0.00     0.236 A 
HETATM   10  N6  UNL     1      22.748   3.322  51.970  1.00  0.00    -0.240 NA
HETATM   11  C20 UNL     1      23.783   3.670  51.297  1.00  0.00     0.089 A 
HETATM   12  C21 UNL     1      23.701   4.947  50.582  1.00  0.00     0.171 A 
HETATM   13  N7  UNL     1      24.697   5.374  49.879  1.00  0.00    -0.175 NA
ENDROOT
BRANCH   1  14
HETATM   14  C7  UNL     1      27.046   6.348  48.242  1.00  0.00    -0.003 C 
HETATM   15  C6  UNL     1      27.069   7.385  47.629  1.00  0.00    -0.095 C 
BRANCH  15  16
HETATM   16  C5  UNL     1      27.124   8.637  46.892  1.00  0.00     0.124 C 
BRANCH  16  17
HETATM   17  C4  UNL     1      28.276   9.500  47.321  1.00  0.00     0.284 C 
BRANCH  17  18
HETATM   18  N2  UNL     1      28.238   9.934  48.683  1.00  0.00     0.092 N 
HETATM   19  C3  UNL     1      29.416   9.422  49.347  1.00  0.00     0.291 C 
HETATM   20  C2  UNL     1      30.607  10.292  49.332  1.00  0.00     0.146 C 
HETATM   21  N1  UNL     1      30.617  11.380  48.443  1.00  0.00    -0.413 N 
HETATM   22  C1  UNL     1      31.653  11.361  47.446  1.00  0.00     0.143 C 
HETATM   23  C23 UNL     1      29.373  11.899  47.987  1.00  0.00     0.146 C 
HETATM   24  C22 UNL     1      28.263  11.367  48.840  1.00  0.00     0.291 C 
ENDBRANCH  17  18
ENDBRANCH  16  17
ENDBRANCH  15  16
ENDBRANCH   1  14
BRANCH   7  25
HETATM   25  N4  UNL     1      25.251  -0.328  52.989  1.00  0.00    -0.341 N 
HETATM   26  H14 UNL     1      24.593  -1.131  53.094  1.00  0.00     0.167 HD
BRANCH  25  27
HETATM   27  C13 UNL     1      26.623  -0.538  53.288  1.00  0.00     0.033 A 
HETATM   28  C14 UNL     1      27.349  -1.538  52.681  1.00  0.00     0.032 A 
HETATM   29  C15 UNL     1      28.670  -1.736  52.973  1.00  0.00     0.044 A 
HETATM   30  C16 UNL     1      29.330  -0.926  53.900  1.00  0.00     0.116 A 
HETATM   31  F1  UNL     1      30.640  -1.222  54.105  1.00  0.00    -0.206 F 
HETATM   32  C17 UNL     1      28.628   0.084  54.525  1.00  0.00     0.044 A 
HETATM   33  C18 UNL     1      27.298   0.244  54.197  1.00  0.00     0.032 A 
ENDBRANCH  25  27
ENDBRANCH   7  25
TORSDOF 6
ENDMDL
MODEL 3
REMARK VINA RESULT:      -9.1      6.029     11.839
REMARK  6 active torsions:
REMARK  status: ('A' for Active; 'I' for Inactive)
REMARK    1  A    between atoms: N2_5  and  C4_6 
REMARK    2  A    between atoms: C4_6  and  C5_7 
REMARK    3  A    between atoms: C5_7  and  C6_8 
REMARK    4  A    between atoms: C7_9  and  C8_10 
REMARK       I    between atoms: C8_10  and  N3_12 
REMARK    5  A    between atoms: C12_16  and  N4_17 
REMARK    6  A    between atoms: N4_17  and  C13_18 
ROOT
HETATM    1  C8  UNL     1      19.017   0.692  51.199  1.00  0.00     0.322 C 
HETATM    2  O1  UNL     1      19.578   1.275  50.237  1.00  0.00    -0.256 OA
HETATM    3  N3  UNL     1      19.857   0.173  52.223  1.00  0.00    -0.201 N 
HETATM    4  C9  UNL     1      21.260   0.346  52.086  1.00  0.00     0.136 A 
HETATM    5  C10 UNL     1      22.111  -0.117  53.009  1.00  0.00     0.015 A 
HETATM    6  C11 UNL     1      23.488   0.172  52.666  1.00  0.00     0.065 A 
HETATM    7  C12 UNL     1      24.600  -0.136  53.345  1.00  0.00     0.130 A 
HETATM    8  N5  UNL     1      24.669  -0.834  54.587  1.00  0.00    -0.224 NA
HETATM    9  C19 UNL     1      23.713  -1.320  55.332  1.00  0.00     0.236 A 
HETATM   10  N6  UNL     1      22.302  -1.311  55.144  1.00  0.00    -0.240 NA
HETATM   11  C20 UNL     1      21.611  -0.816  54.184  1.00  0.00     0.089 A 
HETATM   12  C21 UNL     1      20.156  -0.968  54.277  1.00  0.00     0.171 A 
HETATM   13  N7  UNL     1      19.384  -0.500  53.353  1.00  0.00    -0.175 NA
ENDROOT
BRANCH   1  14
HETATM   14  C7  UNL     1      17.602   0.607  51.176  1.00  0.00    -0.003 C 
HETATM   15  C6  UNL     1      16.399   0.530  51.172  1.00  0.00    -0.095 C 
BRANCH  15  16
HETATM   16  C5  UNL     1      14.947   0.461  51.159  1.00  0.00     0.124 C 
BRANCH  16  17
HETATM   17  C4  UNL     1      14.314   1.664  51.797  1.00  0.00     0.284 C 
BRANCH  17  18
HETATM   18  N2  UNL     1      14.492   2.894  51.089  1.00  0.00     0.092 N 
HETATM   19  C3  UNL     1      13.184   3.465  50.852  1.00  0.00     0.291 C 
HETATM   20  C2  UNL     1      12.677   4.388  51.885  1.00  0.00     0.146 C 
HETATM   21  N1  UNL     1      13.330   4.410  53.128  1.00  0.00    -0.413 N 
HETATM   22  C1  UNL     1      12.528   4.035  54.261  1.00  0.00     0.143 C 
HETATM   23  C23 UNL     1      14.682   3.969  53.195  1.00  0.00     0.146 C 
HETATM   24  C22 UNL     1      15.251   3.881  51.814  1.00  0.00     0.291 C 
ENDBRANCH  17  18
ENDBRANCH  16  17
ENDBRANCH  15  16
ENDBRANCH   1  14
BRANCH   7  25
HETATM   25  N4  UNL     1      25.829   0.278  52.763  1.00  0.00    -0.341 N 
HETATM   26  H14 UNL     1      25.730   0.971  51.989  1.00  0.00     0.167 HD
BRANCH  25  27
HETATM   27  C13 UNL     1      27.134  -0.148  53.123  1.00  0.00     0.033 A 
HETATM   28  C14 UNL     1      27.588  -1.413  52.826  1.00  0.00     0.032 A 
HETATM   29  C15 UNL     1      28.845  -1.819  53.176  1.00  0.00     0.044 A 
HETATM   30  C16 UNL     1      29.717  -0.959  53.848  1.00  0.00     0.116 A 
HETATM   31  F1  UNL     1      30.938  -1.477  54.140  1.00  0.00    -0.206 F 
HETATM   32  C17 UNL     1      29.290   0.316  54.160  1.00  0.00     0.044 A 
HETATM   33  C18 UNL     1      28.013   0.679  53.786  1.00  0.00     0.032 A 
ENDBRANCH  25  27
ENDBRANCH   7  25
TORSDOF 6
ENDMDL
MODEL 4
REMARK VINA RESULT:      -9.0      6.104     12.728
REMARK  6 active torsions:
REMARK  status: ('A' for Active; 'I' for Inactive)
REMARK    1  A    between atoms: N2_5  and  C4_6 
REMARK    2  A    between atoms: C4_6  and  C5_7 
REMARK    3  A    between atoms: C5_7  and  C6_8 
REMARK    4  A    between atoms: C7_9  and  C8_10 
REMARK       I    between atoms: C8_10  and  N3_12 
REMARK    5  A    between atoms: C12_16  and  N4_17 
REMARK    6  A    between atoms: N4_17  and  C13_18 
ROOT
HETATM    1  C8  UNL     1      18.091  -1.126  53.105  1.00  0.00     0.322 C 
HETATM    2  O1  UNL     1      18.350  -2.157  53.775  1.00  0.00    -0.256 OA
HETATM    3  N3  UNL     1      19.177  -0.260  52.799  1.00  0.00    -0.201 N 
HETATM    4  C9  UNL     1      20.468  -0.618  53.269  1.00  0.00     0.136 A 
HETATM    5  C10 UNL     1      21.537   0.148  53.020  1.00  0.00     0.015 A 
HETATM    6  C11 UNL     1      22.745  -0.409  53.592  1.00  0.00     0.065 A 
HETATM    7  C12 UNL     1      23.992   0.078  53.546  1.00  0.00     0.130 A 
HETATM    8  N5  UNL     1      24.409   1.283  52.906  1.00  0.00    -0.224 NA
HETATM    9  C19 UNL     1      23.713   2.165  52.240  1.00  0.00     0.236 A 
HETATM   10  N6  UNL     1      22.323   2.207  51.941  1.00  0.00    -0.240 NA
HETATM   11  C20 UNL     1      21.396   1.378  52.255  1.00  0.00     0.089 A 
HETATM   12  C21 UNL     1      20.042   1.702  51.793  1.00  0.00     0.171 A 
HETATM   13  N7  UNL     1      19.049   0.923  52.065  1.00  0.00    -0.175 NA
ENDROOT
BRANCH   1  14
HETATM   14  C7  UNL     1      16.742  -0.921  52.717  1.00  0.00    -0.003 C 
HETATM   15  C6  UNL     1      15.595  -0.734  52.398  1.00  0.00    -0.095 C 
BRANCH  15  16
HETATM   16  C5  UNL     1      14.219  -0.508  51.988  1.00  0.00     0.124 C 
BRANCH  16  17
HETATM   17  C4  UNL     1      13.666   0.778  52.534  1.00  0.00     0.284 C 
BRANCH  17  18
HETATM   18  N2  UNL     1      12.275   0.751  52.863  1.00  0.00     0.092 N 
HETATM   19  C3  UNL     1      12.142   1.084  54.264  1.00  0.00     0.291 C 
HETATM   20  C2  UNL     1      11.965   2.512  54.584  1.00  0.00     0.146 C 
HETATM   21  N1  UNL     1      12.239   3.452  53.577  1.00  0.00    -0.413 N 
HETATM   22  C1  UNL     1      13.299   4.381  53.861  1.00  0.00     0.143 C 
HETATM   23  C23 UNL     1      12.177   3.032  52.218  1.00  0.00     0.146 C 
HETATM   24  C22 UNL     1      11.483   1.709  52.132  1.00  0.00     0.291 C 
ENDBRANCH  17  18
ENDBRANCH  16  17
ENDBRANCH  15  16
ENDBRANCH   1  14
BRANCH   7  25
HETATM   25  N4  UNL     1      24.992  -0.689  54.202  1.00  0.00    -0.341 N 
HETATM   26  H14 UNL     1      24.624  -1.405  54.867  1.00  0.00     0.167 HD
BRANCH  25  27
HETATM   27  C13 UNL     1      26.398  -0.576  54.046  1.00  0.00     0.033 A 
HETATM   28  C14 UNL     1      27.068  -1.234  53.040  1.00  0.00     0.032 A 
HETATM   29  C15 UNL     1      28.423  -1.122  52.894  1.00  0.00     0.044 A 
HETATM   30  C16 UNL     1      29.176  -0.332  53.766  1.00  0.00     0.116 A 
HETATM   31  F1  UNL     1      30.511  -0.301  53.519  1.00  0.00    -0.206 F 
HETATM   32  C17 UNL     1      28.533   0.339  54.785  1.00  0.00     0.044 A 
HETATM   33  C18 UNL     1      27.165   0.195  54.891  1.00  0.00     0.032 A 
ENDBRANCH  25  27
ENDBRANCH   7  25
TORSDOF 6
ENDMDL
MODEL 5
REMARK VINA RESULT:      -8.5      5.107     12.107
REMARK  6 active torsions:
REMARK  status: ('A' for Active; 'I' for Inactive)
REMARK    1  A    between atoms: N2_5  and  C4_6 
REMARK    2  A    between atoms: C4_6  and  C5_7 
REMARK    3  A    between atoms: C5_7  and  C6_8 
REMARK    4  A    between atoms: C7_9  and  C8_10 
REMARK       I    between atoms: C8_10  and  N3_12 
REMARK    5  A    between atoms: C12_16  and  N4_17 
REMARK    6  A    between atoms: N4_17  and  C13_18 
ROOT
HETATM    1  C8  UNL     1      19.581  -0.088  52.726  1.00  0.00     0.322 C 
HETATM    2  O1  UNL     1      19.936  -0.397  53.891  1.00  0.00    -0.256 OA
HETATM    3  N3  UNL     1      20.521   0.619  51.927  1.00  0.00    -0.201 N 
HETATM    4  C9  UNL     1      21.785   0.925  52.498  1.00  0.00     0.136 A 
HETATM    5  C10 UNL     1      22.720   1.588  51.805  1.00  0.00     0.015 A 
HETATM    6  C11 UNL     1      23.926   1.788  52.582  1.00  0.00     0.065 A 
HETATM    7  C12 UNL     1      25.058   2.404  52.221  1.00  0.00     0.130 A 
HETATM    8  N5  UNL     1      25.327   3.013  50.959  1.00  0.00    -0.224 NA
HETATM    9  C19 UNL     1      24.574   3.114  49.898  1.00  0.00     0.236 A 
HETATM   10  N6  UNL     1      23.249   2.653  49.660  1.00  0.00    -0.240 NA
HETATM   11  C20 UNL     1      22.456   2.014  50.439  1.00  0.00     0.089 A 
HETATM   12  C21 UNL     1      21.137   1.673  49.898  1.00  0.00     0.171 A 
HETATM   13  N7  UNL     1      20.275   1.032  50.614  1.00  0.00    -0.175 NA
ENDROOT
BRANCH   1  14
HETATM   14  C7  UNL     1      18.279  -0.472  52.317  1.00  0.00    -0.003 C 
HETATM   15  C6  UNL     1      17.177  -0.815  51.968  1.00  0.00    -0.095 C 
BRANCH  15  16
HETATM   16  C5  UNL     1      15.838  -1.214  51.568  1.00  0.00     0.124 C 
BRANCH  16  17
HETATM   17  C4  UNL     1      14.866  -0.070  51.608  1.00  0.00     0.284 C 
BRANCH  17  18
HETATM   18  N2  UNL     1      14.779   0.612  52.862  1.00  0.00     0.092 N 
HETATM   19  C3  UNL     1      14.821   2.034  52.600  1.00  0.00     0.291 C 
HETATM   20  C2  UNL     1      13.521   2.700  52.398  1.00  0.00     0.146 C 
HETATM   21  N1  UNL     1      12.394   1.893  52.169  1.00  0.00    -0.413 N 
HETATM   22  C1  UNL     1      11.740   2.078  50.902  1.00  0.00     0.143 C 
HETATM   23  C23 UNL     1      12.419   0.544  52.625  1.00  0.00     0.146 C 
HETATM   24  C22 UNL     1      13.556   0.358  53.581  1.00  0.00     0.291 C 
ENDBRANCH  17  18
ENDBRANCH  16  17
ENDBRANCH  15  16
ENDBRANCH   1  14
BRANCH   7  25
HETATM   25  N4  UNL     1      26.089   2.451  53.199  1.00  0.00    -0.341 N 
HETATM   26  H14 UNL     1      26.011   3.245  53.873  1.00  0.00     0.167 HD
BRANCH  25  27
HETATM   27  C13 UNL     1      27.178   1.553  53.339  1.00  0.00     0.033 A 
HETATM   28  C14 UNL     1      27.037   0.204  53.101  1.00  0.00     0.032 A 
HETATM   29  C15 UNL     1      28.090  -0.657  53.238  1.00  0.00     0.044 A 
HETATM   30  C16 UNL     1      29.350  -0.195  53.626  1.00  0.00     0.116 A 
HETATM   31  F1  UNL     1      30.314  -1.147  53.727  1.00  0.00    -0.206 F 
HETATM   32  C17 UNL     1      29.522   1.151  53.873  1.00  0.00     0.044 A 
HETATM   33  C18 UNL     1      28.430   1.980  53.720  1.00  0.00     0.032 A 
ENDBRANCH  25  27
ENDBRANCH   7  25
TORSDOF 6
ENDMDL
MODEL 6
REMARK VINA RESULT:      -8.5      4.694     11.394
REMARK  6 active torsions:
REMARK  status: ('A' for Active; 'I' for Inactive)
REMARK    1  A    between atoms: N2_5  and  C4_6 
REMARK    2  A    between atoms: C4_6  and  C5_7 
REMARK    3  A    between atoms: C5_7  and  C6_8 
REMARK    4  A    between atoms: C7_9  and  C8_10 
REMARK       I    between atoms: C8_10  and  N3_12 
REMARK    5  A    between atoms: C12_16  and  N4_17 
REMARK    6  A    between atoms: N4_17  and  C13_18 
ROOT
HETATM    1  C8  UNL     1      20.146   2.905  51.950  1.00  0.00     0.322 C 
HETATM    2  O1  UNL     1      20.224   2.470  53.127  1.00  0.00    -0.256 OA
HETATM    3  N3  UNL     1      21.368   3.102  51.249  1.00  0.00    -0.201 N 
HETATM    4  C9  UNL     1      22.580   2.798  51.923  1.00  0.00     0.136 A 
HETATM    5  C10 UNL     1      23.768   2.960  51.326  1.00  0.00     0.015 A 
HETATM    6  C11 UNL     1      24.864   2.589  52.197  1.00  0.00     0.065 A 
HETATM    7  C12 UNL     1      26.178   2.619  51.943  1.00  0.00     0.130 A 
HETATM    8  N5  UNL     1      26.798   3.035  50.727  1.00  0.00    -0.224 NA
HETATM    9  C19 UNL     1      26.264   3.467  49.617  1.00  0.00     0.236 A 
HETATM   10  N6  UNL     1      24.899   3.661  49.265  1.00  0.00    -0.240 NA
HETATM   11  C20 UNL     1      23.841   3.456  49.960  1.00  0.00     0.089 A 
HETATM   12  C21 UNL     1      22.561   3.755  49.310  1.00  0.00     0.171 A 
HETATM   13  N7  UNL     1      21.446   3.579  49.937  1.00  0.00    -0.175 NA
ENDROOT
BRANCH   1  14
HETATM   14  C7  UNL     1      18.851   3.157  51.431  1.00  0.00    -0.003 C 
HETATM   15  C6  UNL     1      17.745   3.355  50.994  1.00  0.00    -0.095 C 
BRANCH  15  16
HETATM   16  C5  UNL     1      16.410   3.616  50.482  1.00  0.00     0.124 C 
BRANCH  16  17
HETATM   17  C4  UNL     1      15.466   4.070  51.558  1.00  0.00     0.284 C 
BRANCH  17  18
HETATM   18  N2  UNL     1      14.088   4.121  51.178  1.00  0.00     0.092 N 
HETATM   19  C3  UNL     1      13.804   2.952  50.375  1.00  0.00     0.291 C 
HETATM   20  C2  UNL     1      13.332   1.758  51.100  1.00  0.00     0.146 C 
HETATM   21  N1  UNL     1      13.482   1.733  52.497  1.00  0.00    -0.413 N 
HETATM   22  C1  UNL     1      14.321   0.687  53.016  1.00  0.00     0.143 C 
HETATM   23  C23 UNL     1      13.590   2.971  53.193  1.00  0.00     0.146 C 
HETATM   24  C22 UNL     1      13.174   4.091  52.292  1.00  0.00     0.291 C 
ENDBRANCH  17  18
ENDBRANCH  16  17
ENDBRANCH  15  16
ENDBRANCH   1  14
BRANCH   7  25
HETATM   25  N4  UNL     1      27.033   2.193  52.996  1.00  0.00    -0.341 N 
HETATM   26  H14 UNL     1      27.190   2.905  53.743  1.00  0.00     0.167 HD
BRANCH  25  27
HETATM   27  C13 UNL     1      27.673   0.933  53.122  1.00  0.00     0.033 A 
HETATM   28  C14 UNL     1      28.973   0.824  53.563  1.00  0.00     0.032 A 
HETATM   29  C15 UNL     1      29.585  -0.392  53.683  1.00  0.00     0.044 A 
HETATM   30  C16 UNL     1      28.909  -1.571  53.360  1.00  0.00     0.116 A 
HETATM   31  F1  UNL     1      29.623  -2.715  53.521  1.00  0.00    -0.206 F 
HETATM   32  C17 UNL     1      27.605  -1.495  52.915  1.00  0.00     0.044 A 
HETATM   33  C18 UNL     1      27.031  -0.245  52.811  1.00  0.00     0.032 A 
ENDBRANCH  25  27
ENDBRANCH   7  25
TORSDOF 6
ENDMDL
MODEL 7
REMARK VINA RESULT:      -8.5      3.976      5.956
REMARK  6 active torsions:
REMARK  status: ('A' for Active; 'I' for Inactive)
REMARK    1  A    between atoms: N2_5  and  C4_6 
REMARK    2  A    between atoms: C4_6  and  C5_7 
REMARK    3  A    between atoms: C5_7  and  C6_8 
REMARK    4  A    between atoms: C7_9  and  C8_10 
REMARK       I    between atoms: C8_10  and  N3_12 
REMARK    5  A    between atoms: C12_16  and  N4_17 
REMARK    6  A    between atoms: N4_17  and  C13_18 
ROOT
HETATM    1  C8  UNL     1      25.450   4.928  49.482  1.00  0.00     0.322 C 
HETATM    2  O1  UNL     1      26.610   4.460  49.608  1.00  0.00    -0.256 OA
HETATM    3  N3  UNL     1      24.402   4.263  50.176  1.00  0.00    -0.201 N 
HETATM    4  C9  UNL     1      24.736   3.124  50.955  1.00  0.00     0.136 A 
HETATM    5  C10 UNL     1      23.802   2.447  51.635  1.00  0.00     0.015 A 
HETATM    6  C11 UNL     1      24.367   1.326  52.358  1.00  0.00     0.065 A 
HETATM    7  C12 UNL     1      23.742   0.435  53.137  1.00  0.00     0.130 A 
HETATM    8  N5  UNL     1      22.346   0.397  53.430  1.00  0.00    -0.224 NA
HETATM    9  C19 UNL     1      21.383   1.182  53.033  1.00  0.00     0.236 A 
HETATM   10  N6  UNL     1      21.414   2.322  52.182  1.00  0.00    -0.240 NA
HETATM   11  C20 UNL     1      22.410   2.869  51.587  1.00  0.00     0.089 A 
HETATM   12  C21 UNL     1      22.119   4.050  50.769  1.00  0.00     0.171 A 
HETATM   13  N7  UNL     1      23.063   4.662  50.135  1.00  0.00    -0.175 NA
ENDROOT
BRANCH   1  14
HETATM   14  C7  UNL     1      25.295   6.074  48.662  1.00  0.00    -0.003 C 
HETATM   15  C6  UNL     1      25.178   7.054  47.970  1.00  0.00    -0.095 C 
BRANCH  15  16
HETATM   16  C5  UNL     1      25.030   8.220  47.114  1.00  0.00     0.124 C 
BRANCH  16  17
HETATM   17  C4  UNL     1      26.060   9.274  47.406  1.00  0.00     0.284 C 
BRANCH  17  18
HETATM   18  N2  UNL     1      27.417   8.826  47.372  1.00  0.00     0.092 N 
HETATM   19  C3  UNL     1      28.138   9.659  46.435  1.00  0.00     0.291 C 
HETATM   20  C2  UNL     1      28.781  10.864  46.990  1.00  0.00     0.146 C 
HETATM   21  N1  UNL     1      28.405  11.277  48.280  1.00  0.00    -0.413 N 
HETATM   22  C1  UNL     1      27.802  12.579  48.367  1.00  0.00     0.143 C 
HETATM   23  C23 UNL     1      27.852  10.313  49.169  1.00  0.00     0.146 C 
HETATM   24  C22 UNL     1      28.101   8.936  48.636  1.00  0.00     0.291 C 
ENDBRANCH  17  18
ENDBRANCH  16  17
ENDBRANCH  15  16
ENDBRANCH   1  14
BRANCH   7  25
HETATM   25  N4  UNL     1      24.558  -0.569  53.725  1.00  0.00    -0.341 N 
HETATM   26  H14 UNL     1      24.030  -1.361  54.153  1.00  0.00     0.167 HD
BRANCH  25  27
HETATM   27  C13 UNL     1      25.975  -0.595  53.786  1.00  0.00     0.033 A 
HETATM   28  C14 UNL     1      26.672   0.136  54.723  1.00  0.00     0.032 A 
HETATM   29  C15 UNL     1      28.037   0.108  54.777  1.00  0.00     0.044 A 
HETATM   30  C16 UNL     1      28.776  -0.667  53.880  1.00  0.00     0.116 A 
HETATM   31  F1  UNL     1      30.124  -0.612  54.034  1.00  0.00    -0.206 F 
HETATM   32  C17 UNL     1      28.106  -1.410  52.929  1.00  0.00     0.044 A 
HETATM   33  C18 UNL     1      26.729  -1.349  52.915  1.00  0.00     0.032 A 
ENDBRANCH  25  27
ENDBRANCH   7  25
TORSDOF 6
ENDMDL
MODEL 8
REMARK VINA RESULT:      -8.2      3.862     11.549
REMARK  6 active torsions:
REMARK  status: ('A' for Active; 'I' for Inactive)
REMARK    1  A    between atoms: N2_5  and  C4_6 
REMARK    2  A    between atoms: C4_6  and  C5_7 
REMARK    3  A    between atoms: C5_7  and  C6_8 
REMARK    4  A    between atoms: C7_9  and  C8_10 
REMARK       I    between atoms: C8_10  and  N3_12 
REMARK    5  A    between atoms: C12_16  and  N4_17 
REMARK    6  A    between atoms: N4_17  and  C13_18 
ROOT
HETATM    1  C8  UNL     1      25.968   4.335  49.669  1.00  0.00     0.322 C 
HETATM    2  O1  UNL     1      26.587   3.304  49.303  1.00  0.00    -0.256 OA
HETATM    3  N3  UNL     1      26.532   5.592  49.313  1.00  0.00    -0.201 N 
HETATM    4  C9  UNL     1      27.747   5.593  48.577  1.00  0.00     0.136 A 
HETATM    5  C10 UNL     1      28.336   6.738  48.208  1.00  0.00     0.015 A 
HETATM    6  C11 UNL     1      29.558   6.501  47.468  1.00  0.00     0.065 A 
HETATM    7  C12 UNL     1      30.404   7.397  46.947  1.00  0.00     0.130 A 
HETATM    8  N5  UNL     1      30.280   8.817  47.009  1.00  0.00    -0.224 NA
HETATM    9  C19 UNL     1      29.357   9.556  47.562  1.00  0.00     0.236 A 
HETATM   10  N6  UNL     1      28.184   9.185  48.277  1.00  0.00    -0.240 NA
HETATM   11  C20 UNL     1      27.737   8.017  48.559  1.00  0.00     0.089 A 
HETATM   12  C21 UNL     1      26.485   7.959  49.319  1.00  0.00     0.171 A 
HETATM   13  N7  UNL     1      25.964   6.824  49.647  1.00  0.00    -0.175 NA
ENDROOT
BRANCH   1  14
HETATM   14  C7  UNL     1      24.768   4.151  50.400  1.00  0.00    -0.003 C 
HETATM   15  C6  UNL     1      23.740   3.986  51.008  1.00  0.00    -0.095 C 
BRANCH  15  16
HETATM   16  C5  UNL     1      22.515   3.777  51.762  1.00  0.00     0.124 C 
BRANCH  16  17
HETATM   17  C4  UNL     1      22.501   2.452  52.470  1.00  0.00     0.284 C 
BRANCH  17  18
HETATM   18  N2  UNL     1      22.942   1.339  51.688  1.00  0.00     0.092 N 
HETATM   19  C3  UNL     1      23.859   0.563  52.494  1.00  0.00     0.291 C 
HETATM   20  C2  UNL     1      23.266  -0.519  53.301  1.00  0.00     0.146 C 
HETATM   21  N1  UNL     1      21.872  -0.528  53.471  1.00  0.00    -0.413 N 
HETATM   22  C1  UNL     1      21.408  -0.401  54.826  1.00  0.00     0.143 C 
HETATM   23  C23 UNL     1      21.064   0.142  52.509  1.00  0.00     0.146 C 
HETATM   24  C22 UNL     1      21.881   0.447  51.292  1.00  0.00     0.291 C 
ENDBRANCH  17  18
ENDBRANCH  16  17
ENDBRANCH  15  16
ENDBRANCH   1  14
BRANCH   7  25
HETATM   25  N4  UNL     1      31.535   6.873  46.264  1.00  0.00    -0.341 N 
HETATM   26  H14 UNL     1      31.677   7.254  45.303  1.00  0.00     0.167 HD
BRANCH  25  27
HETATM   27  C13 UNL     1      32.459   5.911  46.750  1.00  0.00     0.033 A 
HETATM   28  C14 UNL     1      32.557   4.657  46.189  1.00  0.00     0.032 A 
HETATM   29  C15 UNL     1      33.448   3.734  46.661  1.00  0.00     0.044 A 
HETATM   30  C16 UNL     1      34.293   4.033  47.732  1.00  0.00     0.116 A 
HETATM   31  F1  UNL     1      35.133   3.035  48.109  1.00  0.00    -0.206 F 
HETATM   32  C17 UNL     1      34.218   5.282  48.315  1.00  0.00     0.044 A 
HETATM   33  C18 UNL     1      33.304   6.179  47.804  1.00  0.00     0.032 A 
ENDBRANCH  25  27
ENDBRANCH   7  25
TORSDOF 6
ENDMDL
MODEL 9
REMARK VINA RESULT:      -8.2      5.556     11.850
REMARK  6 active torsions:
REMARK  status: ('A' for Active; 'I' for Inactive)
REMARK    1  A    between atoms: N2_5  and  C4_6 
REMARK    2  A    between atoms: C4_6  and  C5_7 
REMARK    3  A    between atoms: C5_7  and  C6_8 
REMARK    4  A    between atoms: C7_9  and  C8_10 
REMARK       I    between atoms: C8_10  and  N3_12 
REMARK    5  A    between atoms: C12_16  and  N4_17 
REMARK    6  A    between atoms: N4_17  and  C13_18 
ROOT
HETATM    1  C8  UNL     1      19.220  -0.453  52.896  1.00  0.00     0.322 C 
HETATM    2  O1  UNL     1      20.014  -1.276  53.416  1.00  0.00    -0.256 OA
HETATM    3  N3  UNL     1      19.743   0.824  52.549  1.00  0.00    -0.201 N 
HETATM    4  C9  UNL     1      21.115   1.077  52.816  1.00  0.00     0.136 A 
HETATM    5  C10 UNL     1      21.676   2.255  52.518  1.00  0.00     0.015 A 
HETATM    6  C11 UNL     1      23.079   2.290  52.874  1.00  0.00     0.065 A 
HETATM    7  C12 UNL     1      23.953   3.293  52.726  1.00  0.00     0.130 A 
HETATM    8  N5  UNL     1      23.683   4.579  52.169  1.00  0.00    -0.224 NA
HETATM    9  C19 UNL     1      22.572   5.069  51.690  1.00  0.00     0.236 A 
HETATM   10  N6  UNL     1      21.280   4.484  51.571  1.00  0.00    -0.240 NA
HETATM   11  C20 UNL     1      20.882   3.313  51.909  1.00  0.00     0.089 A 
HETATM   12  C21 UNL     1      19.473   3.000  51.655  1.00  0.00     0.171 A 
HETATM   13  N7  UNL     1      18.987   1.844  51.965  1.00  0.00    -0.175 NA
ENDROOT
BRANCH   1  14
HETATM   14  C7  UNL     1      17.880  -0.872  52.701  1.00  0.00    -0.003 C 
HETATM   15  C6  UNL     1      16.745  -1.244  52.537  1.00  0.00    -0.095 C 
BRANCH  15  16
HETATM   16  C5  UNL     1      15.369  -1.677  52.358  1.00  0.00     0.124 C 
BRANCH  16  17
HETATM   17  C4  UNL     1      14.647  -0.867  51.320  1.00  0.00     0.284 C 
BRANCH  17  18
HETATM   18  N2  UNL     1      13.337  -0.430  51.690  1.00  0.00     0.092 N 
HETATM   19  C3  UNL     1      13.401   0.071  53.046  1.00  0.00     0.291 C 
HETATM   20  C2  UNL     1      13.685   1.509  53.199  1.00  0.00     0.146 C 
HETATM   21  N1  UNL     1      14.166   2.210  52.080  1.00  0.00    -0.413 N 
HETATM   22  C1  UNL     1      15.473   2.792  52.223  1.00  0.00     0.143 C 
HETATM   23  C23 UNL     1      13.893   1.691  50.783  1.00  0.00     0.146 C 
HETATM   24  C22 UNL     1      12.827   0.644  50.875  1.00  0.00     0.291 C 
ENDBRANCH  17  18
ENDBRANCH  16  17
ENDBRANCH  15  16
ENDBRANCH   1  14
BRANCH   7  25
HETATM   25  N4  UNL     1      25.280   3.044  53.170  1.00  0.00    -0.341 N 
HETATM   26  H14 UNL     1      25.775   3.881  53.549  1.00  0.00     0.167 HD
BRANCH  25  27
HETATM   27  C13 UNL     1      25.973   1.806  53.144  1.00  0.00     0.033 A 
HETATM   28  C14 UNL     1      26.519   1.260  54.285  1.00  0.00     0.032 A 
HETATM   29  C15 UNL     1      27.186   0.068  54.255  1.00  0.00     0.044 A 
HETATM   30  C16 UNL     1      27.337  -0.641  53.061  1.00  0.00     0.116 A 
HETATM   31  F1  UNL     1      28.018  -1.812  53.159  1.00  0.00    -0.206 F 
HETATM   32  C17 UNL     1      26.801  -0.120  51.901  1.00  0.00     0.044 A 
HETATM   33  C18 UNL     1      26.137   1.086  51.982  1.00  0.00     0.032 A 
ENDBRANCH  25  27
ENDBRANCH   7  25
TORSDOF 6
ENDMDL
