MODEL 1
REMARK VINA RESULT:      -8.8      0.000      0.000
REMARK  3 active torsions:
REMARK  status: ('A' for Active; 'I' for Inactive)
REMARK    1  A    between atoms: C10_12  and  N3_13 
REMARK    2  A    between atoms: C14_19  and  N5_20 
REMARK    3  A    between atoms: C19_26  and  N6_27 
ROOT
HETATM    1  N3  UNL     1      23.481   1.707  52.414  1.00  0.00    -0.272 NA
HETATM    2  C11 UNL     1      24.692   1.449  52.759  1.00  0.00     0.135 A 
HETATM    3  C12 UNL     1      25.345   2.560  53.441  1.00  0.00     0.272 A 
HETATM    4  O1  UNL     1      24.808   3.671  53.686  1.00  0.00    -0.266 OA
HETATM    5  N4  UNL     1      26.691   2.438  53.884  1.00  0.00    -0.319 N 
HETATM    6  C13 UNL     1      27.426   1.239  53.675  1.00  0.00     0.073 A 
HETATM    7  C14 UNL     1      28.733   1.054  54.077  1.00  0.00     0.053 A 
HETATM    8  C15 UNL     1      29.421  -0.125  53.858  1.00  0.00     0.034 A 
HETATM    9  C16 UNL     1      28.764  -1.134  53.217  1.00  0.00     0.045 A 
HETATM   10  C17 UNL     1      27.454  -0.958  52.809  1.00  0.00     0.127 A 
HETATM   11  F1  UNL     1      26.949  -2.072  52.181  1.00  0.00    -0.205 F 
HETATM   12  C18 UNL     1      26.765   0.231  53.032  1.00  0.00     0.048 A 
HETATM   13  C19 UNL     1      25.382   0.155  52.499  1.00  0.00     0.313 A 
HETATM   14  H16 UNL     1      27.192   3.221  54.379  1.00  0.00     0.169 HD
ENDROOT
BRANCH   1  15
HETATM   15  C10 UNL     1      22.598   0.785  51.723  1.00  0.00     0.162 C 
HETATM   16  C2  UNL     1      21.816   1.487  50.682  1.00  0.00    -0.031 C 
HETATM   17  C1  UNL     1      22.532   1.486  49.358  1.00  0.00     0.048 C 
HETATM   18  C3  UNL     1      20.648   2.093  50.688  1.00  0.00     0.042 C 
HETATM   19  C4  UNL     1      19.932   2.778  49.583  1.00  0.00     0.331 C 
HETATM   20  N2  UNL     1      19.827   2.195  51.845  1.00  0.00    -0.354 N 
HETATM   21  N1  UNL     1      19.149   3.777  50.298  1.00  0.00     0.107 N 
HETATM   22  C5  UNL     1      19.898   5.000  50.517  1.00  0.00     0.312 C 
HETATM   23  C6  UNL     1      18.772   3.149  51.552  1.00  0.00     0.398 C 
HETATM   24  C7  UNL     1      19.782   1.623  53.153  1.00  0.00     0.151 C 
HETATM   25  C8  UNL     1      20.626   0.450  53.371  1.00  0.00    -0.009 C 
HETATM   26  C9  UNL     1      21.768   0.138  52.772  1.00  0.00     0.002 C 
ENDBRANCH   1  15
BRANCH  13  27
HETATM   27  N6  UNL     1      24.656  -0.942  53.104  1.00  0.00     0.093 N 
HETATM   28  H22 UNL     1      24.715  -0.900  54.140  1.00  0.00     0.314 HD
HETATM   29  H23 UNL     1      24.879  -1.867  52.705  1.00  0.00     0.314 HD
ENDBRANCH  13  27
BRANCH   7  30
HETATM   30  N5  UNL     1      29.368   2.123  54.736  1.00  0.00    -0.397 N 
HETATM   31  H17 UNL     1      29.644   2.337  55.737  1.00  0.00     0.156 HD
HETATM   32  H18 UNL     1      29.725   3.007  54.302  1.00  0.00     0.156 HD
ENDBRANCH   7  30
TORSDOF 3
ENDMDL
MODEL 2
REMARK VINA RESULT:      -8.6      4.181      5.254
REMARK  3 active torsions:
REMARK  status: ('A' for Active; 'I' for Inactive)
REMARK    1  A    between atoms: C10_12  and  N3_13 
REMARK    2  A    between atoms: C14_19  and  N5_20 
REMARK    3  A    between atoms: C19_26  and  N6_27 
ROOT
HETATM    1  N3  UNL     1      23.534   3.471  51.299  1.00  0.00    -0.272 NA
HETATM    2  C11 UNL     1      24.262   4.456  50.907  1.00  0.00     0.135 A 
HETATM    3  C12 UNL     1      23.874   5.729  51.501  1.00  0.00     0.272 A 
HETATM    4  O1  UNL     1      22.931   5.887  52.319  1.00  0.00    -0.266 OA
HETATM    5  N4  UNL     1      24.578   6.920  51.168  1.00  0.00    -0.319 N 
HETATM    6  C13 UNL     1      25.668   6.897  50.255  1.00  0.00     0.073 A 
HETATM    7  C14 UNL     1      26.391   8.012  49.887  1.00  0.00     0.053 A 
HETATM    8  C15 UNL     1      27.446   7.956  48.995  1.00  0.00     0.034 A 
HETATM    9  C16 UNL     1      27.769   6.740  48.469  1.00  0.00     0.045 A 
HETATM   10  C17 UNL     1      27.049   5.615  48.831  1.00  0.00     0.127 A 
HETATM   11  F1  UNL     1      27.508   4.479  48.208  1.00  0.00    -0.205 F 
HETATM   12  C18 UNL     1      25.987   5.676  49.729  1.00  0.00     0.048 A 
HETATM   13  C19 UNL     1      25.391   4.334  49.944  1.00  0.00     0.313 A 
HETATM   14  H16 UNL     1      24.323   7.855  51.578  1.00  0.00     0.169 HD
ENDROOT
BRANCH   1  15
HETATM   15  C10 UNL     1      23.696   2.095  50.870  1.00  0.00     0.162 C 
HETATM   16  C2  UNL     1      22.418   1.547  50.364  1.00  0.00    -0.031 C 
HETATM   17  C1  UNL     1      22.262   1.783  48.885  1.00  0.00     0.048 C 
HETATM   18  C3  UNL     1      21.420   0.910  50.938  1.00  0.00     0.042 C 
HETATM   19  C4  UNL     1      20.162   0.392  50.346  1.00  0.00     0.331 C 
HETATM   20  N2  UNL     1      21.389   0.597  52.325  1.00  0.00    -0.354 N 
HETATM   21  N1  UNL     1      19.242   0.458  51.474  1.00  0.00     0.107 N 
HETATM   22  C5  UNL     1      18.608   1.758  51.583  1.00  0.00     0.312 C 
HETATM   23  C6  UNL     1      20.044   0.155  52.646  1.00  0.00     0.398 C 
HETATM   24  C7  UNL     1      22.302   0.608  53.424  1.00  0.00     0.151 C 
HETATM   25  C8  UNL     1      23.717   0.745  53.083  1.00  0.00    -0.009 C 
HETATM   26  C9  UNL     1      24.251   1.357  52.034  1.00  0.00     0.002 C 
ENDBRANCH   1  15
BRANCH  13  27
HETATM   27  N6  UNL     1      26.384   3.402  50.435  1.00  0.00     0.093 N 
HETATM   28  H22 UNL     1      27.292   3.880  50.599  1.00  0.00     0.314 HD
HETATM   29  H23 UNL     1      26.456   2.533  49.885  1.00  0.00     0.314 HD
ENDBRANCH  13  27
BRANCH   7  30
HETATM   30  N5  UNL     1      26.021   9.244  50.457  1.00  0.00    -0.397 N 
HETATM   31  H17 UNL     1      25.140   9.833  50.476  1.00  0.00     0.156 HD
HETATM   32  H18 UNL     1      26.623   9.876  51.037  1.00  0.00     0.156 HD
ENDBRANCH   7  30
TORSDOF 3
ENDMDL
MODEL 3
REMARK VINA RESULT:      -8.5      1.941      3.057
REMARK  3 active torsions:
REMARK  status: ('A' for Active; 'I' for Inactive)
REMARK    1  A    between atoms: C10_12  and  N3_13 
REMARK    2  A    between atoms: C14_19  and  N5_20 
REMARK    3  A    between atoms: C19_26  and  N6_27 
ROOT
HETATM    1  N3  UNL     1      21.655   3.167  51.381  1.00  0.00    -0.272 NA
HETATM    2  C11 UNL     1      22.709   2.710  51.957  1.00  0.00     0.135 A 
HETATM    3  C12 UNL     1      23.703   3.740  52.237  1.00  0.00     0.272 A 
HETATM    4  O1  UNL     1      23.576   4.960  51.960  1.00  0.00    -0.266 OA
HETATM    5  N4  UNL     1      24.931   3.397  52.869  1.00  0.00    -0.319 N 
HETATM    6  C13 UNL     1      25.216   2.055  53.239  1.00  0.00     0.073 A 
HETATM    7  C14 UNL     1      26.386   1.654  53.852  1.00  0.00     0.053 A 
HETATM    8  C15 UNL     1      26.633   0.339  54.200  1.00  0.00     0.034 A 
HETATM    9  C16 UNL     1      25.670  -0.585  53.916  1.00  0.00     0.045 A 
HETATM   10  C17 UNL     1      24.494  -0.194  53.301  1.00  0.00     0.127 A 
HETATM   11  F1  UNL     1      23.638  -1.249  53.091  1.00  0.00    -0.205 F 
HETATM   12  C18 UNL     1      24.249   1.132  52.953  1.00  0.00     0.048 A 
HETATM   13  C19 UNL     1      22.919   1.280  52.312  1.00  0.00     0.313 A 
HETATM   14  H16 UNL     1      25.670   4.116  53.084  1.00  0.00     0.169 HD
ENDROOT
BRANCH   1  15
HETATM   15  C10 UNL     1      20.509   2.369  50.988  1.00  0.00     0.162 C 
HETATM   16  C2  UNL     1      20.375   2.329  49.515  1.00  0.00    -0.031 C 
HETATM   17  C1  UNL     1      21.136   1.173  48.922  1.00  0.00     0.048 C 
HETATM   18  C3  UNL     1      19.737   3.084  48.648  1.00  0.00     0.042 C 
HETATM   19  C4  UNL     1      19.657   2.968  47.171  1.00  0.00     0.331 C 
HETATM   20  N2  UNL     1      18.965   4.219  49.020  1.00  0.00    -0.354 N 
HETATM   21  N1  UNL     1      19.462   4.354  46.764  1.00  0.00     0.107 N 
HETATM   22  C5  UNL     1      20.721   5.055  46.602  1.00  0.00     0.312 C 
HETATM   23  C6  UNL     1      18.648   4.953  47.808  1.00  0.00     0.398 C 
HETATM   24  C7  UNL     1      18.450   4.789  50.226  1.00  0.00     0.151 C 
HETATM   25  C8  UNL     1      18.482   3.929  51.407  1.00  0.00    -0.009 C 
HETATM   26  C9  UNL     1      19.335   2.952  51.687  1.00  0.00     0.002 C 
ENDBRANCH   1  15
BRANCH  13  27
HETATM   27  N6  UNL     1      21.869   0.810  53.190  1.00  0.00     0.093 N 
HETATM   28  H22 UNL     1      22.260   0.238  53.964  1.00  0.00     0.314 HD
HETATM   29  H23 UNL     1      21.072   0.374  52.701  1.00  0.00     0.314 HD
ENDBRANCH  13  27
BRANCH   7  30
HETATM   30  N5  UNL     1      27.348   2.643  54.125  1.00  0.00    -0.397 N 
HETATM   31  H17 UNL     1      27.456   3.674  53.902  1.00  0.00     0.156 HD
HETATM   32  H18 UNL     1      28.239   2.523  54.663  1.00  0.00     0.156 HD
ENDBRANCH   7  30
TORSDOF 3
ENDMDL
MODEL 4
REMARK VINA RESULT:      -7.9      3.980      7.287
REMARK  3 active torsions:
REMARK  status: ('A' for Active; 'I' for Inactive)
REMARK    1  A    between atoms: C10_12  and  N3_13 
REMARK    2  A    between atoms: C14_19  and  N5_20 
REMARK    3  A    between atoms: C19_26  and  N6_27 
ROOT
HETATM    1  N3  UNL     1      22.855   2.958  50.004  1.00  0.00    -0.272 NA
HETATM    2  C11 UNL     1      21.791   2.272  50.229  1.00  0.00     0.135 A 
HETATM    3  C12 UNL     1      20.932   2.143  49.058  1.00  0.00     0.272 A 
HETATM    4  O1  UNL     1      21.175   2.637  47.927  1.00  0.00    -0.266 OA
HETATM    5  N4  UNL     1      19.712   1.416  49.141  1.00  0.00    -0.319 N 
HETATM    6  C13 UNL     1      19.304   0.803  50.357  1.00  0.00     0.073 A 
HETATM    7  C14 UNL     1      18.134   0.087  50.507  1.00  0.00     0.053 A 
HETATM    8  C15 UNL     1      17.766  -0.497  51.705  1.00  0.00     0.034 A 
HETATM    9  C16 UNL     1      18.606  -0.348  52.769  1.00  0.00     0.045 A 
HETATM   10  C17 UNL     1      19.780   0.369  52.630  1.00  0.00     0.127 A 
HETATM   11  F1  UNL     1      20.504   0.420  53.798  1.00  0.00    -0.205 F 
HETATM   12  C18 UNL     1      20.148   0.956  51.421  1.00  0.00     0.048 A 
HETATM   13  C19 UNL     1      21.448   1.661  51.543  1.00  0.00     0.313 A 
HETATM   14  H16 UNL     1      19.068   1.305  48.315  1.00  0.00     0.169 HD
ENDROOT
BRANCH   1  15
HETATM   15  C10 UNL     1      23.884   3.243  50.986  1.00  0.00     0.162 C 
HETATM   16  C2  UNL     1      23.837   4.663  51.399  1.00  0.00    -0.031 C 
HETATM   17  C1  UNL     1      22.927   4.865  52.582  1.00  0.00     0.048 C 
HETATM   18  C3  UNL     1      24.421   5.753  50.948  1.00  0.00     0.042 C 
HETATM   19  C4  UNL     1      24.314   7.152  51.430  1.00  0.00     0.331 C 
HETATM   20  N2  UNL     1      25.313   5.759  49.840  1.00  0.00    -0.354 N 
HETATM   21  N1  UNL     1      24.561   7.915  50.213  1.00  0.00     0.107 N 
HETATM   22  C5  UNL     1      23.346   8.128  49.449  1.00  0.00     0.312 C 
HETATM   23  C6  UNL     1      25.535   7.143  49.462  1.00  0.00     0.398 C 
HETATM   24  C7  UNL     1      26.008   4.794  49.048  1.00  0.00     0.151 C 
HETATM   25  C8  UNL     1      26.055   3.435  49.584  1.00  0.00    -0.009 C 
HETATM   26  C9  UNL     1      25.173   2.834  50.371  1.00  0.00     0.002 C 
ENDBRANCH   1  15
BRANCH  13  27
HETATM   27  N6  UNL     1      22.489   0.752  51.973  1.00  0.00     0.093 N 
HETATM   28  H22 UNL     1      22.742   0.091  51.212  1.00  0.00     0.314 HD
HETATM   29  H23 UNL     1      22.307   0.301  52.882  1.00  0.00     0.314 HD
ENDBRANCH  13  27
BRANCH   7  30
HETATM   30  N5  UNL     1      17.301  -0.041  49.381  1.00  0.00    -0.397 N 
HETATM   31  H17 UNL     1      16.257  -0.123  49.219  1.00  0.00     0.156 HD
HETATM   32  H18 UNL     1      17.601  -0.081  48.377  1.00  0.00     0.156 HD
ENDBRANCH   7  30
TORSDOF 3
ENDMDL
MODEL 5
REMARK VINA RESULT:      -7.8      2.557      3.643
REMARK  3 active torsions:
REMARK  status: ('A' for Active; 'I' for Inactive)
REMARK    1  A    between atoms: C10_12  and  N3_13 
REMARK    2  A    between atoms: C14_19  and  N5_20 
REMARK    3  A    between atoms: C19_26  and  N6_27 
ROOT
HETATM    1  N3  UNL     1      22.799   2.301  50.819  1.00  0.00    -0.272 NA
HETATM    2  C11 UNL     1      23.610   1.788  51.675  1.00  0.00     0.135 A 
HETATM    3  C12 UNL     1      23.019   0.701  52.447  1.00  0.00     0.272 A 
HETATM    4  O1  UNL     1      21.841   0.280  52.314  1.00  0.00    -0.266 OA
HETATM    5  N4  UNL     1      23.784   0.030  53.441  1.00  0.00    -0.319 N 
HETATM    6  C13 UNL     1      25.131   0.399  53.704  1.00  0.00     0.073 A 
HETATM    7  C14 UNL     1      25.927  -0.208  54.653  1.00  0.00     0.053 A 
HETATM    8  C15 UNL     1      27.236   0.175  54.885  1.00  0.00     0.034 A 
HETATM    9  C16 UNL     1      27.740   1.196  54.135  1.00  0.00     0.045 A 
HETATM   10  C17 UNL     1      26.950   1.812  53.181  1.00  0.00     0.127 A 
HETATM   11  F1  UNL     1      27.616   2.817  52.520  1.00  0.00    -0.205 F 
HETATM   12  C18 UNL     1      25.633   1.423  52.951  1.00  0.00     0.048 A 
HETATM   13  C19 UNL     1      25.014   2.241  51.878  1.00  0.00     0.313 A 
HETATM   14  H16 UNL     1      23.387  -0.758  54.016  1.00  0.00     0.169 HD
ENDROOT
BRANCH   1  15
HETATM   15  C10 UNL     1      23.121   3.392  49.919  1.00  0.00     0.162 C 
HETATM   16  C2  UNL     1      22.146   4.496  50.061  1.00  0.00    -0.031 C 
HETATM   17  C1  UNL     1      22.582   5.488  51.107  1.00  0.00     0.048 C 
HETATM   18  C3  UNL     1      21.005   4.772  49.467  1.00  0.00     0.042 C 
HETATM   19  C4  UNL     1      20.082   5.915  49.676  1.00  0.00     0.331 C 
HETATM   20  N2  UNL     1      20.433   3.952  48.455  1.00  0.00    -0.354 N 
HETATM   21  N1  UNL     1      18.792   5.337  49.318  1.00  0.00     0.107 N 
HETATM   22  C5  UNL     1      18.163   4.674  50.444  1.00  0.00     0.312 C 
HETATM   23  C6  UNL     1      19.071   4.406  48.239  1.00  0.00     0.398 C 
HETATM   24  C7  UNL     1      20.842   2.851  47.641  1.00  0.00     0.151 C 
HETATM   25  C8  UNL     1      22.277   2.574  47.610  1.00  0.00    -0.009 C 
HETATM   26  C9  UNL     1      23.178   2.807  48.555  1.00  0.00     0.002 C 
ENDBRANCH   1  15
BRANCH  13  27
HETATM   27  N6  UNL     1      25.769   2.134  50.648  1.00  0.00     0.093 N 
HETATM   28  H22 UNL     1      26.310   3.003  50.468  1.00  0.00     0.314 HD
HETATM   29  H23 UNL     1      25.219   1.803  49.841  1.00  0.00     0.314 HD
ENDBRANCH  13  27
BRANCH   7  30
HETATM   30  N5  UNL     1      25.362  -1.258  55.401  1.00  0.00    -0.397 N 
HETATM   31  H17 UNL     1      25.721  -1.956  56.112  1.00  0.00     0.156 HD
HETATM   32  H18 UNL     1      24.364  -1.574  55.387  1.00  0.00     0.156 HD
ENDBRANCH   7  30
TORSDOF 3
ENDMDL
MODEL 6
REMARK VINA RESULT:      -7.8      4.823      5.576
REMARK  3 active torsions:
REMARK  status: ('A' for Active; 'I' for Inactive)
REMARK    1  A    between atoms: C10_12  and  N3_13 
REMARK    2  A    between atoms: C14_19  and  N5_20 
REMARK    3  A    between atoms: C19_26  and  N6_27 
ROOT
HETATM    1  N3  UNL     1      23.433   4.989  50.668  1.00  0.00    -0.272 NA
HETATM    2  C11 UNL     1      24.438   5.683  50.268  1.00  0.00     0.135 A 
HETATM    3  C12 UNL     1      24.313   7.104  50.572  1.00  0.00     0.272 A 
HETATM    4  O1  UNL     1      23.338   7.631  51.166  1.00  0.00    -0.266 OA
HETATM    5  N4  UNL     1      25.341   8.011  50.191  1.00  0.00    -0.319 N 
HETATM    6  C13 UNL     1      26.504   7.559  49.511  1.00  0.00     0.073 A 
HETATM    7  C14 UNL     1      27.536   8.384  49.112  1.00  0.00     0.053 A 
HETATM    8  C15 UNL     1      28.655   7.912  48.451  1.00  0.00     0.034 A 
HETATM    9  C16 UNL     1      28.723   6.574  48.192  1.00  0.00     0.045 A 
HETATM   10  C17 UNL     1      27.693   5.739  48.587  1.00  0.00     0.127 A 
HETATM   11  F1  UNL     1      27.925   4.427  48.246  1.00  0.00    -0.205 F 
HETATM   12  C18 UNL     1      26.568   6.218  49.253  1.00  0.00     0.048 A 
HETATM   13  C19 UNL     1      25.621   5.118  49.562  1.00  0.00     0.313 A 
HETATM   14  H16 UNL     1      25.282   9.042  50.395  1.00  0.00     0.169 HD
ENDROOT
BRANCH   1  15
HETATM   15  C10 UNL     1      23.292   3.555  50.499  1.00  0.00     0.162 C 
HETATM   16  C2  UNL     1      22.224   3.242  49.525  1.00  0.00    -0.031 C 
HETATM   17  C1  UNL     1      22.762   3.157  48.121  1.00  0.00     0.048 C 
HETATM   18  C3  UNL     1      20.931   3.029  49.644  1.00  0.00     0.042 C 
HETATM   19  C4  UNL     1      19.923   2.718  48.599  1.00  0.00     0.331 C 
HETATM   20  N2  UNL     1      20.244   3.066  50.889  1.00  0.00    -0.354 N 
HETATM   21  N1  UNL     1      18.705   3.275  49.173  1.00  0.00     0.107 N 
HETATM   22  C5  UNL     1      18.546   4.681  48.853  1.00  0.00     0.312 C 
HETATM   23  C6  UNL     1      18.820   3.064  50.605  1.00  0.00     0.398 C 
HETATM   24  C7  UNL     1      20.587   3.105  52.275  1.00  0.00     0.151 C 
HETATM   25  C8  UNL     1      21.978   2.800  52.602  1.00  0.00    -0.009 C 
HETATM   26  C9  UNL     1      23.057   2.996  51.856  1.00  0.00     0.002 C 
ENDBRANCH   1  15
BRANCH  13  27
HETATM   27  N6  UNL     1      26.261   4.100  50.369  1.00  0.00     0.093 N 
HETATM   28  H22 UNL     1      26.530   4.478  51.298  1.00  0.00     0.314 HD
HETATM   29  H23 UNL     1      27.014   3.589  49.884  1.00  0.00     0.314 HD
ENDBRANCH  13  27
BRANCH   7  30
HETATM   30  N5  UNL     1      27.421   9.755  49.403  1.00  0.00    -0.397 N 
HETATM   31  H17 UNL     1      28.081  10.584  49.406  1.00  0.00     0.156 HD
HETATM   32  H18 UNL     1      26.557  10.264  49.706  1.00  0.00     0.156 HD
ENDBRANCH   7  30
TORSDOF 3
ENDMDL
MODEL 7
REMARK VINA RESULT:      -7.7      8.931      9.900
REMARK  3 active torsions:
REMARK  status: ('A' for Active; 'I' for Inactive)
REMARK    1  A    between atoms: C10_12  and  N3_13 
REMARK    2  A    between atoms: C14_19  and  N5_20 
REMARK    3  A    between atoms: C19_26  and  N6_27 
ROOT
HETATM    1  N3  UNL     1      29.819   7.520  48.276  1.00  0.00    -0.272 NA
HETATM    2  C11 UNL     1      30.883   6.799  48.270  1.00  0.00     0.135 A 
HETATM    3  C12 UNL     1      31.927   7.305  49.154  1.00  0.00     0.272 A 
HETATM    4  O1  UNL     1      31.830   8.337  49.866  1.00  0.00    -0.266 OA
HETATM    5  N4  UNL     1      33.170   6.623  49.259  1.00  0.00    -0.319 N 
HETATM    6  C13 UNL     1      33.425   5.441  48.511  1.00  0.00     0.073 A 
HETATM    7  C14 UNL     1      34.607   4.732  48.564  1.00  0.00     0.053 A 
HETATM    8  C15 UNL     1      34.823   3.585  47.823  1.00  0.00     0.034 A 
HETATM    9  C16 UNL     1      33.814   3.154  47.012  1.00  0.00     0.045 A 
HETATM   10  C17 UNL     1      32.625   3.857  46.951  1.00  0.00     0.127 A 
HETATM   11  F1  UNL     1      31.723   3.284  46.087  1.00  0.00    -0.205 F 
HETATM   12  C18 UNL     1      32.412   5.012  47.699  1.00  0.00     0.048 A 
HETATM   13  C19 UNL     1      31.058   5.568  47.451  1.00  0.00     0.313 A 
HETATM   14  H16 UNL     1      33.944   6.962  49.887  1.00  0.00     0.169 HD
ENDROOT
BRANCH   1  15
HETATM   15  C10 UNL     1      28.628   7.251  47.494  1.00  0.00     0.162 C 
HETATM   16  C2  UNL     1      28.277   8.416  46.651  1.00  0.00    -0.031 C 
HETATM   17  C1  UNL     1      28.941   8.343  45.302  1.00  0.00     0.048 C 
HETATM   18  C3  UNL     1      27.518   9.473  46.846  1.00  0.00     0.042 C 
HETATM   19  C4  UNL     1      27.220  10.605  45.934  1.00  0.00     0.331 C 
HETATM   20  N2  UNL     1      26.811   9.714  48.057  1.00  0.00    -0.354 N 
HETATM   21  N1  UNL     1      26.968  11.694  46.870  1.00  0.00     0.107 N 
HETATM   22  C5  UNL     1      28.190  12.376  47.253  1.00  0.00     0.312 C 
HETATM   23  C6  UNL     1      26.319  11.080  48.014  1.00  0.00     0.398 C 
HETATM   24  C7  UNL     1      26.480   8.987  49.241  1.00  0.00     0.151 C 
HETATM   25  C8  UNL     1      26.686   7.541  49.186  1.00  0.00    -0.009 C 
HETATM   26  C9  UNL     1      27.570   6.866  48.464  1.00  0.00     0.002 C 
ENDBRANCH   1  15
BRANCH  13  27
HETATM   27  N6  UNL     1      30.035   4.593  47.767  1.00  0.00     0.093 N 
HETATM   28  H22 UNL     1      29.141   5.060  48.015  1.00  0.00     0.314 HD
HETATM   29  H23 UNL     1      30.335   3.869  48.438  1.00  0.00     0.314 HD
ENDBRANCH  13  27
BRANCH   7  30
HETATM   30  N5  UNL     1      35.617   5.216  49.415  1.00  0.00    -0.397 N 
HETATM   31  H17 UNL     1      35.925   6.172  49.754  1.00  0.00     0.156 HD
HETATM   32  H18 UNL     1      36.332   4.649  49.930  1.00  0.00     0.156 HD
ENDBRANCH   7  30
TORSDOF 3
ENDMDL
MODEL 8
REMARK VINA RESULT:      -7.6      9.562     10.709
REMARK  3 active torsions:
REMARK  status: ('A' for Active; 'I' for Inactive)
REMARK    1  A    between atoms: C10_12  and  N3_13 
REMARK    2  A    between atoms: C14_19  and  N5_20 
REMARK    3  A    between atoms: C19_26  and  N6_27 
ROOT
HETATM    1  N3  UNL     1      30.549   7.820  47.188  1.00  0.00    -0.272 NA
HETATM    2  C11 UNL     1      31.480   7.081  46.696  1.00  0.00     0.135 A 
HETATM    3  C12 UNL     1      31.948   7.539  45.392  1.00  0.00     0.272 A 
HETATM    4  O1  UNL     1      31.511   8.549  44.783  1.00  0.00    -0.266 OA
HETATM    5  N4  UNL     1      32.973   6.827  44.709  1.00  0.00    -0.319 N 
HETATM    6  C13 UNL     1      33.561   5.663  45.275  1.00  0.00     0.073 A 
HETATM    7  C14 UNL     1      34.556   4.927  44.667  1.00  0.00     0.053 A 
HETATM    8  C15 UNL     1      35.108   3.798  45.245  1.00  0.00     0.034 A 
HETATM    9  C16 UNL     1      34.635   3.414  46.465  1.00  0.00     0.045 A 
HETATM   10  C17 UNL     1      33.637   4.145  47.083  1.00  0.00     0.127 A 
HETATM   11  F1  UNL     1      33.282   3.618  48.303  1.00  0.00    -0.205 F 
HETATM   12  C18 UNL     1      33.084   5.281  46.498  1.00  0.00     0.048 A 
HETATM   13  C19 UNL     1      32.039   5.876  47.367  1.00  0.00     0.313 A 
HETATM   14  H16 UNL     1      33.333   7.130  43.767  1.00  0.00     0.169 HD
ENDROOT
BRANCH   1  15
HETATM   15  C10 UNL     1      29.902   7.599  48.467  1.00  0.00     0.162 C 
HETATM   16  C2  UNL     1      28.499   7.169  48.280  1.00  0.00    -0.031 C 
HETATM   17  C1  UNL     1      28.388   5.670  48.187  1.00  0.00     0.048 C 
HETATM   18  C3  UNL     1      27.361   7.823  48.182  1.00  0.00     0.042 C 
HETATM   19  C4  UNL     1      25.984   7.302  47.993  1.00  0.00     0.331 C 
HETATM   20  N2  UNL     1      27.267   9.240  48.248  1.00  0.00    -0.354 N 
HETATM   21  N1  UNL     1      25.336   8.401  47.288  1.00  0.00     0.107 N 
HETATM   22  C5  UNL     1      25.525   8.313  45.852  1.00  0.00     0.312 C 
HETATM   23  C6  UNL     1      25.927   9.612  47.831  1.00  0.00     0.398 C 
HETATM   24  C7  UNL     1      28.117  10.333  48.602  1.00  0.00     0.151 C 
HETATM   25  C8  UNL     1      29.348   9.986  49.311  1.00  0.00    -0.009 C 
HETATM   26  C9  UNL     1      30.050   8.864  49.233  1.00  0.00     0.002 C 
ENDBRANCH   1  15
BRANCH  13  27
HETATM   27  N6  UNL     1      32.581   6.218  48.665  1.00  0.00     0.093 N 
HETATM   28  H22 UNL     1      32.777   7.236  48.729  1.00  0.00     0.314 HD
HETATM   29  H23 UNL     1      33.362   5.616  48.968  1.00  0.00     0.314 HD
ENDBRANCH  13  27
BRANCH   7  30
HETATM   30  N5  UNL     1      35.012   5.363  43.410  1.00  0.00    -0.397 N 
HETATM   31  H17 UNL     1      35.955   5.600  42.989  1.00  0.00     0.156 HD
HETATM   32  H18 UNL     1      34.428   5.556  42.561  1.00  0.00     0.156 HD
ENDBRANCH   7  30
TORSDOF 3
ENDMDL
MODEL 9
REMARK VINA RESULT:      -7.6      5.762      7.183
REMARK  3 active torsions:
REMARK  status: ('A' for Active; 'I' for Inactive)
REMARK    1  A    between atoms: C10_12  and  N3_13 
REMARK    2  A    between atoms: C14_19  and  N5_20 
REMARK    3  A    between atoms: C19_26  and  N6_27 
ROOT
HETATM    1  N3  UNL     1      24.549   4.702  49.004  1.00  0.00    -0.272 NA
HETATM    2  C11 UNL     1      25.411   5.656  48.971  1.00  0.00     0.135 A 
HETATM    3  C12 UNL     1      26.790   5.185  49.016  1.00  0.00     0.272 A 
HETATM    4  O1  UNL     1      27.139   3.978  49.078  1.00  0.00    -0.266 OA
HETATM    5  N4  UNL     1      27.866   6.115  48.992  1.00  0.00    -0.319 N 
HETATM    6  C13 UNL     1      27.625   7.515  48.924  1.00  0.00     0.073 A 
HETATM    7  C14 UNL     1      28.620   8.470  48.899  1.00  0.00     0.053 A 
HETATM    8  C15 UNL     1      28.351   9.825  48.833  1.00  0.00     0.034 A 
HETATM    9  C16 UNL     1      27.044  10.212  48.792  1.00  0.00     0.045 A 
HETATM   10  C17 UNL     1      26.039   9.262  48.818  1.00  0.00     0.127 A 
HETATM   11  F1  UNL     1      24.786   9.826  48.770  1.00  0.00    -0.205 F 
HETATM   12  C18 UNL     1      26.313   7.899  48.884  1.00  0.00     0.048 A 
HETATM   13  C19 UNL     1      25.062   7.101  48.896  1.00  0.00     0.313 A 
HETATM   14  H16 UNL     1      28.873   5.809  49.023  1.00  0.00     0.169 HD
ENDROOT
BRANCH   1  15
HETATM   15  C10 UNL     1      23.109   4.881  48.972  1.00  0.00     0.162 C 
HETATM   16  C2  UNL     1      22.504   4.511  50.270  1.00  0.00    -0.031 C 
HETATM   17  C1  UNL     1      22.433   5.690  51.204  1.00  0.00     0.048 C 
HETATM   18  C3  UNL     1      22.028   3.383  50.753  1.00  0.00     0.042 C 
HETATM   19  C4  UNL     1      21.433   3.100  52.082  1.00  0.00     0.331 C 
HETATM   20  N2  UNL     1      22.010   2.165  50.018  1.00  0.00    -0.354 N 
HETATM   21  N1  UNL     1      21.756   1.691  52.269  1.00  0.00     0.107 N 
HETATM   22  C5  UNL     1      23.068   1.509  52.862  1.00  0.00     0.312 C 
HETATM   23  C6  UNL     1      21.681   1.097  50.946  1.00  0.00     0.398 C 
HETATM   24  C7  UNL     1      22.223   1.751  48.668  1.00  0.00     0.151 C 
HETATM   25  C8  UNL     1      22.248   2.815  47.666  1.00  0.00    -0.009 C 
HETATM   26  C9  UNL     1      22.615   4.080  47.822  1.00  0.00     0.002 C 
ENDBRANCH   1  15
BRANCH  13  27
HETATM   27  N6  UNL     1      24.265   7.375  47.718  1.00  0.00     0.093 N 
HETATM   28  H22 UNL     1      23.672   6.558  47.473  1.00  0.00     0.314 HD
HETATM   29  H23 UNL     1      24.801   7.763  46.927  1.00  0.00     0.314 HD
ENDBRANCH  13  27
BRANCH   7  30
HETATM   30  N5  UNL     1      29.952   8.022  48.942  1.00  0.00    -0.397 N 
HETATM   31  H17 UNL     1      30.878   8.435  49.250  1.00  0.00     0.156 HD
HETATM   32  H18 UNL     1      30.312   7.085  48.640  1.00  0.00     0.156 HD
ENDBRANCH   7  30
TORSDOF 3
ENDMDL
