MODEL 1
REMARK VINA RESULT:      -7.9      0.000      0.000
REMARK  9 active torsions:
REMARK  status: ('A' for Active; 'I' for Inactive)
REMARK    1  A    between atoms: C2_2  and  C3_3 
REMARK    2  A    between atoms: C3_3  and  C4_4 
REMARK    3  A    between atoms: C4_4  and  C5_5 
REMARK    4  A    between atoms: C5_5  and  C6_6 
REMARK    5  A    between atoms: C6_6  and  O1_7 
REMARK    6  A    between atoms: O1_7  and  C7_8 
REMARK    7  A    between atoms: C9_10  and  N1_11 
REMARK    8  A    between atoms: N1_11  and  C10_12 
REMARK    9  A    between atoms: C20_26  and  O2_27 
ROOT
HETATM    1  C7  UNL     1      24.480   0.771  52.739  1.00  0.00     0.102 A 
HETATM    2  C8  UNL     1      24.687   2.033  52.320  1.00  0.00     0.074 A 
HETATM    3  C9  UNL     1      23.599   2.945  51.967  1.00  0.00     0.193 A 
HETATM    4  N2  UNL     1      23.603   4.215  52.689  1.00  0.00    -0.244 NA
HETATM    5  C16 UNL     1      22.562   4.981  52.522  1.00  0.00     0.102 C 
HETATM    6  C17 UNL     1      21.624   4.525  51.678  1.00  0.00     0.150 C 
HETATM    7  N3  UNL     1      21.343   3.156  52.061  1.00  0.00    -0.258 NA
HETATM    8  C18 UNL     1      22.302   2.285  52.230  1.00  0.00     0.091 A 
HETATM    9  C19 UNL     1      22.030   0.917  52.657  1.00  0.00     0.071 A 
HETATM   10  C20 UNL     1      23.134   0.191  52.908  1.00  0.00     0.103 A 
ENDROOT
BRANCH   3  11
HETATM   11  N1  UNL     1      23.747   3.209  50.522  1.00  0.00    -0.354 N 
HETATM   12  H15 UNL     1      22.969   2.853  49.907  1.00  0.00     0.163 HD
BRANCH  11  13
HETATM   13  C10 UNL     1      24.819   3.882  49.924  1.00  0.00     0.032 A 
HETATM   14  C11 UNL     1      26.087   3.393  49.758  1.00  0.00     0.032 A 
HETATM   15  C12 UNL     1      27.134   4.058  49.160  1.00  0.00     0.046 A 
HETATM   16  C13 UNL     1      26.902   5.327  48.683  1.00  0.00     0.138 A 
HETATM   17  F1  UNL     1      27.913   6.009  48.088  1.00  0.00    -0.204 F 
HETATM   18  C14 UNL     1      25.651   5.869  48.821  1.00  0.00     0.074 A 
HETATM   19 CL1  UNL     1      25.331   7.481  48.222  1.00  0.00    -0.081 Cl
HETATM   20  C15 UNL     1      24.641   5.156  49.428  1.00  0.00     0.056 A 
ENDBRANCH  11  13
ENDBRANCH   3  11
BRANCH   1  21
HETATM   21  O1  UNL     1      25.456  -0.184  53.093  1.00  0.00    -0.348 OA
BRANCH  21  22
HETATM   22  C6  UNL     1      26.587  -0.402  52.258  1.00  0.00     0.176 C 
BRANCH  22  23
HETATM   23  C5  UNL     1      27.466  -1.418  52.958  1.00  0.00     0.027 C 
BRANCH  23  24
HETATM   24  C4  UNL     1      28.789  -0.817  53.381  1.00  0.00     0.002 C 
BRANCH  24  25
HETATM   25  C3  UNL     1      28.547   0.127  54.554  1.00  0.00    -0.000 C 
BRANCH  25  26
HETATM   26  C2  UNL     1      29.291   1.410  54.300  1.00  0.00    -0.005 C 
HETATM   27  C1  UNL     1      28.432   2.390  53.556  1.00  0.00     0.005 C 
ENDBRANCH  25  26
ENDBRANCH  24  25
ENDBRANCH  23  24
ENDBRANCH  22  23
ENDBRANCH  21  22
ENDBRANCH   1  21
BRANCH  10  28
HETATM   28  O2  UNL     1      22.837  -1.084  53.316  1.00  0.00    -0.353 OA
HETATM   29  C21 UNL     1      21.854  -1.470  54.231  1.00  0.00     0.210 C 
ENDBRANCH  10  28
TORSDOF 9
ENDMDL
MODEL 2
REMARK VINA RESULT:      -7.7      3.838      7.189
REMARK  9 active torsions:
REMARK  status: ('A' for Active; 'I' for Inactive)
REMARK    1  A    between atoms: C2_2  and  C3_3 
REMARK    2  A    between atoms: C3_3  and  C4_4 
REMARK    3  A    between atoms: C4_4  and  C5_5 
REMARK    4  A    between atoms: C5_5  and  C6_6 
REMARK    5  A    between atoms: C6_6  and  O1_7 
REMARK    6  A    between atoms: O1_7  and  C7_8 
REMARK    7  A    between atoms: C9_10  and  N1_11 
REMARK    8  A    between atoms: N1_11  and  C10_12 
REMARK    9  A    between atoms: C20_26  and  O2_27 
ROOT
HETATM    1  C7  UNL     1      24.577   3.201  52.227  1.00  0.00     0.102 A 
HETATM    2  C8  UNL     1      24.548   2.276  53.204  1.00  0.00     0.074 A 
HETATM    3  C9  UNL     1      25.505   1.173  53.287  1.00  0.00     0.193 A 
HETATM    4  N2  UNL     1      26.228   1.081  54.552  1.00  0.00    -0.244 NA
HETATM    5  C16 UNL     1      27.202   0.216  54.602  1.00  0.00     0.102 C 
HETATM    6  C17 UNL     1      27.402  -0.512  53.493  1.00  0.00     0.150 C 
HETATM    7  N3  UNL     1      27.442   0.417  52.382  1.00  0.00    -0.258 NA
HETATM    8  C18 UNL     1      26.507   1.312  52.207  1.00  0.00     0.091 A 
HETATM    9  C19 UNL     1      26.563   2.279  51.117  1.00  0.00     0.071 A 
HETATM   10  C20 UNL     1      25.592   3.209  51.157  1.00  0.00     0.103 A 
ENDROOT
BRANCH   3  11
HETATM   11  N1  UNL     1      24.718  -0.060  53.088  1.00  0.00    -0.354 N 
HETATM   12  H15 UNL     1      25.257  -0.904  52.760  1.00  0.00     0.163 HD
BRANCH  11  13
HETATM   13  C10 UNL     1      23.339  -0.187  53.297  1.00  0.00     0.032 A 
HETATM   14  C11 UNL     1      22.734  -0.609  54.451  1.00  0.00     0.032 A 
HETATM   15  C12 UNL     1      21.377  -0.722  54.651  1.00  0.00     0.046 A 
HETATM   16  C13 UNL     1      20.541  -0.385  53.611  1.00  0.00     0.138 A 
HETATM   17  F1  UNL     1      19.199  -0.485  53.778  1.00  0.00    -0.204 F 
HETATM   18  C14 UNL     1      21.091   0.044  52.432  1.00  0.00     0.074 A 
HETATM   19 CL1  UNL     1      20.050   0.478  51.095  1.00  0.00    -0.081 Cl
HETATM   20  C15 UNL     1      22.458   0.137  52.288  1.00  0.00     0.056 A 
ENDBRANCH  11  13
ENDBRANCH   3  11
BRANCH   1  21
HETATM   21  O1  UNL     1      23.699   4.292  52.055  1.00  0.00    -0.348 OA
BRANCH  21  22
HETATM   22  C6  UNL     1      22.303   4.138  52.286  1.00  0.00     0.176 C 
BRANCH  22  23
HETATM   23  C5  UNL     1      21.667   3.808  50.952  1.00  0.00     0.027 C 
BRANCH  23  24
HETATM   24  C4  UNL     1      22.228   4.665  49.837  1.00  0.00     0.002 C 
BRANCH  24  25
HETATM   25  C3  UNL     1      22.476   3.785  48.617  1.00  0.00    -0.000 C 
BRANCH  25  26
HETATM   26  C2  UNL     1      22.625   2.359  49.075  1.00  0.00    -0.005 C 
HETATM   27  C1  UNL     1      21.908   1.421  48.148  1.00  0.00     0.005 C 
ENDBRANCH  25  26
ENDBRANCH  24  25
ENDBRANCH  23  24
ENDBRANCH  22  23
ENDBRANCH  21  22
ENDBRANCH   1  21
BRANCH  10  28
HETATM   28  O2  UNL     1      25.685   4.104  50.122  1.00  0.00    -0.353 OA
HETATM   29  C21 UNL     1      26.757   4.267  49.241  1.00  0.00     0.210 C 
ENDBRANCH  10  28
TORSDOF 9
ENDMDL
MODEL 3
REMARK VINA RESULT:      -7.5      3.064      5.784
REMARK  9 active torsions:
REMARK  status: ('A' for Active; 'I' for Inactive)
REMARK    1  A    between atoms: C2_2  and  C3_3 
REMARK    2  A    between atoms: C3_3  and  C4_4 
REMARK    3  A    between atoms: C4_4  and  C5_5 
REMARK    4  A    between atoms: C5_5  and  C6_6 
REMARK    5  A    between atoms: C6_6  and  O1_7 
REMARK    6  A    between atoms: O1_7  and  C7_8 
REMARK    7  A    between atoms: C9_10  and  N1_11 
REMARK    8  A    between atoms: N1_11  and  C10_12 
REMARK    9  A    between atoms: C20_26  and  O2_27 
ROOT
HETATM    1  C7  UNL     1      22.796   2.291  50.967  1.00  0.00     0.102 A 
HETATM    2  C8  UNL     1      23.345   1.199  51.529  1.00  0.00     0.074 A 
HETATM    3  C9  UNL     1      22.811   0.570  52.738  1.00  0.00     0.193 A 
HETATM    4  N2  UNL     1      22.493  -0.849  52.604  1.00  0.00    -0.244 NA
HETATM    5  C16 UNL     1      21.866  -1.400  53.604  1.00  0.00     0.102 C 
HETATM    6  C17 UNL     1      21.616  -0.604  54.655  1.00  0.00     0.150 C 
HETATM    7  N3  UNL     1      21.023   0.610  54.131  1.00  0.00    -0.258 NA
HETATM    8  C18 UNL     1      21.574   1.270  53.148  1.00  0.00     0.091 A 
HETATM    9  C19 UNL     1      20.960   2.468  52.587  1.00  0.00     0.071 A 
HETATM   10  C20 UNL     1      21.588   2.948  51.500  1.00  0.00     0.103 A 
ENDROOT
BRANCH   3  11
HETATM   11  N1  UNL     1      23.852   0.738  53.773  1.00  0.00    -0.354 N 
HETATM   12  H15 UNL     1      23.521   1.105  54.703  1.00  0.00     0.163 HD
BRANCH  11  13
HETATM   13  C10 UNL     1      25.213   0.452  53.611  1.00  0.00     0.032 A 
HETATM   14  C11 UNL     1      25.752  -0.779  53.349  1.00  0.00     0.032 A 
HETATM   15  C12 UNL     1      27.092  -1.050  53.181  1.00  0.00     0.046 A 
HETATM   16  C13 UNL     1      27.979  -0.003  53.284  1.00  0.00     0.138 A 
HETATM   17  F1  UNL     1      29.306  -0.238  53.123  1.00  0.00    -0.204 F 
HETATM   18  C14 UNL     1      27.495   1.252  53.545  1.00  0.00     0.074 A 
HETATM   19 CL1  UNL     1      28.603   2.599  53.680  1.00  0.00    -0.081 Cl
HETATM   20  C15 UNL     1      26.144   1.464  53.703  1.00  0.00     0.056 A 
ENDBRANCH  11  13
ENDBRANCH   3  11
BRANCH   1  21
HETATM   21  O1  UNL     1      23.238   2.973  49.813  1.00  0.00    -0.348 OA
BRANCH  21  22
HETATM   22  C6  UNL     1      24.622   3.241  49.620  1.00  0.00     0.176 C 
BRANCH  22  23
HETATM   23  C5  UNL     1      24.826   4.721  49.869  1.00  0.00     0.027 C 
BRANCH  23  24
HETATM   24  C4  UNL     1      25.891   5.299  48.962  1.00  0.00     0.002 C 
BRANCH  24  25
HETATM   25  C3  UNL     1      27.146   4.438  49.066  1.00  0.00    -0.000 C 
BRANCH  25  26
HETATM   26  C2  UNL     1      28.279   5.157  48.385  1.00  0.00    -0.005 C 
HETATM   27  C1  UNL     1      28.007   6.631  48.303  1.00  0.00     0.005 C 
ENDBRANCH  25  26
ENDBRANCH  24  25
ENDBRANCH  23  24
ENDBRANCH  22  23
ENDBRANCH  21  22
ENDBRANCH   1  21
BRANCH  10  28
HETATM   28  O2  UNL     1      20.975   4.067  50.996  1.00  0.00    -0.353 OA
HETATM   29  C21 UNL     1      21.379   5.396  51.156  1.00  0.00     0.210 C 
ENDBRANCH  10  28
TORSDOF 9
ENDMDL
MODEL 4
REMARK VINA RESULT:      -7.2      3.476      6.194
REMARK  9 active torsions:
REMARK  status: ('A' for Active; 'I' for Inactive)
REMARK    1  A    between atoms: C2_2  and  C3_3 
REMARK    2  A    between atoms: C3_3  and  C4_4 
REMARK    3  A    between atoms: C4_4  and  C5_5 
REMARK    4  A    between atoms: C5_5  and  C6_6 
REMARK    5  A    between atoms: C6_6  and  O1_7 
REMARK    6  A    between atoms: O1_7  and  C7_8 
REMARK    7  A    between atoms: C9_10  and  N1_11 
REMARK    8  A    between atoms: N1_11  and  C10_12 
REMARK    9  A    between atoms: C20_26  and  O2_27 
ROOT
HETATM    1  C7  UNL     1      24.503   4.193  50.862  1.00  0.00     0.102 A 
HETATM    2  C8  UNL     1      24.158   2.898  50.984  1.00  0.00     0.074 A 
HETATM    3  C9  UNL     1      22.948   2.456  51.677  1.00  0.00     0.193 A 
HETATM    4  N2  UNL     1      22.057   1.615  50.883  1.00  0.00    -0.244 NA
HETATM    5  C16 UNL     1      20.897   1.339  51.409  1.00  0.00     0.102 C 
HETATM    6  C17 UNL     1      20.673   1.835  52.635  1.00  0.00     0.150 C 
HETATM    7  N3  UNL     1      21.027   3.239  52.593  1.00  0.00    -0.258 NA
HETATM    8  C18 UNL     1      22.175   3.639  52.115  1.00  0.00     0.091 A 
HETATM    9  C19 UNL     1      22.521   5.053  52.029  1.00  0.00     0.071 A 
HETATM   10  C20 UNL     1      23.682   5.296  51.395  1.00  0.00     0.103 A 
ENDROOT
BRANCH   3  11
HETATM   11  N1  UNL     1      23.413   1.694  52.853  1.00  0.00    -0.354 N 
HETATM   12  H15 UNL     1      22.680   1.467  53.575  1.00  0.00     0.163 HD
BRANCH  11  13
HETATM   13  C10 UNL     1      24.726   1.262  53.074  1.00  0.00     0.032 A 
HETATM   14  C11 UNL     1      25.723   1.984  53.675  1.00  0.00     0.032 A 
HETATM   15  C12 UNL     1      27.010   1.548  53.898  1.00  0.00     0.046 A 
HETATM   16  C13 UNL     1      27.340   0.277  53.484  1.00  0.00     0.138 A 
HETATM   17  F1  UNL     1      28.600  -0.182  53.690  1.00  0.00    -0.204 F 
HETATM   18  C14 UNL     1      26.382  -0.492  52.876  1.00  0.00     0.074 A 
HETATM   19 CL1  UNL     1      26.777  -2.110  52.343  1.00  0.00    -0.081 Cl
HETATM   20  C15 UNL     1      25.110  -0.002  52.681  1.00  0.00     0.056 A 
ENDBRANCH  11  13
ENDBRANCH   3  11
BRANCH   1  21
HETATM   21  O1  UNL     1      25.646   4.718  50.224  1.00  0.00    -0.348 OA
BRANCH  21  22
HETATM   22  C6  UNL     1      26.592   3.851  49.610  1.00  0.00     0.176 C 
BRANCH  22  23
HETATM   23  C5  UNL     1      27.480   4.710  48.735  1.00  0.00     0.027 C 
BRANCH  23  24
HETATM   24  C4  UNL     1      26.914   6.103  48.561  1.00  0.00     0.002 C 
BRANCH  24  25
HETATM   25  C3  UNL     1      27.979   6.992  47.926  1.00  0.00    -0.000 C 
BRANCH  25  26
HETATM   26  C2  UNL     1      29.280   6.237  47.898  1.00  0.00    -0.005 C 
HETATM   27  C1  UNL     1      30.337   7.015  47.170  1.00  0.00     0.005 C 
ENDBRANCH  25  26
ENDBRANCH  24  25
ENDBRANCH  23  24
ENDBRANCH  22  23
ENDBRANCH  21  22
ENDBRANCH   1  21
BRANCH  10  28
HETATM   28  O2  UNL     1      23.966   6.636  51.326  1.00  0.00    -0.353 OA
HETATM   29  C21 UNL     1      23.407   7.574  50.453  1.00  0.00     0.210 C 
ENDBRANCH  10  28
TORSDOF 9
ENDMDL
MODEL 5
REMARK VINA RESULT:      -7.2      3.076      5.500
REMARK  9 active torsions:
REMARK  status: ('A' for Active; 'I' for Inactive)
REMARK    1  A    between atoms: C2_2  and  C3_3 
REMARK    2  A    between atoms: C3_3  and  C4_4 
REMARK    3  A    between atoms: C4_4  and  C5_5 
REMARK    4  A    between atoms: C5_5  and  C6_6 
REMARK    5  A    between atoms: C6_6  and  O1_7 
REMARK    6  A    between atoms: O1_7  and  C7_8 
REMARK    7  A    between atoms: C9_10  and  N1_11 
REMARK    8  A    between atoms: N1_11  and  C10_12 
REMARK    9  A    between atoms: C20_26  and  O2_27 
ROOT
HETATM    1  C7  UNL     1      24.800   1.462  52.696  1.00  0.00     0.102 A 
HETATM    2  C8  UNL     1      23.471   1.545  52.505  1.00  0.00     0.074 A 
HETATM    3  C9  UNL     1      22.533   0.522  52.968  1.00  0.00     0.193 A 
HETATM    4  N2  UNL     1      21.462   1.015  53.830  1.00  0.00    -0.244 NA
HETATM    5  C16 UNL     1      20.708   0.112  54.392  1.00  0.00     0.102 C 
HETATM    6  C17 UNL     1      20.986  -1.164  54.084  1.00  0.00     0.150 C 
HETATM    7  N3  UNL     1      22.413  -1.338  54.260  1.00  0.00    -0.258 NA
HETATM    8  C18 UNL     1      23.272  -0.515  53.721  1.00  0.00     0.091 A 
HETATM    9  C19 UNL     1      24.708  -0.659  53.930  1.00  0.00     0.071 A 
HETATM   10  C20 UNL     1      25.441   0.343  53.413  1.00  0.00     0.103 A 
ENDROOT
BRANCH   3  11
HETATM   11  N1  UNL     1      21.943  -0.066  51.749  1.00  0.00    -0.354 N 
HETATM   12  H15 UNL     1      22.062  -1.106  51.634  1.00  0.00     0.163 HD
BRANCH  11  13
HETATM   13  C10 UNL     1      21.252   0.643  50.758  1.00  0.00     0.032 A 
HETATM   14  C11 UNL     1      19.906   0.898  50.740  1.00  0.00     0.032 A 
HETATM   15  C12 UNL     1      19.236   1.604  49.766  1.00  0.00     0.046 A 
HETATM   16  C13 UNL     1      19.967   2.102  48.712  1.00  0.00     0.138 A 
HETATM   17  F1  UNL     1      19.335   2.802  47.737  1.00  0.00    -0.204 F 
HETATM   18  C14 UNL     1      21.318   1.876  48.678  1.00  0.00     0.074 A 
HETATM   19 CL1  UNL     1      22.269   2.499  47.349  1.00  0.00    -0.081 Cl
HETATM   20  C15 UNL     1      21.936   1.163  49.681  1.00  0.00     0.056 A 
ENDBRANCH  11  13
ENDBRANCH   3  11
BRANCH   1  21
HETATM   21  O1  UNL     1      25.783   2.386  52.283  1.00  0.00    -0.348 OA
BRANCH  21  22
HETATM   22  C6  UNL     1      26.511   2.174  51.079  1.00  0.00     0.176 C 
BRANCH  22  23
HETATM   23  C5  UNL     1      26.323   3.410  50.223  1.00  0.00     0.027 C 
BRANCH  23  24
HETATM   24  C4  UNL     1      24.996   3.390  49.497  1.00  0.00     0.002 C 
BRANCH  24  25
HETATM   25  C3  UNL     1      24.338   4.759  49.636  1.00  0.00    -0.000 C 
BRANCH  25  26
HETATM   26  C2  UNL     1      23.141   4.628  50.538  1.00  0.00    -0.005 C 
HETATM   27  C1  UNL     1      23.416   5.232  51.885  1.00  0.00     0.005 C 
ENDBRANCH  25  26
ENDBRANCH  24  25
ENDBRANCH  23  24
ENDBRANCH  22  23
ENDBRANCH  21  22
ENDBRANCH   1  21
BRANCH  10  28
HETATM   28  O2  UNL     1      26.784   0.177  53.638  1.00  0.00    -0.353 OA
HETATM   29  C21 UNL     1      27.448   0.241  54.866  1.00  0.00     0.210 C 
ENDBRANCH  10  28
TORSDOF 9
ENDMDL
MODEL 6
REMARK VINA RESULT:      -7.1      4.180      7.460
REMARK  9 active torsions:
REMARK  status: ('A' for Active; 'I' for Inactive)
REMARK    1  A    between atoms: C2_2  and  C3_3 
REMARK    2  A    between atoms: C3_3  and  C4_4 
REMARK    3  A    between atoms: C4_4  and  C5_5 
REMARK    4  A    between atoms: C5_5  and  C6_6 
REMARK    5  A    between atoms: C6_6  and  O1_7 
REMARK    6  A    between atoms: O1_7  and  C7_8 
REMARK    7  A    between atoms: C9_10  and  N1_11 
REMARK    8  A    between atoms: N1_11  and  C10_12 
REMARK    9  A    between atoms: C20_26  and  O2_27 
ROOT
HETATM    1  C7  UNL     1      23.520   4.630  51.427  1.00  0.00     0.102 A 
HETATM    2  C8  UNL     1      23.718   3.568  52.229  1.00  0.00     0.074 A 
HETATM    3  C9  UNL     1      24.887   2.695  52.122  1.00  0.00     0.193 A 
HETATM    4  N2  UNL     1      25.657   2.546  53.354  1.00  0.00    -0.244 NA
HETATM    5  C16 UNL     1      26.791   1.911  53.255  1.00  0.00     0.102 C 
HETATM    6  C17 UNL     1      27.101   1.440  52.038  1.00  0.00     0.150 C 
HETATM    7  N3  UNL     1      26.907   2.531  51.104  1.00  0.00    -0.258 NA
HETATM    8  C18 UNL     1      25.800   3.224  51.085  1.00  0.00     0.091 A 
HETATM    9  C19 UNL     1      25.615   4.351  50.177  1.00  0.00     0.071 A 
HETATM   10  C20 UNL     1      24.473   5.033  50.376  1.00  0.00     0.103 A 
ENDROOT
BRANCH   3  11
HETATM   11  N1  UNL     1      24.368   1.375  51.711  1.00  0.00    -0.354 N 
HETATM   12  H15 UNL     1      24.823   0.945  50.864  1.00  0.00     0.163 HD
BRANCH  11  13
HETATM   13  C10 UNL     1      23.341   0.671  52.350  1.00  0.00     0.032 A 
HETATM   14  C11 UNL     1      22.040   0.586  51.932  1.00  0.00     0.032 A 
HETATM   15  C12 UNL     1      21.037  -0.117  52.561  1.00  0.00     0.046 A 
HETATM   16  C13 UNL     1      21.354  -0.798  53.714  1.00  0.00     0.138 A 
HETATM   17  F1  UNL     1      20.388  -1.501  54.358  1.00  0.00    -0.204 F 
HETATM   18  C14 UNL     1      22.642  -0.749  54.181  1.00  0.00     0.074 A 
HETATM   19 CL1  UNL     1      23.069  -1.607  55.644  1.00  0.00    -0.081 Cl
HETATM   20  C15 UNL     1      23.604  -0.029  53.508  1.00  0.00     0.056 A 
ENDBRANCH  11  13
ENDBRANCH   3  11
BRANCH   1  21
HETATM   21  O1  UNL     1      22.428   5.523  51.443  1.00  0.00    -0.348 OA
BRANCH  21  22
HETATM   22  C6  UNL     1      21.096   5.036  51.322  1.00  0.00     0.176 C 
BRANCH  22  23
HETATM   23  C5  UNL     1      20.943   4.510  49.910  1.00  0.00     0.027 C 
BRANCH  23  24
HETATM   24  C4  UNL     1      19.979   3.345  49.849  1.00  0.00     0.002 C 
BRANCH  24  25
HETATM   25  C3  UNL     1      20.618   2.220  49.041  1.00  0.00    -0.000 C 
BRANCH  25  26
HETATM   26  C2  UNL     1      22.059   2.569  48.787  1.00  0.00    -0.005 C 
HETATM   27  C1  UNL     1      22.531   1.987  47.487  1.00  0.00     0.005 C 
ENDBRANCH  25  26
ENDBRANCH  24  25
ENDBRANCH  23  24
ENDBRANCH  22  23
ENDBRANCH  21  22
ENDBRANCH   1  21
BRANCH  10  28
HETATM   28  O2  UNL     1      24.341   6.090  49.511  1.00  0.00    -0.353 OA
HETATM   29  C21 UNL     1      23.822   6.059  48.214  1.00  0.00     0.210 C 
ENDBRANCH  10  28
TORSDOF 9
ENDMDL
MODEL 7
REMARK VINA RESULT:      -6.8      3.034      4.404
REMARK  9 active torsions:
REMARK  status: ('A' for Active; 'I' for Inactive)
REMARK    1  A    between atoms: C2_2  and  C3_3 
REMARK    2  A    between atoms: C3_3  and  C4_4 
REMARK    3  A    between atoms: C4_4  and  C5_5 
REMARK    4  A    between atoms: C5_5  and  C6_6 
REMARK    5  A    between atoms: C6_6  and  O1_7 
REMARK    6  A    between atoms: O1_7  and  C7_8 
REMARK    7  A    between atoms: C9_10  and  N1_11 
REMARK    8  A    between atoms: N1_11  and  C10_12 
REMARK    9  A    between atoms: C20_26  and  O2_27 
ROOT
HETATM    1  C7  UNL     1      20.126  -0.249  53.457  1.00  0.00     0.102 A 
HETATM    2  C8  UNL     1      20.526   0.793  52.705  1.00  0.00     0.074 A 
HETATM    3  C9  UNL     1      19.791   1.255  51.528  1.00  0.00     0.193 A 
HETATM    4  N2  UNL     1      19.414   2.665  51.553  1.00  0.00    -0.244 NA
HETATM    5  C16 UNL     1      18.620   3.071  50.602  1.00  0.00     0.102 C 
HETATM    6  C17 UNL     1      18.270   2.149  49.692  1.00  0.00     0.150 C 
HETATM    7  N3  UNL     1      17.828   0.981  50.425  1.00  0.00    -0.258 NA
HETATM    8  C18 UNL     1      18.551   0.462  51.382  1.00  0.00     0.091 A 
HETATM    9  C19 UNL     1      18.092  -0.687  52.154  1.00  0.00     0.071 A 
HETATM   10  C20 UNL     1      18.895  -1.013  53.182  1.00  0.00     0.103 A 
ENDROOT
BRANCH   3  11
HETATM   11  N1  UNL     1      20.682   1.012  50.375  1.00  0.00    -0.354 N 
HETATM   12  H15 UNL     1      20.426   0.198  49.758  1.00  0.00     0.163 HD
BRANCH  11  13
HETATM   13  C10 UNL     1      21.815   1.768  50.051  1.00  0.00     0.032 A 
HETATM   14  C11 UNL     1      21.950   2.595  48.968  1.00  0.00     0.032 A 
HETATM   15  C12 UNL     1      23.065   3.342  48.661  1.00  0.00     0.046 A 
HETATM   16  C13 UNL     1      24.148   3.261  49.507  1.00  0.00     0.138 A 
HETATM   17  F1  UNL     1      25.261   3.986  49.233  1.00  0.00    -0.204 F 
HETATM   18  C14 UNL     1      24.070   2.448  50.608  1.00  0.00     0.074 A 
HETATM   19 CL1  UNL     1      25.432   2.329  51.698  1.00  0.00    -0.081 Cl
HETATM   20  C15 UNL     1      22.927   1.723  50.865  1.00  0.00     0.056 A 
ENDBRANCH  11  13
ENDBRANCH   3  11
BRANCH   1  21
HETATM   21  O1  UNL     1      20.765  -0.775  54.600  1.00  0.00    -0.348 OA
BRANCH  21  22
HETATM   22  C6  UNL     1      21.819  -1.722  54.465  1.00  0.00     0.176 C 
BRANCH  22  23
HETATM   23  C5  UNL     1      23.102  -1.017  54.854  1.00  0.00     0.027 C 
BRANCH  23  24
HETATM   24  C4  UNL     1      23.890  -0.579  53.639  1.00  0.00     0.002 C 
BRANCH  24  25
HETATM   25  C3  UNL     1      25.373  -0.557  53.996  1.00  0.00    -0.000 C 
BRANCH  25  26
HETATM   26  C2  UNL     1      26.160  -1.043  52.809  1.00  0.00    -0.005 C 
HETATM   27  C1  UNL     1      27.629  -0.802  53.005  1.00  0.00     0.005 C 
ENDBRANCH  25  26
ENDBRANCH  24  25
ENDBRANCH  23  24
ENDBRANCH  22  23
ENDBRANCH  21  22
ENDBRANCH   1  21
BRANCH  10  28
HETATM   28  O2  UNL     1      18.425  -2.091  53.889  1.00  0.00    -0.353 OA
HETATM   29  C21 UNL     1      17.424  -2.985  53.499  1.00  0.00     0.210 C 
ENDBRANCH  10  28
TORSDOF 9
ENDMDL
MODEL 8
REMARK VINA RESULT:      -6.8      3.453      6.032
REMARK  9 active torsions:
REMARK  status: ('A' for Active; 'I' for Inactive)
REMARK    1  A    between atoms: C2_2  and  C3_3 
REMARK    2  A    between atoms: C3_3  and  C4_4 
REMARK    3  A    between atoms: C4_4  and  C5_5 
REMARK    4  A    between atoms: C5_5  and  C6_6 
REMARK    5  A    between atoms: C6_6  and  O1_7 
REMARK    6  A    between atoms: O1_7  and  C7_8 
REMARK    7  A    between atoms: C9_10  and  N1_11 
REMARK    8  A    between atoms: N1_11  and  C10_12 
REMARK    9  A    between atoms: C20_26  and  O2_27 
ROOT
HETATM    1  C7  UNL     1      21.007   2.624  50.497  1.00  0.00     0.102 A 
HETATM    2  C8  UNL     1      22.136   2.891  51.177  1.00  0.00     0.074 A 
HETATM    3  C9  UNL     1      23.275   3.597  50.588  1.00  0.00     0.193 A 
HETATM    4  N2  UNL     1      23.705   4.786  51.318  1.00  0.00    -0.244 NA
HETATM    5  C16 UNL     1      24.605   5.529  50.737  1.00  0.00     0.102 C 
HETATM    6  C17 UNL     1      25.055   5.092  49.551  1.00  0.00     0.150 C 
HETATM    7  N3  UNL     1      23.890   4.774  48.751  1.00  0.00    -0.258 NA
HETATM    8  C18 UNL     1      22.933   4.015  49.211  1.00  0.00     0.091 A 
HETATM    9  C19 UNL     1      21.737   3.726  48.428  1.00  0.00     0.071 A 
HETATM   10  C20 UNL     1      20.795   3.038  49.097  1.00  0.00     0.103 A 
ENDROOT
BRANCH   3  11
HETATM   11  N1  UNL     1      24.382   2.620  50.558  1.00  0.00    -0.354 N 
HETATM   12  H15 UNL     1      24.746   2.366  49.603  1.00  0.00     0.163 HD
BRANCH  11  13
HETATM   13  C10 UNL     1      24.969   2.022  51.680  1.00  0.00     0.032 A 
HETATM   14  C11 UNL     1      24.420   1.027  52.443  1.00  0.00     0.032 A 
HETATM   15  C12 UNL     1      25.009   0.437  53.540  1.00  0.00     0.046 A 
HETATM   16  C13 UNL     1      26.258   0.877  53.914  1.00  0.00     0.138 A 
HETATM   17  F1  UNL     1      26.865   0.315  54.990  1.00  0.00    -0.204 F 
HETATM   18  C14 UNL     1      26.857   1.872  53.187  1.00  0.00     0.074 A 
HETATM   19 CL1  UNL     1      28.444   2.447  53.643  1.00  0.00    -0.081 Cl
HETATM   20  C15 UNL     1      26.220   2.425  52.098  1.00  0.00     0.056 A 
ENDBRANCH  11  13
ENDBRANCH   3  11
BRANCH   1  21
HETATM   21  O1  UNL     1      19.863   1.947  50.969  1.00  0.00    -0.348 OA
BRANCH  21  22
HETATM   22  C6  UNL     1      19.849   0.527  51.051  1.00  0.00     0.176 C 
BRANCH  22  23
HETATM   23  C5  UNL     1      18.857   0.155  52.134  1.00  0.00     0.027 C 
BRANCH  23  24
HETATM   24  C4  UNL     1      19.539  -0.505  53.314  1.00  0.00     0.002 C 
BRANCH  24  25
HETATM   25  C3  UNL     1      20.726   0.353  53.739  1.00  0.00    -0.000 C 
BRANCH  25  26
HETATM   26  C2  UNL     1      21.462  -0.357  54.843  1.00  0.00    -0.005 C 
HETATM   27  C1  UNL     1      21.861  -1.740  54.417  1.00  0.00     0.005 C 
ENDBRANCH  25  26
ENDBRANCH  24  25
ENDBRANCH  23  24
ENDBRANCH  22  23
ENDBRANCH  21  22
ENDBRANCH   1  21
BRANCH  10  28
HETATM   28  O2  UNL     1      19.684   2.796  48.330  1.00  0.00    -0.353 OA
HETATM   29  C21 UNL     1      19.485   3.155  46.994  1.00  0.00     0.210 C 
ENDBRANCH  10  28
TORSDOF 9
ENDMDL
MODEL 9
REMARK VINA RESULT:      -6.8      2.547      5.355
REMARK  9 active torsions:
REMARK  status: ('A' for Active; 'I' for Inactive)
REMARK    1  A    between atoms: C2_2  and  C3_3 
REMARK    2  A    between atoms: C3_3  and  C4_4 
REMARK    3  A    between atoms: C4_4  and  C5_5 
REMARK    4  A    between atoms: C5_5  and  C6_6 
REMARK    5  A    between atoms: C6_6  and  O1_7 
REMARK    6  A    between atoms: O1_7  and  C7_8 
REMARK    7  A    between atoms: C9_10  and  N1_11 
REMARK    8  A    between atoms: N1_11  and  C10_12 
REMARK    9  A    between atoms: C20_26  and  O2_27 
ROOT
HETATM    1  C7  UNL     1      22.601   0.855  51.433  1.00  0.00     0.102 A 
HETATM    2  C8  UNL     1      23.586   1.714  51.111  1.00  0.00     0.074 A 
HETATM    3  C9  UNL     1      24.725   1.985  51.988  1.00  0.00     0.193 A 
HETATM    4  N2  UNL     1      26.035   1.769  51.379  1.00  0.00    -0.244 NA
HETATM    5  C16 UNL     1      27.064   1.842  52.175  1.00  0.00     0.102 C 
HETATM    6  C17 UNL     1      26.799   2.141  53.456  1.00  0.00     0.150 C 
HETATM    7  N3  UNL     1      25.735   1.257  53.883  1.00  0.00    -0.258 NA
HETATM    8  C18 UNL     1      24.639   1.121  53.185  1.00  0.00     0.091 A 
HETATM    9  C19 UNL     1      23.582   0.199  53.586  1.00  0.00     0.071 A 
HETATM   10  C20 UNL     1      22.585   0.085  52.691  1.00  0.00     0.103 A 
ENDROOT
BRANCH   3  11
HETATM   11  N1  UNL     1      24.602   3.404  52.381  1.00  0.00    -0.354 N 
HETATM   12  H15 UNL     1      25.074   3.674  53.283  1.00  0.00     0.163 HD
BRANCH  11  13
HETATM   13  C10 UNL     1      23.920   4.391  51.660  1.00  0.00     0.032 A 
HETATM   14  C11 UNL     1      22.697   4.921  51.976  1.00  0.00     0.032 A 
HETATM   15  C12 UNL     1      22.038   5.899  51.266  1.00  0.00     0.046 A 
HETATM   16  C13 UNL     1      22.646   6.397  50.137  1.00  0.00     0.138 A 
HETATM   17  F1  UNL     1      22.021   7.362  49.416  1.00  0.00    -0.204 F 
HETATM   18  C14 UNL     1      23.871   5.903  49.771  1.00  0.00     0.074 A 
HETATM   19 CL1  UNL     1      24.665   6.520  48.340  1.00  0.00    -0.081 Cl
HETATM   20  C15 UNL     1      24.485   4.924  50.521  1.00  0.00     0.056 A 
ENDBRANCH  11  13
ENDBRANCH   3  11
BRANCH   1  21
HETATM   21  O1  UNL     1      21.462   0.533  50.665  1.00  0.00    -0.348 OA
BRANCH  21  22
HETATM   22  C6  UNL     1      21.374   0.935  49.303  1.00  0.00     0.176 C 
BRANCH  22  23
HETATM   23  C5  UNL     1      20.318   2.019  49.228  1.00  0.00     0.027 C 
BRANCH  23  24
HETATM   24  C4  UNL     1      20.912   3.351  48.823  1.00  0.00     0.002 C 
BRANCH  24  25
HETATM   25  C3  UNL     1      22.179   3.099  48.013  1.00  0.00    -0.000 C 
BRANCH  25  26
HETATM   26  C2  UNL     1      21.997   3.687  46.640  1.00  0.00    -0.005 C 
HETATM   27  C1  UNL     1      21.696   5.155  46.721  1.00  0.00     0.005 C 
ENDBRANCH  25  26
ENDBRANCH  24  25
ENDBRANCH  23  24
ENDBRANCH  22  23
ENDBRANCH  21  22
ENDBRANCH   1  21
BRANCH  10  28
HETATM   28  O2  UNL     1      21.617  -0.796  53.099  1.00  0.00    -0.353 OA
HETATM   29  C21 UNL     1      21.538  -1.454  54.329  1.00  0.00     0.210 C 
ENDBRANCH  10  28
TORSDOF 9
ENDMDL
