MODEL 1
REMARK VINA RESULT:      -7.9      0.000      0.000
REMARK  8 active torsions:
REMARK  status: ('A' for Active; 'I' for Inactive)
REMARK    1  A    between atoms: C2_2  and  C3_3 
REMARK    2  A    between atoms: C3_3  and  C4_4 
REMARK    3  A    between atoms: C4_4  and  C5_5 
REMARK    4  A    between atoms: C5_5  and  C6_6 
REMARK    5  A    between atoms: C6_6  and  O1_7 
REMARK    6  A    between atoms: O1_7  and  C7_8 
REMARK    7  A    between atoms: C10_11  and  N1_12 
REMARK    8  A    between atoms: C18_23  and  O2_24 
ROOT
HETATM    1  C7  UNL     1      24.629  -0.536  54.072  1.00  0.00     0.104 C 
HETATM    2  C8  UNL     1      24.230   0.120  52.928  1.00  0.00     0.051 C 
HETATM    3  C9  UNL     1      22.750   0.113  52.702  1.00  0.00    -0.004 C 
HETATM    4  C10 UNL     1      21.949   1.192  52.549  1.00  0.00     0.138 C 
HETATM    5  N2  UNL     1      20.565   1.105  53.130  1.00  0.00    -0.226 NA
HETATM    6  C16 UNL     1      20.403   0.698  54.429  1.00  0.00     0.209 C 
HETATM    7  N3  UNL     1      21.172  -0.369  55.169  1.00  0.00    -0.351 N 
HETATM    8  C17 UNL     1      22.281  -0.982  54.444  1.00  0.00     0.050 C 
HETATM    9  C18 UNL     1      23.537  -1.148  54.933  1.00  0.00     0.122 C 
HETATM   10  C19 UNL     1      22.169  -1.330  52.898  1.00  0.00     0.102 C 
HETATM   11  H17 UNL     1      21.258  -0.873  56.071  1.00  0.00     0.166 HD
ENDROOT
BRANCH   1  12
HETATM   12  O1  UNL     1      25.884  -0.662  54.456  1.00  0.00    -0.348 OA
BRANCH  12  13
HETATM   13  C6  UNL     1      26.751   0.292  55.014  1.00  0.00     0.176 C 
BRANCH  13  14
HETATM   14  C5  UNL     1      27.721   0.715  53.912  1.00  0.00     0.028 C 
BRANCH  14  15
HETATM   15  C4  UNL     1      29.140   0.640  54.454  1.00  0.00     0.019 C 
BRANCH  15  16
HETATM   16  C3  UNL     1      29.930  -0.256  53.589  1.00  0.00     0.067 C 
BRANCH  16  17
HETATM   17  C2  UNL     1      29.485  -1.448  53.303  1.00  0.00    -0.176 C 
HETATM   18  C1  UNL     1      28.829  -2.585  53.159  1.00  0.00     0.091 C 
ENDBRANCH  16  17
ENDBRANCH  15  16
ENDBRANCH  14  15
ENDBRANCH  13  14
ENDBRANCH  12  13
ENDBRANCH   1  12
BRANCH   9  19
HETATM   19  O2  UNL     1      23.314  -1.827  56.082  1.00  0.00    -0.356 OA
HETATM   20  H18 UNL     1      22.402  -1.834  56.508  1.00  0.00     0.218 HD
ENDBRANCH   9  19
BRANCH   4  21
HETATM   21  N1  UNL     1      22.861   2.048  51.873  1.00  0.00    -0.338 N 
HETATM   22  C11 UNL     1      23.610   2.986  52.637  1.00  0.00     0.094 A 
HETATM   23  C12 UNL     1      24.428   3.746  51.925  1.00  0.00     0.041 A 
HETATM   24  C13 UNL     1      24.593   3.673  50.478  1.00  0.00     0.033 A 
HETATM   25 CL1  UNL     1      25.680   4.692  49.582  1.00  0.00    -0.085 Cl
HETATM   26  C14 UNL     1      23.844   2.763  49.878  1.00  0.00     0.017 A 
HETATM   27  C15 UNL     1      22.865   1.801  50.444  1.00  0.00     0.159 A 
ENDBRANCH   4  21
TORSDOF 8
ENDMDL
MODEL 2
REMARK VINA RESULT:      -7.6      2.860      5.691
REMARK  8 active torsions:
REMARK  status: ('A' for Active; 'I' for Inactive)
REMARK    1  A    between atoms: C2_2  and  C3_3 
REMARK    2  A    between atoms: C3_3  and  C4_4 
REMARK    3  A    between atoms: C4_4  and  C5_5 
REMARK    4  A    between atoms: C5_5  and  C6_6 
REMARK    5  A    between atoms: C6_6  and  O1_7 
REMARK    6  A    between atoms: O1_7  and  C7_8 
REMARK    7  A    between atoms: C10_11  and  N1_12 
REMARK    8  A    between atoms: C18_23  and  O2_24 
ROOT
HETATM    1  C7  UNL     1      26.851   2.007  51.712  1.00  0.00     0.104 C 
HETATM    2  C8  UNL     1      25.687   1.269  51.721  1.00  0.00     0.051 C 
HETATM    3  C9  UNL     1      25.683   0.142  52.706  1.00  0.00    -0.004 C 
HETATM    4  C10 UNL     1      24.787  -0.064  53.698  1.00  0.00     0.138 C 
HETATM    5  N2  UNL     1      25.310  -0.644  54.982  1.00  0.00    -0.226 NA
HETATM    6  C16 UNL     1      26.408  -0.082  55.579  1.00  0.00     0.209 C 
HETATM    7  N3  UNL     1      27.639   0.482  54.912  1.00  0.00    -0.351 N 
HETATM    8  C17 UNL     1      27.622   0.514  53.453  1.00  0.00     0.050 C 
HETATM    9  C18 UNL     1      27.937   1.593  52.691  1.00  0.00     0.122 C 
HETATM   10  C19 UNL     1      27.012  -0.683  52.604  1.00  0.00     0.102 C 
HETATM   11  H17 UNL     1      28.564   0.918  55.081  1.00  0.00     0.166 HD
ENDROOT
BRANCH   1  12
HETATM   12  O1  UNL     1      27.073   3.034  50.916  1.00  0.00    -0.348 OA
BRANCH  12  13
HETATM   13  C6  UNL     1      26.491   3.351  49.678  1.00  0.00     0.176 C 
BRANCH  13  14
HETATM   14  C5  UNL     1      25.727   4.662  49.865  1.00  0.00     0.028 C 
BRANCH  14  15
HETATM   15  C4  UNL     1      24.349   4.518  49.239  1.00  0.00     0.019 C 
BRANCH  15  16
HETATM   16  C3  UNL     1      23.956   3.096  49.281  1.00  0.00     0.067 C 
BRANCH  16  17
HETATM   17  C2  UNL     1      22.874   2.699  48.672  1.00  0.00    -0.176 C 
HETATM   18  C1  UNL     1      21.934   2.279  47.845  1.00  0.00     0.091 C 
ENDBRANCH  16  17
ENDBRANCH  15  16
ENDBRANCH  14  15
ENDBRANCH  13  14
ENDBRANCH  12  13
ENDBRANCH   1  12
BRANCH   9  19
HETATM   19  O2  UNL     1      29.174   1.913  53.138  1.00  0.00    -0.356 OA
HETATM   20  H18 UNL     1      29.294   2.459  53.974  1.00  0.00     0.218 HD
ENDBRANCH   9  19
BRANCH   4  21
HETATM   21  N1  UNL     1      23.626   0.444  53.053  1.00  0.00    -0.338 N 
HETATM   22  C11 UNL     1      23.400   1.849  53.064  1.00  0.00     0.094 A 
HETATM   23  C12 UNL     1      22.292   2.232  52.447  1.00  0.00     0.041 A 
HETATM   24  C13 UNL     1      21.346   1.336  51.792  1.00  0.00     0.033 A 
HETATM   25 CL1  UNL     1      19.902   1.883  50.993  1.00  0.00    -0.085 Cl
HETATM   26  C14 UNL     1      21.664   0.054  51.847  1.00  0.00     0.017 A 
HETATM   27  C15 UNL     1      22.833  -0.619  52.468  1.00  0.00     0.159 A 
ENDBRANCH   4  21
TORSDOF 8
ENDMDL
MODEL 3
REMARK VINA RESULT:      -7.5      3.334      5.712
REMARK  8 active torsions:
REMARK  status: ('A' for Active; 'I' for Inactive)
REMARK    1  A    between atoms: C2_2  and  C3_3 
REMARK    2  A    between atoms: C3_3  and  C4_4 
REMARK    3  A    between atoms: C4_4  and  C5_5 
REMARK    4  A    between atoms: C5_5  and  C6_6 
REMARK    5  A    between atoms: C6_6  and  O1_7 
REMARK    6  A    between atoms: O1_7  and  C7_8 
REMARK    7  A    between atoms: C10_11  and  N1_12 
REMARK    8  A    between atoms: C18_23  and  O2_24 
ROOT
HETATM    1  C7  UNL     1      26.813   1.935  51.742  1.00  0.00     0.104 C 
HETATM    2  C8  UNL     1      25.647   1.199  51.758  1.00  0.00     0.051 C 
HETATM    3  C9  UNL     1      25.647   0.072  52.742  1.00  0.00    -0.004 C 
HETATM    4  C10 UNL     1      24.757  -0.133  53.740  1.00  0.00     0.138 C 
HETATM    5  N2  UNL     1      25.286  -0.714  55.021  1.00  0.00    -0.226 NA
HETATM    6  C16 UNL     1      26.390  -0.155  55.611  1.00  0.00     0.209 C 
HETATM    7  N3  UNL     1      27.617   0.407  54.936  1.00  0.00    -0.351 N 
HETATM    8  C17 UNL     1      27.591   0.440  53.478  1.00  0.00     0.050 C 
HETATM    9  C18 UNL     1      27.904   1.518  52.715  1.00  0.00     0.122 C 
HETATM   10  C19 UNL     1      26.974  -0.756  52.632  1.00  0.00     0.102 C 
HETATM   11  H17 UNL     1      28.545   0.841  55.100  1.00  0.00     0.166 HD
ENDROOT
BRANCH   1  12
HETATM   12  O1  UNL     1      27.032   2.962  50.945  1.00  0.00    -0.348 OA
BRANCH  12  13
HETATM   13  C6  UNL     1      26.480   3.255  49.687  1.00  0.00     0.176 C 
BRANCH  13  14
HETATM   14  C5  UNL     1      25.802   4.619  49.803  1.00  0.00     0.028 C 
BRANCH  14  15
HETATM   15  C4  UNL     1      26.499   5.592  48.865  1.00  0.00     0.019 C 
BRANCH  15  16
HETATM   16  C3  UNL     1      27.838   5.062  48.542  1.00  0.00     0.067 C 
BRANCH  16  17
HETATM   17  C2  UNL     1      28.788   5.872  48.166  1.00  0.00    -0.176 C 
HETATM   18  C1  UNL     1      29.608   6.715  47.566  1.00  0.00     0.091 C 
ENDBRANCH  16  17
ENDBRANCH  15  16
ENDBRANCH  14  15
ENDBRANCH  13  14
ENDBRANCH  12  13
ENDBRANCH   1  12
BRANCH   9  19
HETATM   19  O2  UNL     1      29.144   1.835  53.154  1.00  0.00    -0.356 OA
HETATM   20  H18 UNL     1      29.803   2.294  52.549  1.00  0.00     0.218 HD
ENDBRANCH   9  19
BRANCH   4  21
HETATM   21  N1  UNL     1      23.593   0.378  53.103  1.00  0.00    -0.338 N 
HETATM   22  C11 UNL     1      23.408   1.788  53.050  1.00  0.00     0.094 A 
HETATM   23  C12 UNL     1      22.294   2.174  52.445  1.00  0.00     0.041 A 
HETATM   24  C13 UNL     1      21.305   1.276  51.861  1.00  0.00     0.033 A 
HETATM   25 CL1  UNL     1      19.854   1.826  51.075  1.00  0.00    -0.085 Cl
HETATM   26  C14 UNL     1      21.586  -0.011  51.971  1.00  0.00     0.017 A 
HETATM   27  C15 UNL     1      22.753  -0.688  52.593  1.00  0.00     0.159 A 
ENDBRANCH   4  21
TORSDOF 8
ENDMDL
MODEL 4
REMARK VINA RESULT:      -7.4      3.916      6.101
REMARK  8 active torsions:
REMARK  status: ('A' for Active; 'I' for Inactive)
REMARK    1  A    between atoms: C2_2  and  C3_3 
REMARK    2  A    between atoms: C3_3  and  C4_4 
REMARK    3  A    between atoms: C4_4  and  C5_5 
REMARK    4  A    between atoms: C5_5  and  C6_6 
REMARK    5  A    between atoms: C6_6  and  O1_7 
REMARK    6  A    between atoms: O1_7  and  C7_8 
REMARK    7  A    between atoms: C10_11  and  N1_12 
REMARK    8  A    between atoms: C18_23  and  O2_24 
ROOT
HETATM    1  C7  UNL     1      25.572   2.897  50.817  1.00  0.00     0.104 C 
HETATM    2  C8  UNL     1      25.937   2.285  51.996  1.00  0.00     0.051 C 
HETATM    3  C9  UNL     1      24.783   1.816  52.826  1.00  0.00    -0.004 C 
HETATM    4  C10 UNL     1      24.558   0.555  53.263  1.00  0.00     0.138 C 
HETATM    5  N2  UNL     1      23.128   0.097  53.325  1.00  0.00    -0.226 NA
HETATM    6  C16 UNL     1      22.318   0.267  52.232  1.00  0.00     0.209 C 
HETATM    7  N3  UNL     1      22.280   1.435  51.278  1.00  0.00    -0.351 N 
HETATM    8  C17 UNL     1      23.287   2.470  51.488  1.00  0.00     0.050 C 
HETATM    9  C18 UNL     1      24.084   2.993  50.522  1.00  0.00     0.122 C 
HETATM   10  C19 UNL     1      23.699   2.941  52.949  1.00  0.00     0.102 C 
HETATM   11  H17 UNL     1      21.805   1.826  50.444  1.00  0.00     0.166 HD
ENDROOT
BRANCH   1  12
HETATM   12  O1  UNL     1      26.425   3.394  49.943  1.00  0.00    -0.348 OA
BRANCH  12  13
HETATM   13  C6  UNL     1      26.424   4.641  49.297  1.00  0.00     0.176 C 
BRANCH  13  14
HETATM   14  C5  UNL     1      27.758   4.766  48.563  1.00  0.00     0.028 C 
BRANCH  14  15
HETATM   15  C4  UNL     1      27.970   6.222  48.179  1.00  0.00     0.019 C 
BRANCH  15  16
HETATM   16  C3  UNL     1      29.411   6.529  48.262  1.00  0.00     0.067 C 
BRANCH  16  17
HETATM   17  C2  UNL     1      30.290   5.640  47.892  1.00  0.00    -0.176 C 
HETATM   18  C1  UNL     1      31.356   4.919  47.594  1.00  0.00     0.091 C 
ENDBRANCH  16  17
ENDBRANCH  15  16
ENDBRANCH  14  15
ENDBRANCH  13  14
ENDBRANCH  12  13
ENDBRANCH   1  12
BRANCH   9  19
HETATM   19  O2  UNL     1      23.186   3.414  49.601  1.00  0.00    -0.356 OA
HETATM   20  H18 UNL     1      23.490   3.780  48.715  1.00  0.00     0.218 HD
ENDBRANCH   9  19
BRANCH   4  21
HETATM   21  N1  UNL     1      25.907   0.148  53.457  1.00  0.00    -0.338 N 
HETATM   22  C11 UNL     1      26.631   0.689  54.557  1.00  0.00     0.094 A 
HETATM   23  C12 UNL     1      27.880   0.260  54.657  1.00  0.00     0.041 A 
HETATM   24  C13 UNL     1      28.515  -0.688  53.749  1.00  0.00     0.033 A 
HETATM   25 CL1  UNL     1      30.160  -1.225  53.917  1.00  0.00    -0.085 Cl
HETATM   26  C14 UNL     1      27.743  -1.121  52.766  1.00  0.00     0.017 A 
HETATM   27  C15 UNL     1      26.330  -0.797  52.443  1.00  0.00     0.159 A 
ENDBRANCH   4  21
TORSDOF 8
ENDMDL
MODEL 5
REMARK VINA RESULT:      -7.0      2.938      5.930
REMARK  8 active torsions:
REMARK  status: ('A' for Active; 'I' for Inactive)
REMARK    1  A    between atoms: C2_2  and  C3_3 
REMARK    2  A    between atoms: C3_3  and  C4_4 
REMARK    3  A    between atoms: C4_4  and  C5_5 
REMARK    4  A    between atoms: C5_5  and  C6_6 
REMARK    5  A    between atoms: C6_6  and  O1_7 
REMARK    6  A    between atoms: O1_7  and  C7_8 
REMARK    7  A    between atoms: C10_11  and  N1_12 
REMARK    8  A    between atoms: C18_23  and  O2_24 
ROOT
HETATM    1  C7  UNL     1      23.854   0.223  53.318  1.00  0.00     0.104 C 
HETATM    2  C8  UNL     1      23.141   1.255  52.746  1.00  0.00     0.051 C 
HETATM    3  C9  UNL     1      23.982   2.416  52.317  1.00  0.00    -0.004 C 
HETATM    4  C10 UNL     1      24.057   2.947  51.075  1.00  0.00     0.138 C 
HETATM    5  N2  UNL     1      25.397   3.462  50.630  1.00  0.00    -0.226 NA
HETATM    6  C16 UNL     1      26.505   2.666  50.766  1.00  0.00     0.209 C 
HETATM    7  N3  UNL     1      26.838   1.727  51.899  1.00  0.00    -0.351 N 
HETATM    8  C17 UNL     1      25.819   1.579  52.933  1.00  0.00     0.050 C 
HETATM    9  C18 UNL     1      25.360   0.396  53.414  1.00  0.00     0.122 C 
HETATM   10  C19 UNL     1      24.980   2.825  53.454  1.00  0.00     0.102 C 
HETATM   11  H17 UNL     1      27.548   1.065  52.263  1.00  0.00     0.166 HD
ENDROOT
BRANCH   1  12
HETATM   12  O1  UNL     1      23.312  -0.888  53.776  1.00  0.00    -0.348 OA
BRANCH  12  13
HETATM   13  C6  UNL     1      22.400  -1.074  54.828  1.00  0.00     0.176 C 
BRANCH  13  14
HETATM   14  C5  UNL     1      21.081  -1.527  54.203  1.00  0.00     0.028 C 
BRANCH  14  15
HETATM   15  C4  UNL     1      20.173  -0.317  54.049  1.00  0.00     0.019 C 
BRANCH  15  16
HETATM   16  C3  UNL     1      19.911  -0.101  52.613  1.00  0.00     0.067 C 
BRANCH  16  17
HETATM   17  C2  UNL     1      18.712  -0.284  52.133  1.00  0.00    -0.176 C 
HETATM   18  C1  UNL     1      17.430  -0.497  51.898  1.00  0.00     0.091 C 
ENDBRANCH  16  17
ENDBRANCH  15  16
ENDBRANCH  14  15
ENDBRANCH  13  14
ENDBRANCH  12  13
ENDBRANCH   1  12
BRANCH   9  19
HETATM   19  O2  UNL     1      26.500  -0.219  53.808  1.00  0.00    -0.356 OA
HETATM   20  H18 UNL     1      26.745  -1.127  53.452  1.00  0.00     0.218 HD
ENDBRANCH   9  19
BRANCH   4  21
HETATM   21  N1  UNL     1      22.712   2.733  50.664  1.00  0.00    -0.338 N 
HETATM   22  C11 UNL     1      22.430   1.639  49.798  1.00  0.00     0.094 A 
HETATM   23  C12 UNL     1      21.155   1.520  49.462  1.00  0.00     0.041 A 
HETATM   24  C13 UNL     1      20.084   2.402  49.910  1.00  0.00     0.033 A 
HETATM   25 CL1  UNL     1      18.420   2.209  49.443  1.00  0.00    -0.085 Cl
HETATM   26  C14 UNL     1      20.468   3.382  50.712  1.00  0.00     0.017 A 
HETATM   27  C15 UNL     1      21.818   3.723  51.230  1.00  0.00     0.159 A 
ENDBRANCH   4  21
TORSDOF 8
ENDMDL
MODEL 6
REMARK VINA RESULT:      -6.9      3.343      6.397
REMARK  8 active torsions:
REMARK  status: ('A' for Active; 'I' for Inactive)
REMARK    1  A    between atoms: C2_2  and  C3_3 
REMARK    2  A    between atoms: C3_3  and  C4_4 
REMARK    3  A    between atoms: C4_4  and  C5_5 
REMARK    4  A    between atoms: C5_5  and  C6_6 
REMARK    5  A    between atoms: C6_6  and  O1_7 
REMARK    6  A    between atoms: O1_7  and  C7_8 
REMARK    7  A    between atoms: C10_11  and  N1_12 
REMARK    8  A    between atoms: C18_23  and  O2_24 
ROOT
HETATM    1  C7  UNL     1      25.150   2.474  50.671  1.00  0.00     0.104 C 
HETATM    2  C8  UNL     1      25.652   1.967  51.851  1.00  0.00     0.051 C 
HETATM    3  C9  UNL     1      24.604   1.510  52.816  1.00  0.00    -0.004 C 
HETATM    4  C10 UNL     1      24.484   0.276  53.358  1.00  0.00     0.138 C 
HETATM    5  N2  UNL     1      23.091  -0.238  53.586  1.00  0.00    -0.226 NA
HETATM    6  C16 UNL     1      22.176  -0.185  52.567  1.00  0.00     0.209 C 
HETATM    7  N3  UNL     1      21.993   0.907  51.541  1.00  0.00    -0.351 N 
HETATM    8  C17 UNL     1      22.961   1.998  51.584  1.00  0.00     0.050 C 
HETATM    9  C18 UNL     1      23.639   2.483  50.513  1.00  0.00     0.122 C 
HETATM   10  C19 UNL     1      23.480   2.593  52.963  1.00  0.00     0.102 C 
HETATM   11  H17 UNL     1      21.424   1.214  50.731  1.00  0.00     0.166 HD
ENDROOT
BRANCH   1  12
HETATM   12  O1  UNL     1      25.894   2.943  49.689  1.00  0.00    -0.348 OA
BRANCH  12  13
HETATM   13  C6  UNL     1      26.581   4.164  49.588  1.00  0.00     0.176 C 
BRANCH  13  14
HETATM   14  C5  UNL     1      25.590   5.190  49.037  1.00  0.00     0.028 C 
BRANCH  14  15
HETATM   15  C4  UNL     1      26.346   6.464  48.695  1.00  0.00     0.019 C 
BRANCH  15  16
HETATM   16  C3  UNL     1      26.225   7.404  49.826  1.00  0.00     0.067 C 
BRANCH  16  17
HETATM   17  C2  UNL     1      25.047   7.789  50.232  1.00  0.00    -0.176 C 
HETATM   18  C1  UNL     1      23.781   8.127  50.398  1.00  0.00     0.091 C 
ENDBRANCH  16  17
ENDBRANCH  15  16
ENDBRANCH  14  15
ENDBRANCH  13  14
ENDBRANCH  12  13
ENDBRANCH   1  12
BRANCH   9  19
HETATM   19  O2  UNL     1      22.640   2.795  49.654  1.00  0.00    -0.356 OA
HETATM   20  H18 UNL     1      21.872   3.375  49.947  1.00  0.00     0.218 HD
ENDBRANCH   9  19
BRANCH   4  21
HETATM   21  N1  UNL     1      25.863  -0.056  53.452  1.00  0.00    -0.338 N 
HETATM   22  C11 UNL     1      26.387  -1.046  52.573  1.00  0.00     0.094 A 
HETATM   23  C12 UNL     1      27.678  -1.297  52.735  1.00  0.00     0.041 A 
HETATM   24  C13 UNL     1      28.541  -0.646  53.714  1.00  0.00     0.033 A 
HETATM   25 CL1  UNL     1      30.232  -1.007  53.893  1.00  0.00    -0.085 Cl
HETATM   26  C14 UNL     1      27.941   0.255  54.473  1.00  0.00     0.017 A 
HETATM   27  C15 UNL     1      26.528   0.712  54.486  1.00  0.00     0.159 A 
ENDBRANCH   4  21
TORSDOF 8
ENDMDL
MODEL 7
REMARK VINA RESULT:      -6.8      7.579     10.355
REMARK  8 active torsions:
REMARK  status: ('A' for Active; 'I' for Inactive)
REMARK    1  A    between atoms: C2_2  and  C3_3 
REMARK    2  A    between atoms: C3_3  and  C4_4 
REMARK    3  A    between atoms: C4_4  and  C5_5 
REMARK    4  A    between atoms: C5_5  and  C6_6 
REMARK    5  A    between atoms: C6_6  and  O1_7 
REMARK    6  A    between atoms: O1_7  and  C7_8 
REMARK    7  A    between atoms: C10_11  and  N1_12 
REMARK    8  A    between atoms: C18_23  and  O2_24 
ROOT
HETATM    1  C7  UNL     1      28.414   6.086  48.337  1.00  0.00     0.104 C 
HETATM    2  C8  UNL     1      29.554   6.220  47.575  1.00  0.00     0.051 C 
HETATM    3  C9  UNL     1      30.105   7.611  47.535  1.00  0.00    -0.004 C 
HETATM    4  C10 UNL     1      31.351   8.000  47.889  1.00  0.00     0.138 C 
HETATM    5  N2  UNL     1      31.487   9.343  48.550  1.00  0.00    -0.226 NA
HETATM    6  C16 UNL     1      30.679   9.657  49.612  1.00  0.00     0.209 C 
HETATM    7  N3  UNL     1      29.225   9.306  49.807  1.00  0.00    -0.351 N 
HETATM    8  C17 UNL     1      28.627   8.454  48.784  1.00  0.00     0.050 C 
HETATM    9  C18 UNL     1      27.895   7.337  49.027  1.00  0.00     0.122 C 
HETATM   10  C19 UNL     1      28.965   8.647  47.243  1.00  0.00     0.102 C 
HETATM   11  H17 UNL     1      28.410   9.411  50.439  1.00  0.00     0.166 HD
ENDROOT
BRANCH   1  12
HETATM   12  O1  UNL     1      27.758   4.954  48.499  1.00  0.00    -0.348 OA
BRANCH  12  13
HETATM   13  C6  UNL     1      26.554   4.703  49.176  1.00  0.00     0.176 C 
BRANCH  13  14
HETATM   14  C5  UNL     1      26.502   3.202  49.457  1.00  0.00     0.028 C 
BRANCH  14  15
HETATM   15  C4  UNL     1      25.887   2.983  50.830  1.00  0.00     0.019 C 
BRANCH  15  16
HETATM   16  C3  UNL     1      26.867   2.280  51.681  1.00  0.00     0.067 C 
BRANCH  16  17
HETATM   17  C2  UNL     1      26.786   0.988  51.840  1.00  0.00    -0.176 C 
HETATM   18  C1  UNL     1      26.557  -0.259  52.210  1.00  0.00     0.091 C 
ENDBRANCH  16  17
ENDBRANCH  15  16
ENDBRANCH  14  15
ENDBRANCH  13  14
ENDBRANCH  12  13
ENDBRANCH   1  12
BRANCH   9  19
HETATM   19  O2  UNL     1      26.930   7.797  49.857  1.00  0.00    -0.356 OA
HETATM   20  H18 UNL     1      26.337   8.562  49.583  1.00  0.00     0.218 HD
ENDBRANCH   9  19
BRANCH   4  21
HETATM   21  N1  UNL     1      32.066   6.841  47.481  1.00  0.00    -0.338 N 
HETATM   22  C11 UNL     1      32.248   6.607  46.089  1.00  0.00     0.094 A 
HETATM   23  C12 UNL     1      32.918   5.501  45.800  1.00  0.00     0.041 A 
HETATM   24  C13 UNL     1      33.451   4.564  46.783  1.00  0.00     0.033 A 
HETATM   25 CL1  UNL     1      34.326   3.123  46.359  1.00  0.00    -0.085 Cl
HETATM   26  C14 UNL     1      33.219   4.888  48.044  1.00  0.00     0.017 A 
HETATM   27  C15 UNL     1      32.505   6.056  48.619  1.00  0.00     0.159 A 
ENDBRANCH   4  21
TORSDOF 8
ENDMDL
MODEL 8
REMARK VINA RESULT:      -6.8      2.044      3.007
REMARK  8 active torsions:
REMARK  status: ('A' for Active; 'I' for Inactive)
REMARK    1  A    between atoms: C2_2  and  C3_3 
REMARK    2  A    between atoms: C3_3  and  C4_4 
REMARK    3  A    between atoms: C4_4  and  C5_5 
REMARK    4  A    between atoms: C5_5  and  C6_6 
REMARK    5  A    between atoms: C6_6  and  O1_7 
REMARK    6  A    between atoms: O1_7  and  C7_8 
REMARK    7  A    between atoms: C10_11  and  N1_12 
REMARK    8  A    between atoms: C18_23  and  O2_24 
ROOT
HETATM    1  C7  UNL     1      24.063   1.683  52.728  1.00  0.00     0.104 C 
HETATM    2  C8  UNL     1      24.005   2.511  51.628  1.00  0.00     0.051 C 
HETATM    3  C9  UNL     1      22.658   2.575  50.978  1.00  0.00    -0.004 C 
HETATM    4  C10 UNL     1      21.916   3.684  50.758  1.00  0.00     0.138 C 
HETATM    5  N2  UNL     1      20.425   3.547  50.887  1.00  0.00    -0.226 NA
HETATM    6  C16 UNL     1      19.895   2.957  52.005  1.00  0.00     0.209 C 
HETATM    7  N3  UNL     1      20.433   1.773  52.771  1.00  0.00    -0.351 N 
HETATM    8  C17 UNL     1      21.718   1.246  52.322  1.00  0.00     0.050 C 
HETATM    9  C18 UNL     1      22.777   0.979  53.128  1.00  0.00     0.122 C 
HETATM   10  C19 UNL     1      22.074   1.134  50.777  1.00  0.00     0.102 C 
HETATM   11  H17 UNL     1      20.259   1.140  53.573  1.00  0.00     0.166 HD
ENDROOT
BRANCH   1  12
HETATM   12  O1  UNL     1      25.151   1.470  53.441  1.00  0.00    -0.348 OA
BRANCH  12  13
HETATM   13  C6  UNL     1      26.477   1.283  53.019  1.00  0.00     0.176 C 
BRANCH  13  14
HETATM   14  C5  UNL     1      26.489   0.053  52.112  1.00  0.00     0.028 C 
BRANCH  14  15
HETATM   15  C4  UNL     1      26.481  -1.195  52.981  1.00  0.00     0.019 C 
BRANCH  15  16
HETATM   16  C3  UNL     1      27.775  -1.887  52.829  1.00  0.00     0.067 C 
BRANCH  16  17
HETATM   17  C2  UNL     1      28.862  -1.355  53.316  1.00  0.00    -0.176 C 
HETATM   18  C1  UNL     1      30.003  -0.738  53.563  1.00  0.00     0.091 C 
ENDBRANCH  16  17
ENDBRANCH  15  16
ENDBRANCH  14  15
ENDBRANCH  13  14
ENDBRANCH  12  13
ENDBRANCH   1  12
BRANCH   9  19
HETATM   19  O2  UNL     1      22.239   0.142  54.047  1.00  0.00    -0.356 OA
HETATM   20  H18 UNL     1      22.076   0.450  54.990  1.00  0.00     0.218 HD
ENDBRANCH   9  19
BRANCH   4  21
HETATM   21  N1  UNL     1      22.970   4.607  50.515  1.00  0.00    -0.338 N 
HETATM   22  C11 UNL     1      23.715   4.490  49.308  1.00  0.00     0.094 A 
HETATM   23  C12 UNL     1      24.680   5.385  49.168  1.00  0.00     0.041 A 
HETATM   24  C13 UNL     1      25.001   6.429  50.135  1.00  0.00     0.033 A 
HETATM   25 CL1  UNL     1      26.280   7.586  49.912  1.00  0.00    -0.085 Cl
HETATM   26  C14 UNL     1      24.240   6.439  51.217  1.00  0.00     0.017 A 
HETATM   27  C15 UNL     1      23.110   5.556  51.603  1.00  0.00     0.159 A 
ENDBRANCH   4  21
TORSDOF 8
ENDMDL
MODEL 9
REMARK VINA RESULT:      -6.7      7.980      9.885
REMARK  8 active torsions:
REMARK  status: ('A' for Active; 'I' for Inactive)
REMARK    1  A    between atoms: C2_2  and  C3_3 
REMARK    2  A    between atoms: C3_3  and  C4_4 
REMARK    3  A    between atoms: C4_4  and  C5_5 
REMARK    4  A    between atoms: C5_5  and  C6_6 
REMARK    5  A    between atoms: C6_6  and  O1_7 
REMARK    6  A    between atoms: O1_7  and  C7_8 
REMARK    7  A    between atoms: C10_11  and  N1_12 
REMARK    8  A    between atoms: C18_23  and  O2_24 
ROOT
HETATM    1  C7  UNL     1      29.115   5.734  48.034  1.00  0.00     0.104 C 
HETATM    2  C8  UNL     1      29.142   7.044  47.607  1.00  0.00     0.051 C 
HETATM    3  C9  UNL     1      27.900   7.817  47.922  1.00  0.00    -0.004 C 
HETATM    4  C10 UNL     1      27.818   8.967  48.629  1.00  0.00     0.138 C 
HETATM    5  N2  UNL     1      26.610   9.148  49.505  1.00  0.00    -0.226 NA
HETATM    6  C16 UNL     1      26.249   8.148  50.371  1.00  0.00     0.209 C 
HETATM    7  N3  UNL     1      26.308   6.658  50.143  1.00  0.00    -0.351 N 
HETATM    8  C17 UNL     1      26.904   6.223  48.884  1.00  0.00     0.050 C 
HETATM    9  C18 UNL     1      27.864   5.271  48.761  1.00  0.00     0.122 C 
HETATM   10  C19 UNL     1      26.625   6.997  47.524  1.00  0.00     0.102 C 
HETATM   11  H17 UNL     1      26.103   5.733  50.563  1.00  0.00     0.166 HD
ENDROOT
BRANCH   1  12
HETATM   12  O1  UNL     1      30.097   4.873  47.850  1.00  0.00    -0.348 OA
BRANCH  12  13
HETATM   13  C6  UNL     1      31.486   5.079  47.873  1.00  0.00     0.176 C 
BRANCH  13  14
HETATM   14  C5  UNL     1      32.071   4.319  46.683  1.00  0.00     0.028 C 
BRANCH  14  15
HETATM   15  C4  UNL     1      33.397   3.703  47.101  1.00  0.00     0.019 C 
BRANCH  15  16
HETATM   16  C3  UNL     1      33.130   2.421  47.783  1.00  0.00     0.067 C 
BRANCH  16  17
HETATM   17  C2  UNL     1      32.613   1.424  47.120  1.00  0.00    -0.176 C 
HETATM   18  C1  UNL     1      31.865   0.547  46.475  1.00  0.00     0.091 C 
ENDBRANCH  16  17
ENDBRANCH  15  16
ENDBRANCH  14  15
ENDBRANCH  13  14
ENDBRANCH  12  13
ENDBRANCH   1  12
BRANCH   9  19
HETATM   19  O2  UNL     1      27.303   4.211  49.388  1.00  0.00    -0.356 OA
HETATM   20  H18 UNL     1      27.851   3.399  49.616  1.00  0.00     0.218 HD
ENDBRANCH   9  19
BRANCH   4  21
HETATM   21  N1  UNL     1      29.051   9.554  48.234  1.00  0.00    -0.338 N 
HETATM   22  C11 UNL     1      29.162  10.088  46.920  1.00  0.00     0.094 A 
HETATM   23  C12 UNL     1      30.347  10.608  46.635  1.00  0.00     0.041 A 
HETATM   24  C13 UNL     1      31.480  10.660  47.552  1.00  0.00     0.033 A 
HETATM   25 CL1  UNL     1      33.020  11.353  47.136  1.00  0.00    -0.085 Cl
HETATM   26  C14 UNL     1      31.257  10.133  48.744  1.00  0.00     0.017 A 
HETATM   27  C15 UNL     1      30.034   9.500  49.299  1.00  0.00     0.159 A 
ENDBRANCH   4  21
TORSDOF 8
ENDMDL
