MODEL 1
REMARK VINA RESULT:      -8.6      0.000      0.000
REMARK  4 active torsions:
REMARK  status: ('A' for Active; 'I' for Inactive)
REMARK    1  A    between atoms: C2_2  and  C3_3 
REMARK    2  A    between atoms: C3_3  and  C4_5 
REMARK    3  A    between atoms: C7_9  and  N2_10 
REMARK    4  A    between atoms: N2_10  and  C8_11 
ROOT
HETATM    1  C4  UNL     1      21.206   0.239  51.413  1.00  0.00     0.059 C 
HETATM    2  C5  UNL     1      22.384   0.366  52.031  1.00  0.00     0.040 A 
HETATM    3  C6  UNL     1      23.407   1.236  51.430  1.00  0.00     0.208 A 
HETATM    4  N1  UNL     1      24.602   1.274  52.219  1.00  0.00    -0.265 NA
HETATM    5  C7  UNL     1      24.763   0.636  53.305  1.00  0.00     0.153 A 
HETATM    6  C15 UNL     1      23.783  -0.234  53.934  1.00  0.00     0.110 A 
HETATM    7  C16 UNL     1      24.060  -0.850  55.070  1.00  0.00     0.204 A 
HETATM    8  O1  UNL     1      23.069  -1.661  55.603  1.00  0.00    -0.222 OA
HETATM    9  N3  UNL     1      21.843  -1.822  54.976  1.00  0.00    -0.123 NA
HETATM   10  C17 UNL     1      21.602  -1.208  53.870  1.00  0.00     0.245 A 
HETATM   11  N4  UNL     1      22.557  -0.353  53.244  1.00  0.00    -0.301 N 
ENDROOT
BRANCH   5  12
HETATM   12  N2  UNL     1      26.029   0.839  53.891  1.00  0.00    -0.339 N 
HETATM   13  H6  UNL     1      26.146   1.554  54.677  1.00  0.00     0.167 HD
BRANCH  12  14
HETATM   14  C8  UNL     1      27.293   0.242  53.662  1.00  0.00     0.042 A 
HETATM   15  C9  UNL     1      27.340  -1.136  53.410  1.00  0.00     0.072 A 
HETATM   16  C10 UNL     1      28.494  -1.817  53.184  1.00  0.00     0.118 A 
HETATM   17  F1  UNL     1      28.512  -3.176  52.942  1.00  0.00    -0.206 F 
HETATM   18  C11 UNL     1      29.695  -1.166  53.195  1.00  0.00     0.043 A 
HETATM   19  C12 UNL     1      29.664   0.212  53.446  1.00  0.00     0.012 A 
HETATM   20  C13 UNL     1      28.497   0.911  53.675  1.00  0.00    -0.035 A 
HETATM   21  C14 UNL     1      28.532   2.371  53.918  1.00  0.00     0.050 C 
ENDBRANCH  12  14
ENDBRANCH   5  12
BRANCH   1  22
HETATM   22  C3  UNL     1      20.790   0.875  50.178  1.00  0.00     0.076 C 
HETATM   23 CL1  UNL     1      21.617   1.001  48.671  1.00  0.00    -0.075 Cl
BRANCH  22  24
HETATM   24  C2  UNL     1      19.635   1.509  50.015  1.00  0.00    -0.131 C 
HETATM   25  C1  UNL     1      18.388   1.872  49.710  1.00  0.00     0.098 C 
ENDBRANCH  22  24
ENDBRANCH   1  22
TORSDOF 4
ENDMDL
MODEL 2
REMARK VINA RESULT:      -8.4      1.858      2.412
REMARK  4 active torsions:
REMARK  status: ('A' for Active; 'I' for Inactive)
REMARK    1  A    between atoms: C2_2  and  C3_3 
REMARK    2  A    between atoms: C3_3  and  C4_5 
REMARK    3  A    between atoms: C7_9  and  N2_10 
REMARK    4  A    between atoms: N2_10  and  C8_11 
ROOT
HETATM    1  C4  UNL     1      21.640   1.520  51.198  1.00  0.00     0.059 C 
HETATM    2  C5  UNL     1      22.637   1.029  51.939  1.00  0.00     0.040 A 
HETATM    3  C6  UNL     1      24.016   1.438  51.630  1.00  0.00     0.208 A 
HETATM    4  N1  UNL     1      24.961   0.836  52.522  1.00  0.00    -0.265 NA
HETATM    5  C7  UNL     1      24.651   0.044  53.466  1.00  0.00     0.153 A 
HETATM    6  C15 UNL     1      23.305  -0.387  53.806  1.00  0.00     0.110 A 
HETATM    7  C16 UNL     1      23.099  -1.217  54.814  1.00  0.00     0.204 A 
HETATM    8  O1  UNL     1      21.785  -1.578  55.072  1.00  0.00    -0.222 OA
HETATM    9  N3  UNL     1      20.733  -1.094  54.310  1.00  0.00    -0.123 NA
HETATM   10  C17 UNL     1      20.965  -0.286  53.334  1.00  0.00     0.245 A 
HETATM   11  N4  UNL     1      22.281   0.143  52.991  1.00  0.00    -0.301 N 
ENDROOT
BRANCH   5  12
HETATM   12  N2  UNL     1      25.763  -0.414  54.200  1.00  0.00    -0.339 N 
HETATM   13  H6  UNL     1      25.618  -0.976  55.098  1.00  0.00     0.167 HD
BRANCH  12  14
HETATM   14  C8  UNL     1      27.160  -0.300  53.987  1.00  0.00     0.042 A 
HETATM   15  C9  UNL     1      27.830   0.794  54.551  1.00  0.00     0.072 A 
HETATM   16  C10 UNL     1      29.163   1.011  54.407  1.00  0.00     0.118 A 
HETATM   17  F1  UNL     1      29.798   2.100  54.970  1.00  0.00    -0.206 F 
HETATM   18  C11 UNL     1      29.930   0.144  53.682  1.00  0.00     0.043 A 
HETATM   19  C12 UNL     1      29.275  -0.955  53.113  1.00  0.00     0.012 A 
HETATM   20  C13 UNL     1      27.921  -1.183  53.254  1.00  0.00    -0.035 A 
HETATM   21  C14 UNL     1      27.292  -2.373  52.640  1.00  0.00     0.050 C 
ENDBRANCH  12  14
ENDBRANCH   5  12
BRANCH   1  22
HETATM   22  C3  UNL     1      21.748   2.443  50.084  1.00  0.00     0.076 C 
HETATM   23 CL1  UNL     1      21.475   4.144  50.033  1.00  0.00    -0.075 Cl
BRANCH  22  24
HETATM   24  C2  UNL     1      22.084   2.090  48.849  1.00  0.00    -0.131 C 
HETATM   25  C1  UNL     1      22.364   2.045  47.546  1.00  0.00     0.098 C 
ENDBRANCH  22  24
ENDBRANCH   1  22
TORSDOF 4
ENDMDL
MODEL 3
REMARK VINA RESULT:      -8.1      3.292      7.345
REMARK  4 active torsions:
REMARK  status: ('A' for Active; 'I' for Inactive)
REMARK    1  A    between atoms: C2_2  and  C3_3 
REMARK    2  A    between atoms: C3_3  and  C4_5 
REMARK    3  A    between atoms: C7_9  and  N2_10 
REMARK    4  A    between atoms: N2_10  and  C8_11 
ROOT
HETATM    1  C4  UNL     1      26.487   0.096  54.362  1.00  0.00     0.059 C 
HETATM    2  C5  UNL     1      25.348   0.228  53.677  1.00  0.00     0.040 A 
HETATM    3  C6  UNL     1      25.356   1.017  52.436  1.00  0.00     0.208 A 
HETATM    4  N1  UNL     1      24.065   1.050  51.818  1.00  0.00    -0.265 NA
HETATM    5  C7  UNL     1      23.034   0.470  52.283  1.00  0.00     0.153 A 
HETATM    6  C15 UNL     1      22.979  -0.317  53.503  1.00  0.00     0.110 A 
HETATM    7  C16 UNL     1      21.847  -0.878  53.892  1.00  0.00     0.204 A 
HETATM    8  O1  UNL     1      21.881  -1.612  55.068  1.00  0.00    -0.222 OA
HETATM    9  N3  UNL     1      23.047  -1.754  55.805  1.00  0.00    -0.123 NA
HETATM   10  C17 UNL     1      24.135  -1.196  55.401  1.00  0.00     0.245 A 
HETATM   11  N4  UNL     1      24.200  -0.422  54.205  1.00  0.00    -0.301 N 
ENDROOT
BRANCH   5  12
HETATM   12  N2  UNL     1      21.883   0.654  51.490  1.00  0.00    -0.339 N 
HETATM   13  H6  UNL     1      21.635  -0.059  50.733  1.00  0.00     0.167 HD
BRANCH  12  14
HETATM   14  C8  UNL     1      20.880   1.655  51.481  1.00  0.00     0.042 A 
HETATM   15  C9  UNL     1      21.281   2.996  51.401  1.00  0.00     0.072 A 
HETATM   16  C10 UNL     1      20.411   4.039  51.394  1.00  0.00     0.118 A 
HETATM   17  F1  UNL     1      20.833   5.351  51.318  1.00  0.00    -0.206 F 
HETATM   18  C11 UNL     1      19.065   3.816  51.467  1.00  0.00     0.043 A 
HETATM   19  C12 UNL     1      18.648   2.481  51.547  1.00  0.00     0.012 A 
HETATM   20  C13 UNL     1      19.526   1.417  51.555  1.00  0.00    -0.035 A 
HETATM   21  C14 UNL     1      19.019   0.028  51.626  1.00  0.00     0.050 C 
ENDBRANCH  12  14
ENDBRANCH   5  12
BRANCH   1  22
HETATM   22  C3  UNL     1      27.784   0.652  54.023  1.00  0.00     0.076 C 
HETATM   23 CL1  UNL     1      28.240   2.290  53.741  1.00  0.00    -0.075 Cl
BRANCH  22  24
HETATM   24  C2  UNL     1      28.887  -0.068  53.857  1.00  0.00    -0.131 C 
HETATM   25  C1  UNL     1      29.793  -0.995  53.545  1.00  0.00     0.098 C 
ENDBRANCH  22  24
ENDBRANCH   1  22
TORSDOF 4
ENDMDL
MODEL 4
REMARK VINA RESULT:      -8.0      3.271      6.867
REMARK  4 active torsions:
REMARK  status: ('A' for Active; 'I' for Inactive)
REMARK    1  A    between atoms: C2_2  and  C3_3 
REMARK    2  A    between atoms: C3_3  and  C4_5 
REMARK    3  A    between atoms: C7_9  and  N2_10 
REMARK    4  A    between atoms: N2_10  and  C8_11 
ROOT
HETATM    1  C4  UNL     1      26.629  -0.120  54.405  1.00  0.00     0.059 C 
HETATM    2  C5  UNL     1      25.515   0.156  53.723  1.00  0.00     0.040 A 
HETATM    3  C6  UNL     1      25.612   0.996  52.520  1.00  0.00     0.208 A 
HETATM    4  N1  UNL     1      24.336   1.186  51.899  1.00  0.00    -0.265 NA
HETATM    5  C7  UNL     1      23.248   0.693  52.333  1.00  0.00     0.153 A 
HETATM    6  C15 UNL     1      23.105  -0.140  53.515  1.00  0.00     0.110 A 
HETATM    7  C16 UNL     1      21.919  -0.601  53.874  1.00  0.00     0.204 A 
HETATM    8  O1  UNL     1      21.870  -1.388  55.015  1.00  0.00    -0.222 OA
HETATM    9  N3  UNL     1      23.009  -1.680  55.749  1.00  0.00    -0.123 NA
HETATM   10  C17 UNL     1      24.151  -1.216  55.375  1.00  0.00     0.245 A 
HETATM   11  N4  UNL     1      24.303  -0.398  54.216  1.00  0.00    -0.301 N 
ENDROOT
BRANCH   5  12
HETATM   12  N2  UNL     1      22.128   1.027  51.545  1.00  0.00    -0.339 N 
HETATM   13  H6  UNL     1      21.216   0.479  51.650  1.00  0.00     0.167 HD
BRANCH  12  14
HETATM   14  C8  UNL     1      21.916   2.028  50.565  1.00  0.00     0.042 A 
HETATM   15  C9  UNL     1      22.256   1.741  49.237  1.00  0.00     0.072 A 
HETATM   16  C10 UNL     1      22.104   2.625  48.216  1.00  0.00     0.118 A 
HETATM   17  F1  UNL     1      22.452   2.316  46.916  1.00  0.00    -0.206 F 
HETATM   18  C11 UNL     1      21.598   3.872  48.451  1.00  0.00     0.043 A 
HETATM   19  C12 UNL     1      21.253   4.174  49.774  1.00  0.00     0.012 A 
HETATM   20  C13 UNL     1      21.404   3.282  50.816  1.00  0.00    -0.035 A 
HETATM   21  C14 UNL     1      21.004   3.659  52.190  1.00  0.00     0.050 C 
ENDBRANCH  12  14
ENDBRANCH   5  12
BRANCH   1  22
HETATM   22  C3  UNL     1      27.978   0.317  54.098  1.00  0.00     0.076 C 
HETATM   23 CL1  UNL     1      28.619   1.913  53.987  1.00  0.00    -0.075 Cl
BRANCH  22  24
HETATM   24  C2  UNL     1      28.987  -0.501  53.825  1.00  0.00    -0.131 C 
HETATM   25  C1  UNL     1      29.766  -1.514  53.443  1.00  0.00     0.098 C 
ENDBRANCH  22  24
ENDBRANCH   1  22
TORSDOF 4
ENDMDL
MODEL 5
REMARK VINA RESULT:      -7.8      1.960      2.272
REMARK  4 active torsions:
REMARK  status: ('A' for Active; 'I' for Inactive)
REMARK    1  A    between atoms: C2_2  and  C3_3 
REMARK    2  A    between atoms: C3_3  and  C4_5 
REMARK    3  A    between atoms: C7_9  and  N2_10 
REMARK    4  A    between atoms: N2_10  and  C8_11 
ROOT
HETATM    1  C4  UNL     1      22.400   2.738  50.455  1.00  0.00     0.059 C 
HETATM    2  C5  UNL     1      23.346   2.307  51.293  1.00  0.00     0.040 A 
HETATM    3  C6  UNL     1      24.609   3.056  51.379  1.00  0.00     0.208 A 
HETATM    4  N1  UNL     1      25.508   2.475  52.330  1.00  0.00    -0.265 NA
HETATM    5  C7  UNL     1      25.251   1.437  53.017  1.00  0.00     0.153 A 
HETATM    6  C15 UNL     1      24.020   0.666  52.965  1.00  0.00     0.110 A 
HETATM    7  C16 UNL     1      23.860  -0.400  53.728  1.00  0.00     0.204 A 
HETATM    8  O1  UNL     1      22.655  -1.079  53.616  1.00  0.00    -0.222 OA
HETATM    9  N3  UNL     1      21.662  -0.661  52.745  1.00  0.00    -0.123 NA
HETATM   10  C17 UNL     1      21.846   0.382  52.013  1.00  0.00     0.245 A 
HETATM   11  N4  UNL     1      23.051   1.146  52.056  1.00  0.00    -0.301 N 
ENDROOT
BRANCH   5  12
HETATM   12  N2  UNL     1      26.300   1.064  53.882  1.00  0.00    -0.339 N 
HETATM   13  H6  UNL     1      26.244   1.297  54.923  1.00  0.00     0.167 HD
BRANCH  12  14
HETATM   14  C8  UNL     1      27.516   0.370  53.662  1.00  0.00     0.042 A 
HETATM   15  C9  UNL     1      27.457  -1.006  53.402  1.00  0.00     0.072 A 
HETATM   16  C10 UNL     1      28.557  -1.774  53.184  1.00  0.00     0.118 A 
HETATM   17  F1  UNL     1      28.471  -3.130  52.935  1.00  0.00    -0.206 F 
HETATM   18  C11 UNL     1      29.804  -1.219  53.211  1.00  0.00     0.043 A 
HETATM   19  C12 UNL     1      29.879   0.156  53.469  1.00  0.00     0.012 A 
HETATM   20  C13 UNL     1      28.768   0.943  53.691  1.00  0.00    -0.035 A 
HETATM   21  C14 UNL     1      28.915   2.394  53.942  1.00  0.00     0.050 C 
ENDBRANCH  12  14
ENDBRANCH   5  12
BRANCH   1  22
HETATM   22  C3  UNL     1      22.460   3.897  49.584  1.00  0.00     0.076 C 
HETATM   23 CL1  UNL     1      22.863   3.998  47.912  1.00  0.00    -0.075 Cl
BRANCH  22  24
HETATM   24  C2  UNL     1      22.209   5.141  49.975  1.00  0.00    -0.131 C 
HETATM   25  C1  UNL     1      22.049   6.278  50.654  1.00  0.00     0.098 C 
ENDBRANCH  22  24
ENDBRANCH   1  22
TORSDOF 4
ENDMDL
MODEL 6
REMARK VINA RESULT:      -7.8      3.497      7.644
REMARK  4 active torsions:
REMARK  status: ('A' for Active; 'I' for Inactive)
REMARK    1  A    between atoms: C2_2  and  C3_3 
REMARK    2  A    between atoms: C3_3  and  C4_5 
REMARK    3  A    between atoms: C7_9  and  N2_10 
REMARK    4  A    between atoms: N2_10  and  C8_11 
ROOT
HETATM    1  C4  UNL     1      26.497   0.435  52.211  1.00  0.00     0.059 C 
HETATM    2  C5  UNL     1      25.201   0.671  52.431  1.00  0.00     0.040 A 
HETATM    3  C6  UNL     1      24.417  -0.326  53.176  1.00  0.00     0.208 A 
HETATM    4  N1  UNL     1      23.054   0.082  53.339  1.00  0.00    -0.265 NA
HETATM    5  C7  UNL     1      22.575   1.172  52.892  1.00  0.00     0.153 A 
HETATM    6  C15 UNL     1      23.310   2.183  52.152  1.00  0.00     0.110 A 
HETATM    7  C16 UNL     1      22.708   3.283  51.735  1.00  0.00     0.204 A 
HETATM    8  O1  UNL     1      23.481   4.197  51.035  1.00  0.00    -0.222 OA
HETATM    9  N3  UNL     1      24.825   3.971  50.781  1.00  0.00    -0.123 NA
HETATM   10  C17 UNL     1      25.385   2.890  51.199  1.00  0.00     0.245 A 
HETATM   11  N4  UNL     1      24.673   1.890  51.927  1.00  0.00    -0.301 N 
ENDROOT
BRANCH   5  12
HETATM   12  N2  UNL     1      21.206   1.341  53.182  1.00  0.00    -0.339 N 
HETATM   13  H6  UNL     1      20.884   2.160  53.789  1.00  0.00     0.167 HD
BRANCH  12  14
HETATM   14  C8  UNL     1      20.053   0.612  52.798  1.00  0.00     0.042 A 
HETATM   15  C9  UNL     1      19.692  -0.508  53.560  1.00  0.00     0.072 A 
HETATM   16  C10 UNL     1      18.613  -1.286  53.283  1.00  0.00     0.118 A 
HETATM   17  F1  UNL     1      18.282  -2.386  54.049  1.00  0.00    -0.206 F 
HETATM   18  C11 UNL     1      17.811  -1.000  52.215  1.00  0.00     0.043 A 
HETATM   19  C12 UNL     1      18.159   0.116  51.444  1.00  0.00     0.012 A 
HETATM   20  C13 UNL     1      19.252   0.911  51.719  1.00  0.00    -0.035 A 
HETATM   21  C14 UNL     1      19.555   2.087  50.873  1.00  0.00     0.050 C 
ENDBRANCH  12  14
ENDBRANCH   5  12
BRANCH   1  22
HETATM   22  C3  UNL     1      27.261  -0.724  52.631  1.00  0.00     0.076 C 
HETATM   23 CL1  UNL     1      26.972  -2.398  52.342  1.00  0.00    -0.075 Cl
BRANCH  22  24
HETATM   24  C2  UNL     1      28.368  -0.666  53.362  1.00  0.00    -0.131 C 
HETATM   25  C1  UNL     1      29.622  -0.668  53.815  1.00  0.00     0.098 C 
ENDBRANCH  22  24
ENDBRANCH   1  22
TORSDOF 4
ENDMDL
MODEL 7
REMARK VINA RESULT:      -7.7      3.472      7.103
REMARK  4 active torsions:
REMARK  status: ('A' for Active; 'I' for Inactive)
REMARK    1  A    between atoms: C2_2  and  C3_3 
REMARK    2  A    between atoms: C3_3  and  C4_5 
REMARK    3  A    between atoms: C7_9  and  N2_10 
REMARK    4  A    between atoms: N2_10  and  C8_11 
ROOT
HETATM    1  C4  UNL     1      26.405  -0.318  54.104  1.00  0.00     0.059 C 
HETATM    2  C5  UNL     1      25.260   0.098  53.556  1.00  0.00     0.040 A 
HETATM    3  C6  UNL     1      25.318   1.036  52.425  1.00  0.00     0.208 A 
HETATM    4  N1  UNL     1      24.010   1.372  51.946  1.00  0.00    -0.265 NA
HETATM    5  C7  UNL     1      22.930   0.919  52.437  1.00  0.00     0.153 A 
HETATM    6  C15 UNL     1      22.826  -0.007  53.553  1.00  0.00     0.110 A 
HETATM    7  C16 UNL     1      21.644  -0.415  53.981  1.00  0.00     0.204 A 
HETATM    8  O1  UNL     1      21.633  -1.298  55.051  1.00  0.00    -0.222 OA
HETATM    9  N3  UNL     1      22.806  -1.736  55.646  1.00  0.00    -0.123 NA
HETATM   10  C17 UNL     1      23.943  -1.321  55.207  1.00  0.00     0.245 A 
HETATM   11  N4  UNL     1      24.057  -0.413  54.113  1.00  0.00    -0.301 N 
ENDROOT
BRANCH   5  12
HETATM   12  N2  UNL     1      21.775   1.402  51.790  1.00  0.00    -0.339 N 
HETATM   13  H6  UNL     1      20.833   0.918  51.942  1.00  0.00     0.167 HD
BRANCH  12  14
HETATM   14  C8  UNL     1      21.558   2.496  50.916  1.00  0.00     0.042 A 
HETATM   15  C9  UNL     1      21.523   3.786  51.463  1.00  0.00     0.072 A 
HETATM   16  C10 UNL     1      21.315   4.907  50.723  1.00  0.00     0.118 A 
HETATM   17  F1  UNL     1      21.281   6.166  51.289  1.00  0.00    -0.206 F 
HETATM   18  C11 UNL     1      21.126   4.820  49.374  1.00  0.00     0.043 A 
HETATM   19  C12 UNL     1      21.159   3.537  48.812  1.00  0.00     0.012 A 
HETATM   20  C13 UNL     1      21.369   2.394  49.555  1.00  0.00    -0.035 A 
HETATM   21  C14 UNL     1      21.409   1.069  48.897  1.00  0.00     0.050 C 
ENDBRANCH  12  14
ENDBRANCH   5  12
BRANCH   1  22
HETATM   22  C3  UNL     1      27.752   0.050  53.708  1.00  0.00     0.076 C 
HETATM   23 CL1  UNL     1      28.458   1.611  53.527  1.00  0.00    -0.075 Cl
BRANCH  22  24
HETATM   24  C2  UNL     1      28.704  -0.821  53.394  1.00  0.00    -0.131 C 
HETATM   25  C1  UNL     1      29.508  -1.879  53.292  1.00  0.00     0.098 C 
ENDBRANCH  22  24
ENDBRANCH   1  22
TORSDOF 4
ENDMDL
MODEL 8
REMARK VINA RESULT:      -7.7      4.523      5.637
REMARK  4 active torsions:
REMARK  status: ('A' for Active; 'I' for Inactive)
REMARK    1  A    between atoms: C2_2  and  C3_3 
REMARK    2  A    between atoms: C3_3  and  C4_5 
REMARK    3  A    between atoms: C7_9  and  N2_10 
REMARK    4  A    between atoms: N2_10  and  C8_11 
ROOT
HETATM    1  C4  UNL     1      25.288   6.083  49.294  1.00  0.00     0.059 C 
HETATM    2  C5  UNL     1      25.468   4.908  49.902  1.00  0.00     0.040 A 
HETATM    3  C6  UNL     1      26.673   4.125  49.587  1.00  0.00     0.208 A 
HETATM    4  N1  UNL     1      26.722   2.902  50.329  1.00  0.00    -0.265 NA
HETATM    5  C7  UNL     1      25.834   2.532  51.160  1.00  0.00     0.153 A 
HETATM    6  C15 UNL     1      24.629   3.271  51.501  1.00  0.00     0.110 A 
HETATM    7  C16 UNL     1      23.771   2.789  52.384  1.00  0.00     0.204 A 
HETATM    8  O1  UNL     1      22.648   3.557  52.652  1.00  0.00    -0.222 OA
HETATM    9  N3  UNL     1      22.430   4.774  52.026  1.00  0.00    -0.123 NA
HETATM   10  C17 UNL     1      23.284   5.218  51.170  1.00  0.00     0.245 A 
HETATM   11  N4  UNL     1      24.469   4.501  50.827  1.00  0.00    -0.301 N 
ENDROOT
BRANCH   5  12
HETATM   12  N2  UNL     1      26.112   1.288  51.760  1.00  0.00    -0.339 N 
HETATM   13  H6  UNL     1      25.460   0.457  51.597  1.00  0.00     0.167 HD
BRANCH  12  14
HETATM   14  C8  UNL     1      27.168   0.847  52.596  1.00  0.00     0.042 A 
HETATM   15  C9  UNL     1      27.943   1.813  53.252  1.00  0.00     0.072 A 
HETATM   16  C10 UNL     1      28.984   1.509  54.071  1.00  0.00     0.118 A 
HETATM   17  F1  UNL     1      29.734   2.482  54.702  1.00  0.00    -0.206 F 
HETATM   18  C11 UNL     1      29.330   0.207  54.293  1.00  0.00     0.043 A 
HETATM   19  C12 UNL     1      28.565  -0.771  53.645  1.00  0.00     0.012 A 
HETATM   20  C13 UNL     1      27.506  -0.471  52.813  1.00  0.00    -0.035 A 
HETATM   21  C14 UNL     1      26.727  -1.552  52.170  1.00  0.00     0.050 C 
ENDBRANCH  12  14
ENDBRANCH   5  12
BRANCH   1  22
HETATM   22  C3  UNL     1      26.165   6.713  48.325  1.00  0.00     0.076 C 
HETATM   23 CL1  UNL     1      27.866   6.541  48.105  1.00  0.00    -0.075 Cl
BRANCH  22  24
HETATM   24  C2  UNL     1      25.765   7.585  47.408  1.00  0.00    -0.131 C 
HETATM   25  C1  UNL     1      25.585   8.317  46.308  1.00  0.00     0.098 C 
ENDBRANCH  22  24
ENDBRANCH   1  22
TORSDOF 4
ENDMDL
MODEL 9
REMARK VINA RESULT:      -7.6      3.668      6.823
REMARK  4 active torsions:
REMARK  status: ('A' for Active; 'I' for Inactive)
REMARK    1  A    between atoms: C2_2  and  C3_3 
REMARK    2  A    between atoms: C3_3  and  C4_5 
REMARK    3  A    between atoms: C7_9  and  N2_10 
REMARK    4  A    between atoms: N2_10  and  C8_11 
ROOT
HETATM    1  C4  UNL     1      26.231   2.712  50.487  1.00  0.00     0.059 C 
HETATM    2  C5  UNL     1      25.242   2.270  51.269  1.00  0.00     0.040 A 
HETATM    3  C6  UNL     1      23.956   2.985  51.254  1.00  0.00     0.208 A 
HETATM    4  N1  UNL     1      23.001   2.380  52.134  1.00  0.00    -0.265 NA
HETATM    5  C7  UNL     1      23.233   1.352  52.844  1.00  0.00     0.153 A 
HETATM    6  C15 UNL     1      24.486   0.616  52.891  1.00  0.00     0.110 A 
HETATM    7  C16 UNL     1      24.615  -0.445  53.669  1.00  0.00     0.204 A 
HETATM    8  O1  UNL     1      25.843  -1.089  53.655  1.00  0.00    -0.222 OA
HETATM    9  N3  UNL     1      26.890  -0.645  52.863  1.00  0.00    -0.123 NA
HETATM   10  C17 UNL     1      26.735   0.392  52.114  1.00  0.00     0.245 A 
HETATM   11  N4  UNL     1      25.510   1.122  52.061  1.00  0.00    -0.301 N 
ENDROOT
BRANCH   5  12
HETATM   12  N2  UNL     1      22.131   0.952  53.627  1.00  0.00    -0.339 N 
HETATM   13  H6  UNL     1      22.151   1.084  54.687  1.00  0.00     0.167 HD
BRANCH  12  14
HETATM   14  C8  UNL     1      20.882   0.375  53.290  1.00  0.00     0.042 A 
HETATM   15  C9  UNL     1      20.020   1.099  52.455  1.00  0.00     0.072 A 
HETATM   16  C10 UNL     1      18.796   0.650  52.072  1.00  0.00     0.118 A 
HETATM   17  F1  UNL     1      17.965   1.386  51.251  1.00  0.00    -0.206 F 
HETATM   18  C11 UNL     1      18.340  -0.564  52.501  1.00  0.00     0.043 A 
HETATM   19  C12 UNL     1      19.190  -1.300  53.335  1.00  0.00     0.012 A 
HETATM   20  C13 UNL     1      20.434  -0.852  53.729  1.00  0.00    -0.035 A 
HETATM   21  C14 UNL     1      21.291  -1.686  54.600  1.00  0.00     0.050 C 
ENDBRANCH  12  14
ENDBRANCH   5  12
BRANCH   1  22
HETATM   22  C3  UNL     1      26.197   3.849  49.587  1.00  0.00     0.076 C 
HETATM   23 CL1  UNL     1      24.846   4.723  48.968  1.00  0.00    -0.075 Cl
BRANCH  22  24
HETATM   24  C2  UNL     1      27.274   4.420  49.061  1.00  0.00    -0.131 C 
HETATM   25  C1  UNL     1      28.145   5.218  48.443  1.00  0.00     0.098 C 
ENDBRANCH  22  24
ENDBRANCH   1  22
TORSDOF 4
ENDMDL
