MODEL 1
REMARK VINA RESULT:      -7.1      0.000      0.000
REMARK  4 active torsions:
REMARK  status: ('A' for Active; 'I' for Inactive)
REMARK    1  A    between atoms: C2_2  and  N1_3 
REMARK    2  A    between atoms: N1_3  and  C3_4 
REMARK    3  A    between atoms: N1_3  and  C5_7 
REMARK    4  A    between atoms: C3_4  and  C4_5 
ROOT
HETATM    1  C5  UNL     1      24.916   0.536  53.137  1.00  0.00     0.035 A 
HETATM    2  C6  UNL     1      24.046  -0.088  53.868  1.00  0.00     0.083 A 
HETATM    3  C7  UNL     1      23.884  -1.120  54.860  1.00  0.00     0.008 A 
HETATM    4  C8  UNL     1      22.714  -1.475  55.393  1.00  0.00     0.017 A 
HETATM    5  C9  UNL     1      21.633  -0.676  54.835  1.00  0.00     0.206 A 
HETATM    6  O1  UNL     1      21.826   0.168  54.015  1.00  0.00     0.000 OA
HETATM    7  N2  UNL     1      20.454  -0.006  54.412  1.00  0.00     0.168 N 
HETATM    8  C10 UNL     1      20.617   0.982  53.463  1.00  0.00     0.259 A 
HETATM    9  C11 UNL     1      20.744   1.814  52.657  1.00  0.00    -0.109 A 
HETATM   10  C12 UNL     1      20.914   2.819  51.680  1.00  0.00     0.069 A 
HETATM   11  C13 UNL     1      22.198   2.673  51.597  1.00  0.00     0.030 A 
HETATM   12  C14 UNL     1      23.542   2.287  51.729  1.00  0.00     0.023 A 
HETATM   13  C15 UNL     1      24.528   1.607  52.199  1.00  0.00     0.056 A 
HETATM   14 CL2  UNL     1      25.999   2.236  51.352  1.00  0.00    -0.082 Cl
HETATM   15  H13 UNL     1      19.486  -0.186  54.757  1.00  0.00     0.332 HD
ENDROOT
BRANCH   1  16
HETATM   16  N1  UNL     1      26.376   0.323  53.091  1.00  0.00    -0.382 N 
BRANCH  16  17
HETATM   17  C2  UNL     1      26.810  -0.575  52.055  1.00  0.00     0.118 C 
HETATM   18  C1  UNL     1      26.869  -2.009  52.464  1.00  0.00     0.026 C 
ENDBRANCH  16  17
BRANCH  16  19
HETATM   19  C3  UNL     1      27.344   0.929  53.984  1.00  0.00     0.137 C 
BRANCH  19  20
HETATM   20  C4  UNL     1      28.713   1.091  53.352  1.00  0.00     0.134 C 
HETATM   21 CL1  UNL     1      29.823  -0.213  53.751  1.00  0.00    -0.129 Cl
ENDBRANCH  19  20
ENDBRANCH  16  19
ENDBRANCH   1  16
TORSDOF 4
ENDMDL
MODEL 2
REMARK VINA RESULT:      -7.0      2.594      5.298
REMARK  4 active torsions:
REMARK  status: ('A' for Active; 'I' for Inactive)
REMARK    1  A    between atoms: C2_2  and  N1_3 
REMARK    2  A    between atoms: N1_3  and  C3_4 
REMARK    3  A    between atoms: N1_3  and  C5_7 
REMARK    4  A    between atoms: C3_4  and  C4_5 
ROOT
HETATM    1  C5  UNL     1      23.807   1.934  51.570  1.00  0.00     0.035 A 
HETATM    2  C6  UNL     1      23.592   1.016  52.459  1.00  0.00     0.083 A 
HETATM    3  C7  UNL     1      22.577   0.180  53.047  1.00  0.00     0.008 A 
HETATM    4  C8  UNL     1      22.802  -0.707  54.019  1.00  0.00     0.017 A 
HETATM    5  C9  UNL     1      24.208  -0.710  54.395  1.00  0.00     0.206 A 
HETATM    6  O1  UNL     1      25.006   0.005  53.871  1.00  0.00     0.000 OA
HETATM    7  N2  UNL     1      25.529  -0.857  54.897  1.00  0.00     0.168 N 
HETATM    8  C10 UNL     1      26.495  -0.055  54.327  1.00  0.00     0.259 A 
HETATM    9  C11 UNL     1      27.318   0.623  53.856  1.00  0.00    -0.109 A 
HETATM   10  C12 UNL     1      28.302   1.451  53.276  1.00  0.00     0.069 A 
HETATM   11  C13 UNL     1      27.486   2.034  52.458  1.00  0.00     0.030 A 
HETATM   12  C14 UNL     1      26.381   2.474  51.709  1.00  0.00     0.023 A 
HETATM   13  C15 UNL     1      25.149   2.506  51.343  1.00  0.00     0.056 A 
HETATM   14 CL2  UNL     1      25.062   3.760  50.039  1.00  0.00    -0.082 Cl
HETATM   15  H13 UNL     1      25.832  -1.518  55.645  1.00  0.00     0.332 HD
ENDROOT
BRANCH   1  16
HETATM   16  N1  UNL     1      22.826   2.559  50.661  1.00  0.00    -0.382 N 
BRANCH  16  17
HETATM   17  C2  UNL     1      22.555   1.800  49.471  1.00  0.00     0.118 C 
HETATM   18  C1  UNL     1      21.315   0.972  49.534  1.00  0.00     0.026 C 
ENDBRANCH  16  17
BRANCH  16  19
HETATM   19  C3  UNL     1      22.160   3.827  50.885  1.00  0.00     0.137 C 
BRANCH  19  20
HETATM   20  C4  UNL     1      21.483   3.909  52.240  1.00  0.00     0.134 C 
HETATM   21 CL1  UNL     1      20.108   2.822  52.398  1.00  0.00    -0.129 Cl
ENDBRANCH  19  20
ENDBRANCH  16  19
ENDBRANCH   1  16
TORSDOF 4
ENDMDL
MODEL 3
REMARK VINA RESULT:      -6.8      2.702      4.648
REMARK  4 active torsions:
REMARK  status: ('A' for Active; 'I' for Inactive)
REMARK    1  A    between atoms: C2_2  and  N1_3 
REMARK    2  A    between atoms: N1_3  and  C3_4 
REMARK    3  A    between atoms: N1_3  and  C5_7 
REMARK    4  A    between atoms: C3_4  and  C4_5 
ROOT
HETATM    1  C5  UNL     1      24.046   2.222  52.574  1.00  0.00     0.035 A 
HETATM    2  C6  UNL     1      24.975   1.628  53.257  1.00  0.00     0.083 A 
HETATM    3  C7  UNL     1      26.378   1.654  53.583  1.00  0.00     0.008 A 
HETATM    4  C8  UNL     1      26.977   0.784  54.397  1.00  0.00     0.017 A 
HETATM    5  C9  UNL     1      26.019  -0.187  54.905  1.00  0.00     0.206 A 
HETATM    6  O1  UNL     1      24.867  -0.160  54.601  1.00  0.00     0.000 OA
HETATM    7  N2  UNL     1      25.243  -1.217  55.501  1.00  0.00     0.168 N 
HETATM    8  C10 UNL     1      23.901  -1.234  55.185  1.00  0.00     0.259 A 
HETATM    9  C11 UNL     1      22.766  -1.261  54.920  1.00  0.00    -0.109 A 
HETATM   10  C12 UNL     1      21.395  -1.280  54.588  1.00  0.00     0.069 A 
HETATM   11  C13 UNL     1      21.456  -0.245  53.812  1.00  0.00     0.030 A 
HETATM   12  C14 UNL     1      21.834   0.874  53.052  1.00  0.00     0.023 A 
HETATM   13  C15 UNL     1      22.646   1.755  52.583  1.00  0.00     0.056 A 
HETATM   14 CL2  UNL     1      21.644   2.819  51.514  1.00  0.00    -0.082 Cl
HETATM   15  H13 UNL     1      25.592  -1.949  56.158  1.00  0.00     0.332 HD
ENDROOT
BRANCH   1  16
HETATM   16  N1  UNL     1      24.182   3.408  51.705  1.00  0.00    -0.382 N 
BRANCH  16  17
HETATM   17  C2  UNL     1      23.748   4.637  52.310  1.00  0.00     0.118 C 
HETATM   18  C1  UNL     1      23.756   5.815  51.393  1.00  0.00     0.026 C 
ENDBRANCH  16  17
BRANCH  16  19
HETATM   19  C3  UNL     1      24.697   3.403  50.350  1.00  0.00     0.137 C 
BRANCH  19  20
HETATM   20  C4  UNL     1      26.209   3.307  50.291  1.00  0.00     0.134 C 
HETATM   21 CL1  UNL     1      26.924   4.330  49.051  1.00  0.00    -0.129 Cl
ENDBRANCH  19  20
ENDBRANCH  16  19
ENDBRANCH   1  16
TORSDOF 4
ENDMDL
MODEL 4
REMARK VINA RESULT:      -6.8      2.420      5.278
REMARK  4 active torsions:
REMARK  status: ('A' for Active; 'I' for Inactive)
REMARK    1  A    between atoms: C2_2  and  N1_3 
REMARK    2  A    between atoms: N1_3  and  C3_4 
REMARK    3  A    between atoms: N1_3  and  C5_7 
REMARK    4  A    between atoms: C3_4  and  C4_5 
ROOT
HETATM    1  C5  UNL     1      23.044   1.045  52.082  1.00  0.00     0.035 A 
HETATM    2  C6  UNL     1      22.803   0.234  53.064  1.00  0.00     0.083 A 
HETATM    3  C7  UNL     1      21.767  -0.518  53.726  1.00  0.00     0.008 A 
HETATM    4  C8  UNL     1      21.966  -1.293  54.794  1.00  0.00     0.017 A 
HETATM    5  C9  UNL     1      23.366  -1.272  55.190  1.00  0.00     0.206 A 
HETATM    6  O1  UNL     1      24.182  -0.630  54.602  1.00  0.00     0.000 OA
HETATM    7  N2  UNL     1      24.678  -1.378  55.727  1.00  0.00     0.168 N 
HETATM    8  C10 UNL     1      25.663  -0.657  55.086  1.00  0.00     0.259 A 
HETATM    9  C11 UNL     1      26.502  -0.046  54.556  1.00  0.00    -0.109 A 
HETATM   10  C12 UNL     1      27.506   0.700  53.903  1.00  0.00     0.069 A 
HETATM   11  C13 UNL     1      26.710   1.198  53.011  1.00  0.00     0.030 A 
HETATM   12  C14 UNL     1      25.623   1.565  52.201  1.00  0.00     0.023 A 
HETATM   13  C15 UNL     1      24.396   1.572  51.814  1.00  0.00     0.056 A 
HETATM   14 CL2  UNL     1      24.346   2.673  50.377  1.00  0.00    -0.082 Cl
HETATM   15  H13 UNL     1      24.961  -1.955  56.549  1.00  0.00     0.332 HD
ENDROOT
BRANCH   1  16
HETATM   16  N1  UNL     1      22.084   1.577  51.093  1.00  0.00    -0.382 N 
BRANCH  16  17
HETATM   17  C2  UNL     1      21.601   2.897  51.389  1.00  0.00     0.118 C 
HETATM   18  C1  UNL     1      20.433   2.936  52.318  1.00  0.00     0.026 C 
ENDBRANCH  16  17
BRANCH  16  19
HETATM   19  C3  UNL     1      21.623   0.879  49.909  1.00  0.00     0.137 C 
BRANCH  19  20
HETATM   20  C4  UNL     1      21.215   1.818  48.790  1.00  0.00     0.134 C 
HETATM   21 CL1  UNL     1      22.458   2.017  47.561  1.00  0.00    -0.129 Cl
ENDBRANCH  19  20
ENDBRANCH  16  19
ENDBRANCH   1  16
TORSDOF 4
ENDMDL
MODEL 5
REMARK VINA RESULT:      -6.7      2.464      5.370
REMARK  4 active torsions:
REMARK  status: ('A' for Active; 'I' for Inactive)
REMARK    1  A    between atoms: C2_2  and  N1_3 
REMARK    2  A    between atoms: N1_3  and  C3_4 
REMARK    3  A    between atoms: N1_3  and  C5_7 
REMARK    4  A    between atoms: C3_4  and  C4_5 
ROOT
HETATM    1  C5  UNL     1      24.259   2.362  51.253  1.00  0.00     0.035 A 
HETATM    2  C6  UNL     1      23.556   1.602  52.032  1.00  0.00     0.083 A 
HETATM    3  C7  UNL     1      22.212   1.258  52.421  1.00  0.00     0.008 A 
HETATM    4  C8  UNL     1      21.906   0.340  53.340  1.00  0.00     0.017 A 
HETATM    5  C9  UNL     1      23.114  -0.261  53.887  1.00  0.00     0.206 A 
HETATM    6  O1  UNL     1      24.203   0.063  53.525  1.00  0.00     0.000 OA
HETATM    7  N2  UNL     1      24.167  -0.959  54.537  1.00  0.00     0.168 N 
HETATM    8  C10 UNL     1      25.450  -0.625  54.158  1.00  0.00     0.259 A 
HETATM    9  C11 UNL     1      26.538  -0.346  53.848  1.00  0.00    -0.109 A 
HETATM   10  C12 UNL     1      27.850   0.003  53.463  1.00  0.00     0.069 A 
HETATM   11  C13 UNL     1      27.477   0.891  52.598  1.00  0.00     0.030 A 
HETATM   12  C14 UNL     1      26.776   1.769  51.754  1.00  0.00     0.023 A 
HETATM   13  C15 UNL     1      25.734   2.323  51.241  1.00  0.00     0.056 A 
HETATM   14 CL2  UNL     1      26.365   3.522  50.040  1.00  0.00    -0.082 Cl
HETATM   15  H13 UNL     1      24.057  -1.700  55.263  1.00  0.00     0.332 HD
ENDROOT
BRANCH   1  16
HETATM   16  N1  UNL     1      23.768   3.360  50.281  1.00  0.00    -0.382 N 
BRANCH  16  17
HETATM   17  C2  UNL     1      23.723   4.704  50.785  1.00  0.00     0.118 C 
HETATM   18  C1  UNL     1      22.570   4.987  51.690  1.00  0.00     0.026 C 
ENDBRANCH  16  17
BRANCH  16  19
HETATM   19  C3  UNL     1      23.348   3.075  48.923  1.00  0.00     0.137 C 
BRANCH  19  20
HETATM   20  C4  UNL     1      21.872   2.743  48.817  1.00  0.00     0.134 C 
HETATM   21 CL1  UNL     1      21.548   1.015  48.776  1.00  0.00    -0.129 Cl
ENDBRANCH  19  20
ENDBRANCH  16  19
ENDBRANCH   1  16
TORSDOF 4
ENDMDL
MODEL 6
REMARK VINA RESULT:      -6.5      3.177      5.492
REMARK  4 active torsions:
REMARK  status: ('A' for Active; 'I' for Inactive)
REMARK    1  A    between atoms: C2_2  and  N1_3 
REMARK    2  A    between atoms: N1_3  and  C3_4 
REMARK    3  A    between atoms: N1_3  and  C5_7 
REMARK    4  A    between atoms: C3_4  and  C4_5 
ROOT
HETATM    1  C5  UNL     1      23.194   2.301  52.421  1.00  0.00     0.035 A 
HETATM    2  C6  UNL     1      24.370   1.932  52.822  1.00  0.00     0.083 A 
HETATM    3  C7  UNL     1      25.773   2.255  52.769  1.00  0.00     0.008 A 
HETATM    4  C8  UNL     1      26.731   1.553  53.379  1.00  0.00     0.017 A 
HETATM    5  C9  UNL     1      26.160   0.425  54.101  1.00  0.00     0.206 A 
HETATM    6  O1  UNL     1      24.987   0.207  54.110  1.00  0.00     0.000 OA
HETATM    7  N2  UNL     1      25.794  -0.719  54.858  1.00  0.00     0.168 N 
HETATM    8  C10 UNL     1      24.450  -1.020  54.906  1.00  0.00     0.259 A 
HETATM    9  C11 UNL     1      23.316  -1.286  54.947  1.00  0.00    -0.109 A 
HETATM   10  C12 UNL     1      21.939  -1.596  54.987  1.00  0.00     0.069 A 
HETATM   11  C13 UNL     1      21.582  -0.598  54.244  1.00  0.00     0.030 A 
HETATM   12  C14 UNL     1      21.510   0.548  53.435  1.00  0.00     0.023 A 
HETATM   13  C15 UNL     1      21.972   1.559  52.787  1.00  0.00     0.056 A 
HETATM   14 CL2  UNL     1      20.529   2.359  52.042  1.00  0.00    -0.082 Cl
HETATM   15  H13 UNL     1      26.445  -1.342  55.385  1.00  0.00     0.332 HD
ENDROOT
BRANCH   1  16
HETATM   16  N1  UNL     1      22.852   3.459  51.571  1.00  0.00    -0.382 N 
BRANCH  16  17
HETATM   17  C2  UNL     1      22.785   3.163  50.167  1.00  0.00     0.118 C 
HETATM   18  C1  UNL     1      24.083   3.303  49.442  1.00  0.00     0.026 C 
ENDBRANCH  16  17
BRANCH  16  19
HETATM   19  C3  UNL     1      22.599   4.805  52.046  1.00  0.00     0.137 C 
BRANCH  19  20
HETATM   20  C4  UNL     1      21.653   5.581  51.150  1.00  0.00     0.134 C 
HETATM   21 CL1  UNL     1      22.168   7.238  50.863  1.00  0.00    -0.129 Cl
ENDBRANCH  19  20
ENDBRANCH  16  19
ENDBRANCH   1  16
TORSDOF 4
ENDMDL
MODEL 7
REMARK VINA RESULT:      -6.3      2.422      5.086
REMARK  4 active torsions:
REMARK  status: ('A' for Active; 'I' for Inactive)
REMARK    1  A    between atoms: C2_2  and  N1_3 
REMARK    2  A    between atoms: N1_3  and  C3_4 
REMARK    3  A    between atoms: N1_3  and  C5_7 
REMARK    4  A    between atoms: C3_4  and  C4_5 
ROOT
HETATM    1  C5  UNL     1      22.669   1.709  51.722  1.00  0.00     0.035 A 
HETATM    2  C6  UNL     1      21.583   1.110  52.095  1.00  0.00     0.083 A 
HETATM    3  C7  UNL     1      20.163   1.021  51.865  1.00  0.00     0.008 A 
HETATM    4  C8  UNL     1      19.343   0.201  52.525  1.00  0.00     0.017 A 
HETATM    5  C9  UNL     1      20.082  -0.587  53.501  1.00  0.00     0.206 A 
HETATM    6  O1  UNL     1      21.260  -0.472  53.647  1.00  0.00     0.000 OA
HETATM    7  N2  UNL     1      20.623  -1.440  54.500  1.00  0.00     0.168 N 
HETATM    8  C10 UNL     1      21.982  -1.351  54.713  1.00  0.00     0.259 A 
HETATM    9  C11 UNL     1      23.130  -1.278  54.904  1.00  0.00    -0.109 A 
HETATM   10  C12 UNL     1      24.520  -1.179  55.125  1.00  0.00     0.069 A 
HETATM   11  C13 UNL     1      24.708  -0.266  54.226  1.00  0.00     0.030 A 
HETATM   12  C14 UNL     1      24.593   0.695  53.208  1.00  0.00     0.023 A 
HETATM   13  C15 UNL     1      23.980   1.409  52.331  1.00  0.00     0.056 A 
HETATM   14 CL2  UNL     1      25.256   2.440  51.565  1.00  0.00    -0.082 Cl
HETATM   15  H13 UNL     1      20.090  -2.128  55.076  1.00  0.00     0.332 HD
ENDROOT
BRANCH   1  16
HETATM   16  N1  UNL     1      22.816   2.747  50.681  1.00  0.00    -0.382 N 
BRANCH  16  17
HETATM   17  C2  UNL     1      22.778   2.245  49.336  1.00  0.00     0.118 C 
HETATM   18  C1  UNL     1      22.463   3.272  48.300  1.00  0.00     0.026 C 
ENDBRANCH  16  17
BRANCH  16  19
HETATM   19  C3  UNL     1      22.992   4.165  50.927  1.00  0.00     0.137 C 
BRANCH  19  20
HETATM   20  C4  UNL     1      21.871   4.767  51.752  1.00  0.00     0.134 C 
HETATM   21 CL1  UNL     1      20.275   4.483  51.069  1.00  0.00    -0.129 Cl
ENDBRANCH  19  20
ENDBRANCH  16  19
ENDBRANCH   1  16
TORSDOF 4
ENDMDL
MODEL 8
REMARK VINA RESULT:      -6.3      2.722      5.836
REMARK  4 active torsions:
REMARK  status: ('A' for Active; 'I' for Inactive)
REMARK    1  A    between atoms: C2_2  and  N1_3 
REMARK    2  A    between atoms: N1_3  and  C3_4 
REMARK    3  A    between atoms: N1_3  and  C5_7 
REMARK    4  A    between atoms: C3_4  and  C4_5 
ROOT
HETATM    1  C5  UNL     1      21.877   1.520  52.115  1.00  0.00     0.035 A 
HETATM    2  C6  UNL     1      21.999   0.671  53.087  1.00  0.00     0.083 A 
HETATM    3  C7  UNL     1      21.266  -0.093  54.064  1.00  0.00     0.008 A 
HETATM    4  C8  UNL     1      21.828  -0.917  54.951  1.00  0.00     0.017 A 
HETATM    5  C9  UNL     1      23.274  -0.934  54.790  1.00  0.00     0.206 A 
HETATM    6  O1  UNL     1      23.828  -0.279  53.961  1.00  0.00     0.000 OA
HETATM    7  N2  UNL     1      24.687  -1.083  54.789  1.00  0.00     0.168 N 
HETATM    8  C10 UNL     1      25.381  -0.349  53.850  1.00  0.00     0.259 A 
HETATM    9  C11 UNL     1      25.977   0.271  53.064  1.00  0.00    -0.109 A 
HETATM   10  C12 UNL     1      26.684   1.030  52.107  1.00  0.00     0.069 A 
HETATM   11  C13 UNL     1      25.626   1.578  51.599  1.00  0.00     0.030 A 
HETATM   12  C14 UNL     1      24.326   1.996  51.271  1.00  0.00     0.023 A 
HETATM   13  C15 UNL     1      23.044   2.038  51.376  1.00  0.00     0.056 A 
HETATM   14 CL2  UNL     1      22.491   3.201  50.103  1.00  0.00    -0.082 Cl
HETATM   15  H13 UNL     1      25.241  -1.699  55.424  1.00  0.00     0.332 HD
ENDROOT
BRANCH   1  16
HETATM   16  N1  UNL     1      20.633   2.109  51.580  1.00  0.00    -0.382 N 
BRANCH  16  17
HETATM   17  C2  UNL     1      20.022   1.344  50.529  1.00  0.00     0.118 C 
HETATM   18  C1  UNL     1      19.034   0.328  50.996  1.00  0.00     0.026 C 
ENDBRANCH  16  17
BRANCH  16  19
HETATM   19  C3  UNL     1      20.028   3.348  52.027  1.00  0.00     0.137 C 
BRANCH  19  20
HETATM   20  C4  UNL     1      19.085   3.950  51.004  1.00  0.00     0.134 C 
HETATM   21 CL1  UNL     1      17.402   3.933  51.514  1.00  0.00    -0.129 Cl
ENDBRANCH  19  20
ENDBRANCH  16  19
ENDBRANCH   1  16
TORSDOF 4
ENDMDL
MODEL 9
REMARK VINA RESULT:      -6.3      8.798     10.755
REMARK  4 active torsions:
REMARK  status: ('A' for Active; 'I' for Inactive)
REMARK    1  A    between atoms: C2_2  and  N1_3 
REMARK    2  A    between atoms: N1_3  and  C3_4 
REMARK    3  A    between atoms: N1_3  and  C5_7 
REMARK    4  A    between atoms: C3_4  and  C4_5 
ROOT
HETATM    1  C5  UNL     1      31.232   6.933  48.151  1.00  0.00     0.035 A 
HETATM    2  C6  UNL     1      30.777   8.075  48.561  1.00  0.00     0.083 A 
HETATM    3  C7  UNL     1      31.145   9.436  48.861  1.00  0.00     0.008 A 
HETATM    4  C8  UNL     1      30.293  10.368  49.292  1.00  0.00     0.017 A 
HETATM    5  C9  UNL     1      28.950   9.819  49.414  1.00  0.00     0.206 A 
HETATM    6  O1  UNL     1      28.704   8.683  49.150  1.00  0.00     0.000 OA
HETATM    7  N2  UNL     1      27.586   9.470  49.597  1.00  0.00     0.168 N 
HETATM    8  C10 UNL     1      27.241   8.167  49.306  1.00  0.00     0.259 A 
HETATM    9  C11 UNL     1      26.941   7.066  49.068  1.00  0.00    -0.109 A 
HETATM   10  C12 UNL     1      26.594   5.729  48.777  1.00  0.00     0.069 A 
HETATM   11  C13 UNL     1      27.792   5.378  48.434  1.00  0.00     0.030 A 
HETATM   12  C14 UNL     1      29.162   5.304  48.131  1.00  0.00     0.023 A 
HETATM   13  C15 UNL     1      30.363   5.749  48.005  1.00  0.00     0.056 A 
HETATM   14 CL2  UNL     1      31.343   4.343  47.422  1.00  0.00    -0.082 Cl
HETATM   15  H13 UNL     1      26.826  10.108  49.920  1.00  0.00     0.332 HD
ENDROOT
BRANCH   1  16
HETATM   16  N1  UNL     1      32.619   6.597  47.771  1.00  0.00    -0.382 N 
BRANCH  16  17
HETATM   17  C2  UNL     1      32.924   6.825  46.386  1.00  0.00     0.118 C 
HETATM   18  C1  UNL     1      33.388   8.209  46.075  1.00  0.00     0.026 C 
ENDBRANCH  16  17
BRANCH  16  19
HETATM   19  C3  UNL     1      33.633   6.073  48.665  1.00  0.00     0.137 C 
BRANCH  19  20
HETATM   20  C4  UNL     1      34.807   5.455  47.932  1.00  0.00     0.134 C 
HETATM   21 CL1  UNL     1      34.864   3.702  48.061  1.00  0.00    -0.129 Cl
ENDBRANCH  19  20
ENDBRANCH  16  19
ENDBRANCH   1  16
TORSDOF 4
ENDMDL
