MODEL 1
REMARK VINA RESULT:      -7.6      0.000      0.000
REMARK  4 active torsions:
REMARK  status: ('A' for Active; 'I' for Inactive)
REMARK    1  A    between atoms: C2_2  and  N1_3 
REMARK    2  A    between atoms: C2_2  and  N2_4 
REMARK    3  A    between atoms: N2_4  and  C3_5 
REMARK    4  A    between atoms: N5_14  and  C9_15 
ROOT
HETATM    1  C3  UNL     1      24.043   3.823  51.442  1.00  0.00     0.286 C 
HETATM    2  P1  UNL     1      25.466   3.459  50.306  1.00  0.00    -0.010 P 
HETATM    3  C4  UNL     1      26.763   2.793  51.104  1.00  0.00    -0.015 C 
HETATM    4  C5  UNL     1      26.352   2.150  52.187  1.00  0.00     0.015 C 
HETATM    5  C6  UNL     1      24.989   1.662  52.236  1.00  0.00     0.154 C 
HETATM    6  C7  UNL     1      24.081   2.826  52.588  1.00  0.00     0.175 C 
HETATM    7  N3  UNL     1      22.742   2.395  52.951  1.00  0.00    -0.273 NA
HETATM    8  C8  UNL     1      22.412   1.130  53.053  1.00  0.00     0.217 C 
HETATM    9  N4  UNL     1      23.411   0.119  52.796  1.00  0.00    -0.295 N 
HETATM   10  N5  UNL     1      24.687   0.590  53.056  1.00  0.00    -0.303 N 
HETATM   11  H13 UNL     1      22.947  -0.779  52.458  1.00  0.00     0.187 HD
ENDROOT
BRANCH   1  12
HETATM   12  N2  UNL     1      24.260   5.152  51.942  1.00  0.00     0.128 N 
HETATM   13  H7  UNL     1      25.256   5.329  52.169  1.00  0.00     0.319 HD
BRANCH  12  14
HETATM   14  C2  UNL     1      23.667   6.150  51.094  1.00  0.00     0.445 C 
HETATM   15  C1  UNL     1      22.141   6.076  51.108  1.00  0.00     0.076 C 
BRANCH  14  16
HETATM   16  N1  UNL     1      24.010   7.505  51.468  1.00  0.00     0.111 N 
HETATM   17  H5  UNL     1      24.111   7.618  52.500  1.00  0.00     0.315 HD
HETATM   18  H6  UNL     1      23.388   8.213  51.030  1.00  0.00     0.315 HD
ENDBRANCH  14  16
ENDBRANCH  12  14
ENDBRANCH   1  12
BRANCH  10  19
HETATM   19  C9  UNL     1      25.575  -0.184  53.762  1.00  0.00     0.066 A 
HETATM   20  C10 UNL     1      24.785  -1.059  54.751  1.00  0.00     0.045 C 
HETATM   21  C11 UNL     1      26.606   0.487  54.569  1.00  0.00     0.005 A 
HETATM   22  C12 UNL     1      27.925   0.424  54.655  1.00  0.00    -0.002 A 
HETATM   23  C13 UNL     1      28.545  -0.528  53.746  1.00  0.00    -0.004 A 
HETATM   24  C14 UNL     1      27.722  -1.199  52.960  1.00  0.00    -0.024 A 
HETATM   25  C15 UNL     1      26.259  -1.162  52.830  1.00  0.00     0.063 A 
ENDBRANCH  10  19
TORSDOF 4
ENDMDL
MODEL 2
REMARK VINA RESULT:      -7.2      2.464      4.139
REMARK  4 active torsions:
REMARK  status: ('A' for Active; 'I' for Inactive)
REMARK    1  A    between atoms: C2_2  and  N1_3 
REMARK    2  A    between atoms: C2_2  and  N2_4 
REMARK    3  A    between atoms: N2_4  and  C3_5 
REMARK    4  A    between atoms: N5_14  and  C9_15 
ROOT
HETATM    1  C3  UNL     1      21.609   0.941  52.867  1.00  0.00     0.286 C 
HETATM    2  P1  UNL     1      21.818  -0.253  54.273  1.00  0.00    -0.010 P 
HETATM    3  C4  UNL     1      23.186  -1.185  54.120  1.00  0.00    -0.015 C 
HETATM    4  C5  UNL     1      24.099  -0.542  53.405  1.00  0.00     0.015 C 
HETATM    5  C6  UNL     1      24.051   0.905  53.348  1.00  0.00     0.154 C 
HETATM    6  C7  UNL     1      22.987   1.305  52.341  1.00  0.00     0.175 C 
HETATM    7  N3  UNL     1      23.059   2.712  51.990  1.00  0.00    -0.273 NA
HETATM    8  C8  UNL     1      24.008   3.502  52.430  1.00  0.00     0.217 C 
HETATM    9  N4  UNL     1      25.027   2.961  53.299  1.00  0.00    -0.295 N 
HETATM   10  N5  UNL     1      25.212   1.606  53.081  1.00  0.00    -0.303 N 
HETATM   11  H13 UNL     1      25.420   3.728  53.927  1.00  0.00     0.187 HD
ENDROOT
BRANCH   1  12
HETATM   12  N2  UNL     1      20.869   0.240  51.854  1.00  0.00     0.128 N 
HETATM   13  H7  UNL     1      20.683  -0.746  52.115  1.00  0.00     0.319 HD
BRANCH  12  14
HETATM   14  C2  UNL     1      19.699   0.968  51.442  1.00  0.00     0.445 C 
HETATM   15  C1  UNL     1      18.411   0.252  51.849  1.00  0.00     0.076 C 
BRANCH  14  16
HETATM   16  N1  UNL     1      19.617   2.298  52.005  1.00  0.00     0.111 N 
HETATM   17  H5  UNL     1      19.914   3.034  51.329  1.00  0.00     0.315 HD
HETATM   18  H6  UNL     1      20.080   2.372  52.932  1.00  0.00     0.315 HD
ENDBRANCH  14  16
ENDBRANCH  12  14
ENDBRANCH   1  12
BRANCH  10  19
HETATM   19  C9  UNL     1      26.483   1.093  52.984  1.00  0.00     0.066 A 
HETATM   20  C10 UNL     1      26.557   0.199  51.733  1.00  0.00     0.045 C 
HETATM   21  C11 UNL     1      26.992   0.265  54.088  1.00  0.00     0.005 A 
HETATM   22  C12 UNL     1      28.066   0.282  54.862  1.00  0.00    -0.002 A 
HETATM   23  C13 UNL     1      28.993   1.370  54.585  1.00  0.00    -0.004 A 
HETATM   24  C14 UNL     1      28.647   2.191  53.610  1.00  0.00    -0.024 A 
HETATM   25  C15 UNL     1      27.471   2.211  52.729  1.00  0.00     0.063 A 
ENDBRANCH  10  19
TORSDOF 4
ENDMDL
MODEL 3
REMARK VINA RESULT:      -7.2      2.699      6.019
REMARK  4 active torsions:
REMARK  status: ('A' for Active; 'I' for Inactive)
REMARK    1  A    between atoms: C2_2  and  N1_3 
REMARK    2  A    between atoms: C2_2  and  N2_4 
REMARK    3  A    between atoms: N2_4  and  C3_5 
REMARK    4  A    between atoms: N5_14  and  C9_15 
ROOT
HETATM    1  C3  UNL     1      27.264   0.593  53.101  1.00  0.00     0.286 C 
HETATM    2  P1  UNL     1      26.276  -0.978  53.076  1.00  0.00    -0.010 P 
HETATM    3  C4  UNL     1      24.656  -0.715  53.341  1.00  0.00    -0.015 C 
HETATM    4  C5  UNL     1      24.322   0.508  52.954  1.00  0.00     0.015 C 
HETATM    5  C6  UNL     1      25.133   1.171  51.954  1.00  0.00     0.154 C 
HETATM    6  C7  UNL     1      26.368   1.729  52.637  1.00  0.00     0.175 C 
HETATM    7  N3  UNL     1      27.096   2.659  51.792  1.00  0.00    -0.273 NA
HETATM    8  C8  UNL     1      26.659   3.034  50.614  1.00  0.00     0.217 C 
HETATM    9  N4  UNL     1      25.404   2.506  50.129  1.00  0.00    -0.295 N 
HETATM   10  N5  UNL     1      24.562   2.160  51.174  1.00  0.00    -0.303 N 
HETATM   11  H13 UNL     1      25.397   2.497  49.064  1.00  0.00     0.187 HD
ENDROOT
BRANCH   1  12
HETATM   12  N2  UNL     1      27.648   0.802  54.469  1.00  0.00     0.128 N 
HETATM   13  H7  UNL     1      27.267   0.073  55.100  1.00  0.00     0.319 HD
BRANCH  12  14
HETATM   14  C2  UNL     1      29.065   1.010  54.606  1.00  0.00     0.445 C 
HETATM   15  C1  UNL     1      29.867   0.067  53.709  1.00  0.00     0.076 C 
BRANCH  14  16
HETATM   16  N1  UNL     1      29.488   2.350  54.264  1.00  0.00     0.111 N 
HETATM   17  H5  UNL     1      28.895   3.081  54.713  1.00  0.00     0.315 HD
HETATM   18  H6  UNL     1      29.611   2.485  53.240  1.00  0.00     0.315 HD
ENDBRANCH  14  16
ENDBRANCH  12  14
ENDBRANCH   1  12
BRANCH  10  19
HETATM   19  C9  UNL     1      23.238   2.522  51.138  1.00  0.00     0.066 A 
HETATM   20  C10 UNL     1      22.983   3.563  52.242  1.00  0.00     0.045 C 
HETATM   21  C11 UNL     1      22.219   1.480  51.338  1.00  0.00     0.005 A 
HETATM   22  C12 UNL     1      21.156   1.059  50.672  1.00  0.00    -0.002 A 
HETATM   23  C13 UNL     1      20.898   1.777  49.432  1.00  0.00    -0.004 A 
HETATM   24  C14 UNL     1      21.748   2.743  49.135  1.00  0.00    -0.024 A 
HETATM   25  C15 UNL     1      22.936   3.242  49.840  1.00  0.00     0.063 A 
ENDBRANCH  10  19
TORSDOF 4
ENDMDL
MODEL 4
REMARK VINA RESULT:      -6.9      2.834      4.820
REMARK  4 active torsions:
REMARK  status: ('A' for Active; 'I' for Inactive)
REMARK    1  A    between atoms: C2_2  and  N1_3 
REMARK    2  A    between atoms: C2_2  and  N2_4 
REMARK    3  A    between atoms: N2_4  and  C3_5 
REMARK    4  A    between atoms: N5_14  and  C9_15 
ROOT
HETATM    1  C3  UNL     1      25.521   3.095  50.271  1.00  0.00     0.286 C 
HETATM    2  P1  UNL     1      26.191   2.145  51.718  1.00  0.00    -0.010 P 
HETATM    3  C4  UNL     1      25.204   2.238  53.053  1.00  0.00    -0.015 C 
HETATM    4  C5  UNL     1      23.951   2.452  52.680  1.00  0.00     0.015 C 
HETATM    5  C6  UNL     1      23.538   2.050  51.351  1.00  0.00     0.154 C 
HETATM    6  C7  UNL     1      24.005   3.109  50.369  1.00  0.00     0.175 C 
HETATM    7  N3  UNL     1      23.395   2.957  49.059  1.00  0.00    -0.273 NA
HETATM    8  C8  UNL     1      22.471   2.061  48.810  1.00  0.00     0.217 C 
HETATM    9  N4  UNL     1      22.037   1.183  49.874  1.00  0.00    -0.295 N 
HETATM   10  N5  UNL     1      22.204   1.773  51.116  1.00  0.00    -0.303 N 
HETATM   11  H13 UNL     1      21.680   0.265  49.469  1.00  0.00     0.187 HD
ENDROOT
BRANCH   1  12
HETATM   12  N2  UNL     1      26.031   4.433  50.401  1.00  0.00     0.128 N 
HETATM   13  H7  UNL     1      26.729   4.515  51.163  1.00  0.00     0.319 HD
BRANCH  12  14
HETATM   14  C2  UNL     1      26.475   4.964  49.141  1.00  0.00     0.445 C 
HETATM   15  C1  UNL     1      25.751   6.262  48.783  1.00  0.00     0.076 C 
BRANCH  14  16
HETATM   16  N1  UNL     1      27.889   5.268  49.108  1.00  0.00     0.111 N 
HETATM   17  H5  UNL     1      28.214   5.741  49.979  1.00  0.00     0.315 HD
HETATM   18  H6  UNL     1      28.176   5.757  48.236  1.00  0.00     0.315 HD
ENDBRANCH  14  16
ENDBRANCH  12  14
ENDBRANCH   1  12
BRANCH  10  19
HETATM   19  C9  UNL     1      21.198   1.704  52.049  1.00  0.00     0.066 A 
HETATM   20  C10 UNL     1      20.760   3.136  52.404  1.00  0.00     0.045 C 
HETATM   21  C11 UNL     1      21.477   1.049  53.336  1.00  0.00     0.005 A 
HETATM   22  C12 UNL     1      20.922   0.074  54.038  1.00  0.00    -0.002 A 
HETATM   23  C13 UNL     1      19.746  -0.521  53.420  1.00  0.00    -0.004 A 
HETATM   24  C14 UNL     1      19.389  -0.018  52.251  1.00  0.00    -0.024 A 
HETATM   25  C15 UNL     1      19.973   1.058  51.439  1.00  0.00     0.063 A 
ENDBRANCH  10  19
TORSDOF 4
ENDMDL
MODEL 5
REMARK VINA RESULT:      -6.9      2.800      6.118
REMARK  4 active torsions:
REMARK  status: ('A' for Active; 'I' for Inactive)
REMARK    1  A    between atoms: C2_2  and  N1_3 
REMARK    2  A    between atoms: C2_2  and  N2_4 
REMARK    3  A    between atoms: N2_4  and  C3_5 
REMARK    4  A    between atoms: N5_14  and  C9_15 
ROOT
HETATM    1  C3  UNL     1      25.081   0.606  53.588  1.00  0.00     0.286 C 
HETATM    2  P1  UNL     1      25.085   2.397  53.098  1.00  0.00    -0.010 P 
HETATM    3  C4  UNL     1      24.098   2.703  51.796  1.00  0.00    -0.015 C 
HETATM    4  C5  UNL     1      23.123   1.807  51.742  1.00  0.00     0.015 C 
HETATM    5  C6  UNL     1      22.730   1.125  52.958  1.00  0.00     0.154 C 
HETATM    6  C7  UNL     1      23.730   0.015  53.224  1.00  0.00     0.175 C 
HETATM    7  N3  UNL     1      23.271  -0.911  54.244  1.00  0.00    -0.273 NA
HETATM    8  C8  UNL     1      22.081  -0.831  54.786  1.00  0.00     0.217 C 
HETATM    9  N4  UNL     1      21.182   0.217  54.359  1.00  0.00    -0.295 N 
HETATM   10  N5  UNL     1      21.449   0.614  53.059  1.00  0.00    -0.303 N 
HETATM   11  H13 UNL     1      20.501   0.460  55.142  1.00  0.00     0.187 HD
ENDROOT
BRANCH   1  12
HETATM   12  N2  UNL     1      26.115  -0.022  52.813  1.00  0.00     0.128 N 
HETATM   13  H7  UNL     1      26.442   0.578  52.034  1.00  0.00     0.319 HD
BRANCH  12  14
HETATM   14  C2  UNL     1      27.173  -0.533  53.642  1.00  0.00     0.445 C 
HETATM   15  C1  UNL     1      28.505   0.161  53.356  1.00  0.00     0.076 C 
BRANCH  14  16
HETATM   16  N1  UNL     1      26.929  -0.371  55.058  1.00  0.00     0.111 N 
HETATM   17  H5  UNL     1      25.983   0.021  55.255  1.00  0.00     0.315 HD
HETATM   18  H6  UNL     1      27.698   0.131  55.545  1.00  0.00     0.315 HD
ENDBRANCH  14  16
ENDBRANCH  12  14
ENDBRANCH   1  12
BRANCH  10  19
HETATM   19  C9  UNL     1      20.419   0.787  52.167  1.00  0.00     0.066 A 
HETATM   20  C10 UNL     1      19.251  -0.125  52.584  1.00  0.00     0.045 C 
HETATM   21  C11 UNL     1      20.661   0.490  50.747  1.00  0.00     0.005 A 
HETATM   22  C12 UNL     1      20.515   1.148  49.608  1.00  0.00    -0.002 A 
HETATM   23  C13 UNL     1      19.989   2.497  49.753  1.00  0.00    -0.004 A 
HETATM   24  C14 UNL     1      19.730   2.888  50.988  1.00  0.00    -0.024 A 
HETATM   25  C15 UNL     1      19.876   2.196  52.275  1.00  0.00     0.063 A 
ENDBRANCH  10  19
TORSDOF 4
ENDMDL
MODEL 6
REMARK VINA RESULT:      -6.8      3.226      5.164
REMARK  4 active torsions:
REMARK  status: ('A' for Active; 'I' for Inactive)
REMARK    1  A    between atoms: C2_2  and  N1_3 
REMARK    2  A    between atoms: C2_2  and  N2_4 
REMARK    3  A    between atoms: N2_4  and  C3_5 
REMARK    4  A    between atoms: N5_14  and  C9_15 
ROOT
HETATM    1  C3  UNL     1      25.639   7.539  49.698  1.00  0.00     0.286 C 
HETATM    2  P1  UNL     1      26.318   6.159  48.658  1.00  0.00    -0.010 P 
HETATM    3  C4  UNL     1      26.330   4.703  49.461  1.00  0.00    -0.015 C 
HETATM    4  C5  UNL     1      25.383   4.685  50.388  1.00  0.00     0.015 C 
HETATM    5  C6  UNL     1      24.235   5.555  50.232  1.00  0.00     0.154 C 
HETATM    6  C7  UNL     1      24.634   6.951  50.674  1.00  0.00     0.175 C 
HETATM    7  N3  UNL     1      23.488   7.829  50.838  1.00  0.00    -0.273 NA
HETATM    8  C8  UNL     1      22.253   7.409  50.710  1.00  0.00     0.217 C 
HETATM    9  N4  UNL     1      22.012   6.020  50.394  1.00  0.00    -0.295 N 
HETATM   10  N5  UNL     1      23.043   5.212  50.843  1.00  0.00    -0.303 N 
HETATM   11  H13 UNL     1      21.085   5.916  49.879  1.00  0.00     0.187 HD
ENDROOT
BRANCH   1  12
HETATM   12  N2  UNL     1      26.757   8.085  50.417  1.00  0.00     0.128 N 
HETATM   13  H7  UNL     1      27.294   7.356  50.921  1.00  0.00     0.319 HD
BRANCH  12  14
HETATM   14  C2  UNL     1      27.565   8.938  49.588  1.00  0.00     0.445 C 
HETATM   15  C1  UNL     1      26.750  10.078  48.978  1.00  0.00     0.076 C 
BRANCH  14  16
HETATM   16  N1  UNL     1      28.663   9.560  50.296  1.00  0.00     0.111 N 
HETATM   17  H5  UNL     1      28.641   9.358  51.318  1.00  0.00     0.315 HD
HETATM   18  H6  UNL     1      28.764  10.571  50.073  1.00  0.00     0.315 HD
ENDBRANCH  14  16
ENDBRANCH  12  14
ENDBRANCH   1  12
BRANCH  10  19
HETATM   19  C9  UNL     1      22.760   4.039  51.501  1.00  0.00     0.066 A 
HETATM   20  C10 UNL     1      21.314   4.106  52.023  1.00  0.00     0.045 C 
HETATM   21  C11 UNL     1      23.581   3.671  52.665  1.00  0.00     0.005 A 
HETATM   22  C12 UNL     1      24.286   2.611  53.024  1.00  0.00    -0.002 A 
HETATM   23  C13 UNL     1      24.273   1.521  52.059  1.00  0.00    -0.004 A 
HETATM   24  C14 UNL     1      23.568   1.729  50.961  1.00  0.00    -0.024 A 
HETATM   25  C15 UNL     1      22.774   2.884  50.522  1.00  0.00     0.063 A 
ENDBRANCH  10  19
TORSDOF 4
ENDMDL
MODEL 7
REMARK VINA RESULT:      -6.7      8.449     10.467
REMARK  4 active torsions:
REMARK  status: ('A' for Active; 'I' for Inactive)
REMARK    1  A    between atoms: C2_2  and  N1_3 
REMARK    2  A    between atoms: C2_2  and  N2_4 
REMARK    3  A    between atoms: N2_4  and  C3_5 
REMARK    4  A    between atoms: N5_14  and  C9_15 
ROOT
HETATM    1  C3  UNL     1      31.256   8.439  47.701  1.00  0.00     0.286 C 
HETATM    2  P1  UNL     1      31.741   7.813  49.380  1.00  0.00    -0.010 P 
HETATM    3  C4  UNL     1      31.822   6.154  49.442  1.00  0.00    -0.015 C 
HETATM    4  C5  UNL     1      32.090   5.664  48.240  1.00  0.00     0.015 C 
HETATM    5  C6  UNL     1      32.767   6.508  47.276  1.00  0.00     0.154 C 
HETATM    6  C7  UNL     1      31.741   7.443  46.662  1.00  0.00     0.175 C 
HETATM    7  N3  UNL     1      32.248   8.123  45.482  1.00  0.00    -0.273 NA
HETATM    8  C8  UNL     1      33.426   7.863  44.970  1.00  0.00     0.217 C 
HETATM    9  N4  UNL     1      34.261   6.863  45.595  1.00  0.00    -0.295 N 
HETATM   10  N5  UNL     1      33.503   5.918  46.265  1.00  0.00    -0.303 N 
HETATM   11  H13 UNL     1      35.289   7.071  45.405  1.00  0.00     0.187 HD
ENDROOT
BRANCH   1  12
HETATM   12  N2  UNL     1      29.820   8.492  47.694  1.00  0.00     0.128 N 
HETATM   13  H7  UNL     1      29.398   7.649  47.264  1.00  0.00     0.319 HD
BRANCH  12  14
HETATM   14  C2  UNL     1      29.287   8.818  48.989  1.00  0.00     0.445 C 
HETATM   15  C1  UNL     1      28.782  10.259  49.051  1.00  0.00     0.076 C 
BRANCH  14  16
HETATM   16  N1  UNL     1      28.173   7.983  49.383  1.00  0.00     0.111 N 
HETATM   17  H5  UNL     1      28.030   7.180  48.733  1.00  0.00     0.315 HD
HETATM   18  H6  UNL     1      27.308   8.527  49.570  1.00  0.00     0.315 HD
ENDBRANCH  14  16
ENDBRANCH  12  14
ENDBRANCH   1  12
BRANCH  10  19
HETATM   19  C9  UNL     1      33.790   4.581  46.126  1.00  0.00     0.066 A 
HETATM   20  C10 UNL     1      34.621   4.390  44.845  1.00  0.00     0.045 C 
HETATM   21  C11 UNL     1      32.674   3.630  46.017  1.00  0.00     0.005 A 
HETATM   22  C12 UNL     1      32.310   2.527  46.651  1.00  0.00    -0.002 A 
HETATM   23  C13 UNL     1      33.205   2.124  47.725  1.00  0.00    -0.004 A 
HETATM   24  C14 UNL     1      34.253   2.902  47.928  1.00  0.00    -0.024 A 
HETATM   25  C15 UNL     1      34.695   4.130  47.253  1.00  0.00     0.063 A 
ENDBRANCH  10  19
TORSDOF 4
ENDMDL
MODEL 8
REMARK VINA RESULT:      -6.7      2.204      5.782
REMARK  4 active torsions:
REMARK  status: ('A' for Active; 'I' for Inactive)
REMARK    1  A    between atoms: C2_2  and  N1_3 
REMARK    2  A    between atoms: C2_2  and  N2_4 
REMARK    3  A    between atoms: N2_4  and  C3_5 
REMARK    4  A    between atoms: N5_14  and  C9_15 
ROOT
HETATM    1  C3  UNL     1      24.382   1.237  53.486  1.00  0.00     0.286 C 
HETATM    2  P1  UNL     1      26.226   1.035  53.426  1.00  0.00    -0.010 P 
HETATM    3  C4  UNL     1      26.825   1.108  51.877  1.00  0.00    -0.015 C 
HETATM    4  C5  UNL     1      26.022   1.832  51.111  1.00  0.00     0.015 C 
HETATM    5  C6  UNL     1      25.164   2.820  51.733  1.00  0.00     0.154 C 
HETATM    6  C7  UNL     1      23.958   2.104  52.312  1.00  0.00     0.175 C 
HETATM    7  N3  UNL     1      22.900   3.023  52.695  1.00  0.00    -0.273 NA
HETATM    8  C8  UNL     1      22.965   4.311  52.462  1.00  0.00     0.217 C 
HETATM    9  N4  UNL     1      24.131   4.848  51.798  1.00  0.00    -0.295 N 
HETATM   10  N5  UNL     1      24.732   3.901  50.986  1.00  0.00    -0.303 N 
HETATM   11  H13 UNL     1      24.278   5.865  52.080  1.00  0.00     0.187 HD
ENDROOT
BRANCH   1  12
HETATM   12  N2  UNL     1      23.831  -0.082  53.343  1.00  0.00     0.128 N 
HETATM   13  H7  UNL     1      24.539  -0.823  53.495  1.00  0.00     0.319 HD
BRANCH  12  14
HETATM   14  C2  UNL     1      22.631  -0.252  54.117  1.00  0.00     0.445 C 
HETATM   15  C1  UNL     1      21.430  -0.597  53.238  1.00  0.00     0.076 C 
BRANCH  14  16
HETATM   16  N1  UNL     1      22.725  -1.304  55.106  1.00  0.00     0.111 N 
HETATM   17  H5  UNL     1      23.614  -1.260  55.649  1.00  0.00     0.315 HD
HETATM   18  H6  UNL     1      22.522  -2.245  54.713  1.00  0.00     0.315 HD
ENDBRANCH  14  16
ENDBRANCH  12  14
ENDBRANCH   1  12
BRANCH  10  19
HETATM   19  C9  UNL     1      25.131   4.239  49.715  1.00  0.00     0.066 A 
HETATM   20  C10 UNL     1      24.226   3.508  48.707  1.00  0.00     0.045 C 
HETATM   21  C11 UNL     1      26.508   3.927  49.305  1.00  0.00     0.005 A 
HETATM   22  C12 UNL     1      27.519   4.613  48.796  1.00  0.00    -0.002 A 
HETATM   23  C13 UNL     1      27.241   6.025  48.575  1.00  0.00    -0.004 A 
HETATM   24  C14 UNL     1      26.029   6.434  48.908  1.00  0.00    -0.024 A 
HETATM   25  C15 UNL     1      24.881   5.712  49.473  1.00  0.00     0.063 A 
ENDBRANCH  10  19
TORSDOF 4
ENDMDL
MODEL 9
REMARK VINA RESULT:      -6.6      2.304      4.208
REMARK  4 active torsions:
REMARK  status: ('A' for Active; 'I' for Inactive)
REMARK    1  A    between atoms: C2_2  and  N1_3 
REMARK    2  A    between atoms: C2_2  and  N2_4 
REMARK    3  A    between atoms: N2_4  and  C3_5 
REMARK    4  A    between atoms: N5_14  and  C9_15 
ROOT
HETATM    1  C3  UNL     1      24.691   4.561  50.810  1.00  0.00     0.286 C 
HETATM    2  P1  UNL     1      23.309   5.462  51.659  1.00  0.00    -0.010 P 
HETATM    3  C4  UNL     1      21.873   4.627  51.601  1.00  0.00    -0.015 C 
HETATM    4  C5  UNL     1      22.105   3.327  51.498  1.00  0.00     0.015 C 
HETATM    5  C6  UNL     1      23.369   2.802  51.972  1.00  0.00     0.154 C 
HETATM    6  C7  UNL     1      24.422   3.069  50.911  1.00  0.00     0.175 C 
HETATM    7  N3  UNL     1      25.649   2.330  51.151  1.00  0.00    -0.273 NA
HETATM    8  C8  UNL     1      25.771   1.461  52.124  1.00  0.00     0.217 C 
HETATM    9  N4  UNL     1      24.646   1.220  52.998  1.00  0.00    -0.295 N 
HETATM   10  N5  UNL     1      23.444   1.476  52.359  1.00  0.00    -0.303 N 
HETATM   11  H13 UNL     1      24.986   0.895  53.954  1.00  0.00     0.187 HD
ENDROOT
BRANCH   1  12
HETATM   12  N2  UNL     1      24.650   4.972  49.434  1.00  0.00     0.128 N 
HETATM   13  H7  UNL     1      23.841   5.588  49.231  1.00  0.00     0.319 HD
BRANCH  12  14
HETATM   14  C2  UNL     1      25.912   5.501  48.992  1.00  0.00     0.445 C 
HETATM   15  C1  UNL     1      26.145   6.922  49.506  1.00  0.00     0.076 C 
BRANCH  14  16
HETATM   16  N1  UNL     1      27.051   4.723  49.428  1.00  0.00     0.111 N 
HETATM   17  H5  UNL     1      26.786   3.751  49.699  1.00  0.00     0.315 HD
HETATM   18  H6  UNL     1      27.624   5.213  50.143  1.00  0.00     0.315 HD
ENDBRANCH  14  16
ENDBRANCH  12  14
ENDBRANCH   1  12
BRANCH  10  19
HETATM   19  C9  UNL     1      22.401   0.590  52.476  1.00  0.00     0.066 A 
HETATM   20  C10 UNL     1      21.804   0.349  51.078  1.00  0.00     0.045 C 
HETATM   21  C11 UNL     1      21.262   0.954  53.332  1.00  0.00     0.005 A 
HETATM   22  C12 UNL     1      20.627   0.391  54.347  1.00  0.00    -0.002 A 
HETATM   23  C13 UNL     1      21.154  -0.906  54.744  1.00  0.00    -0.004 A 
HETATM   24  C14 UNL     1      22.187  -1.349  54.049  1.00  0.00    -0.024 A 
HETATM   25  C15 UNL     1      22.921  -0.760  52.920  1.00  0.00     0.063 A 
ENDBRANCH  10  19
TORSDOF 4
ENDMDL
