MODEL 1
REMARK VINA RESULT:      -7.6      0.000      0.000
REMARK  9 active torsions:
REMARK  status: ('A' for Active; 'I' for Inactive)
REMARK    1  A    between atoms: C7_7  and  N1_8 
REMARK    2  A    between atoms: N1_8  and  C8_9 
REMARK    3  A    between atoms: C12_14  and  C13_15 
REMARK    4  A    between atoms: C13_15  and  C14_16 
REMARK    5  A    between atoms: C14_16  and  O1_17 
REMARK    6  A    between atoms: C16_19  and  O2_20 
REMARK    7  A    between atoms: O2_20  and  C17_21 
REMARK    8  A    between atoms: C17_21  and  C18_22 
REMARK    9  A    between atoms: C18_22  and  O3_23 
ROOT
HETATM    1  C1  UNL     1      28.284   5.164  48.331  1.00  0.00     0.018 C 
HETATM    2  C2  UNL     1      27.201   5.582  48.665  1.00  0.00    -0.078 C 
HETATM    3  C3  UNL     1      25.911   6.107  49.060  1.00  0.00     0.019 A 
HETATM    4  C4  UNL     1      25.147   6.921  48.233  1.00  0.00     0.021 A 
HETATM    5  C5  UNL     1      23.918   7.412  48.690  1.00  0.00     0.004 A 
HETATM    6  C6  UNL     1      23.426   7.115  49.947  1.00  0.00     0.029 A 
HETATM    7  C7  UNL     1      24.237   6.303  50.709  1.00  0.00     0.034 A 
HETATM    8  C22 UNL     1      25.454   5.777  50.342  1.00  0.00     0.050 A 
ENDROOT
BRANCH   7   9
HETATM    9  N1  UNL     1      23.846   5.929  52.050  1.00  0.00    -0.353 N 
HETATM   10  H5  UNL     1      24.266   6.610  52.752  1.00  0.00     0.166 HD
BRANCH   9  11
HETATM   11  C8  UNL     1      23.023   4.777  52.098  1.00  0.00     0.077 A 
HETATM   12  C9  UNL     1      21.763   4.760  51.771  1.00  0.00     0.116 A 
HETATM   13  N2  UNL     1      21.169   3.648  51.918  1.00  0.00    -0.243 NA
HETATM   14  C10 UNL     1      22.142   2.686  52.375  1.00  0.00     0.070 A 
HETATM   15  C11 UNL     1      22.118   1.344  52.687  1.00  0.00     0.042 A 
HETATM   16  C21 UNL     1      23.305   3.407  52.486  1.00  0.00     0.025 A 
HETATM   17  C12 UNL     1      23.322   0.760  53.113  1.00  0.00    -0.021 A 
HETATM   18  C16 UNL     1      24.537   1.458  53.241  1.00  0.00     0.076 A 
HETATM   19  C20 UNL     1      24.451   2.789  52.906  1.00  0.00     0.053 A 
BRANCH  17  20
HETATM   20  C13 UNL     1      23.206  -0.718  53.440  1.00  0.00     0.067 C 
BRANCH  20  21
HETATM   21  C14 UNL     1      22.842  -0.954  54.864  1.00  0.00     0.171 C 
BRANCH  21  22
HETATM   22  O1  UNL     1      21.879  -1.931  54.970  1.00  0.00    -0.396 OA
HETATM   23  C15 UNL     1      20.746  -1.675  54.244  1.00  0.00     0.201 C 
ENDBRANCH  21  22
ENDBRANCH  20  21
ENDBRANCH  17  20
BRANCH  18  24
HETATM   24  O2  UNL     1      25.467   0.648  53.651  1.00  0.00    -0.348 OA
BRANCH  24  25
HETATM   25  C17 UNL     1      26.435   0.517  54.567  1.00  0.00     0.201 C 
BRANCH  25  26
HETATM   26  C18 UNL     1      27.831   0.306  54.025  1.00  0.00     0.193 C 
BRANCH  26  27
HETATM   27  O3  UNL     1      28.190   1.223  53.073  1.00  0.00    -0.394 OA
HETATM   28  C19 UNL     1      28.603   2.443  53.573  1.00  0.00     0.201 C 
ENDBRANCH  26  27
ENDBRANCH  25  26
ENDBRANCH  24  25
ENDBRANCH  18  24
ENDBRANCH   9  11
ENDBRANCH   7   9
TORSDOF 9
ENDMDL
MODEL 2
REMARK VINA RESULT:      -7.3      2.760      5.561
REMARK  9 active torsions:
REMARK  status: ('A' for Active; 'I' for Inactive)
REMARK    1  A    between atoms: C7_7  and  N1_8 
REMARK    2  A    between atoms: N1_8  and  C8_9 
REMARK    3  A    between atoms: C12_14  and  C13_15 
REMARK    4  A    between atoms: C13_15  and  C14_16 
REMARK    5  A    between atoms: C14_16  and  O1_17 
REMARK    6  A    between atoms: C16_19  and  O2_20 
REMARK    7  A    between atoms: O2_20  and  C17_21 
REMARK    8  A    between atoms: C17_21  and  C18_22 
REMARK    9  A    between atoms: C18_22  and  O3_23 
ROOT
HETATM    1  C1  UNL     1      18.228   2.647  51.345  1.00  0.00     0.018 C 
HETATM    2  C2  UNL     1      19.231   2.642  50.672  1.00  0.00    -0.078 C 
HETATM    3  C3  UNL     1      20.435   2.611  49.869  1.00  0.00     0.019 A 
HETATM    4  C4  UNL     1      20.580   1.778  48.766  1.00  0.00     0.021 A 
HETATM    5  C5  UNL     1      21.782   1.783  48.048  1.00  0.00     0.004 A 
HETATM    6  C6  UNL     1      22.845   2.594  48.395  1.00  0.00     0.029 A 
HETATM    7  C7  UNL     1      22.629   3.393  49.498  1.00  0.00     0.034 A 
HETATM    8  C22 UNL     1      21.484   3.452  50.258  1.00  0.00     0.050 A 
ENDROOT
BRANCH   7   9
HETATM    9  N1  UNL     1      23.667   4.277  49.976  1.00  0.00    -0.353 N 
HETATM   10  H5  UNL     1      23.338   5.287  49.916  1.00  0.00     0.166 HD
BRANCH   9  11
HETATM   11  C8  UNL     1      24.839   3.598  50.393  1.00  0.00     0.077 A 
HETATM   12  C9  UNL     1      26.049   3.954  50.070  1.00  0.00     0.116 A 
HETATM   13  N2  UNL     1      26.979   3.203  50.496  1.00  0.00    -0.243 NA
HETATM   14  C10 UNL     1      26.374   2.163  51.293  1.00  0.00     0.070 A 
HETATM   15  C11 UNL     1      26.843   1.090  52.019  1.00  0.00     0.042 A 
HETATM   16  C21 UNL     1      25.028   2.420  51.221  1.00  0.00     0.025 A 
HETATM   17  C12 UNL     1      25.893   0.288  52.671  1.00  0.00    -0.021 A 
HETATM   18  C16 UNL     1      24.505   0.514  52.627  1.00  0.00     0.076 A 
HETATM   19  C20 UNL     1      24.143   1.608  51.876  1.00  0.00     0.053 A 
BRANCH  17  20
HETATM   20  C13 UNL     1      26.494  -0.873  53.442  1.00  0.00     0.067 C 
BRANCH  20  21
HETATM   21  C14 UNL     1      26.974  -1.959  52.545  1.00  0.00     0.171 C 
BRANCH  21  22
HETATM   22  O1  UNL     1      28.061  -2.603  53.089  1.00  0.00    -0.396 OA
HETATM   23  C15 UNL     1      29.122  -1.777  53.350  1.00  0.00     0.201 C 
ENDBRANCH  21  22
ENDBRANCH  20  21
ENDBRANCH  17  20
BRANCH  18  24
HETATM   24  O2  UNL     1      23.891  -0.391  53.330  1.00  0.00    -0.348 OA
BRANCH  24  25
HETATM   25  C17 UNL     1      22.756  -1.100  53.392  1.00  0.00     0.201 C 
BRANCH  25  26
HETATM   26  C18 UNL     1      22.010  -1.036  54.705  1.00  0.00     0.193 C 
BRANCH  26  27
HETATM   27  O3  UNL     1      21.292   0.120  54.868  1.00  0.00    -0.394 OA
HETATM   28  C19 UNL     1      20.465   0.439  53.809  1.00  0.00     0.201 C 
ENDBRANCH  26  27
ENDBRANCH  25  26
ENDBRANCH  24  25
ENDBRANCH  18  24
ENDBRANCH   9  11
ENDBRANCH   7   9
TORSDOF 9
ENDMDL
MODEL 3
REMARK VINA RESULT:      -7.0      2.802      5.999
REMARK  9 active torsions:
REMARK  status: ('A' for Active; 'I' for Inactive)
REMARK    1  A    between atoms: C7_7  and  N1_8 
REMARK    2  A    between atoms: N1_8  and  C8_9 
REMARK    3  A    between atoms: C12_14  and  C13_15 
REMARK    4  A    between atoms: C13_15  and  C14_16 
REMARK    5  A    between atoms: C14_16  and  O1_17 
REMARK    6  A    between atoms: C16_19  and  O2_20 
REMARK    7  A    between atoms: O2_20  and  C17_21 
REMARK    8  A    between atoms: C17_21  and  C18_22 
REMARK    9  A    between atoms: C18_22  and  O3_23 
ROOT
HETATM    1  C1  UNL     1      20.397   4.377  48.735  1.00  0.00     0.018 C 
HETATM    2  C2  UNL     1      20.130   3.429  49.434  1.00  0.00    -0.078 C 
HETATM    3  C3  UNL     1      19.786   2.296  50.268  1.00  0.00     0.019 A 
HETATM    4  C4  UNL     1      18.979   1.256  49.824  1.00  0.00     0.021 A 
HETATM    5  C5  UNL     1      18.667   0.203  50.693  1.00  0.00     0.004 A 
HETATM    6  C6  UNL     1      19.138   0.154  51.992  1.00  0.00     0.029 A 
HETATM    7  C7  UNL     1      19.932   1.218  52.361  1.00  0.00     0.034 A 
HETATM    8  C22 UNL     1      20.288   2.290  51.575  1.00  0.00     0.050 A 
ENDROOT
BRANCH   7   9
HETATM    9  N1  UNL     1      20.475   1.297  53.698  1.00  0.00    -0.353 N 
HETATM   10  H5  UNL     1      19.936   2.017  54.265  1.00  0.00     0.166 HD
BRANCH   9  11
HETATM   11  C8  UNL     1      21.567   0.421  53.916  1.00  0.00     0.077 A 
HETATM   12  C9  UNL     1      21.525  -0.628  54.687  1.00  0.00     0.116 A 
HETATM   13  N2  UNL     1      22.610  -1.275  54.801  1.00  0.00    -0.243 NA
HETATM   14  C10 UNL     1      23.591  -0.641  53.952  1.00  0.00     0.070 A 
HETATM   15  C11 UNL     1      24.911  -0.880  53.637  1.00  0.00     0.042 A 
HETATM   16  C21 UNL     1      22.924   0.424  53.401  1.00  0.00     0.025 A 
HETATM   17  C12 UNL     1      25.529   0.004  52.738  1.00  0.00    -0.021 A 
HETATM   18  C16 UNL     1      24.886   1.108  52.148  1.00  0.00     0.076 A 
HETATM   19  C20 UNL     1      23.573   1.256  52.529  1.00  0.00     0.053 A 
BRANCH  17  20
HETATM   20  C13 UNL     1      26.982  -0.327  52.451  1.00  0.00     0.067 C 
BRANCH  20  21
HETATM   21  C14 UNL     1      27.862  -0.075  53.625  1.00  0.00     0.171 C 
BRANCH  21  22
HETATM   22  O1  UNL     1      28.636  -1.177  53.904  1.00  0.00    -0.396 OA
HETATM   23  C15 UNL     1      29.973  -0.990  53.669  1.00  0.00     0.201 C 
ENDBRANCH  21  22
ENDBRANCH  20  21
ENDBRANCH  17  20
BRANCH  18  24
HETATM   24  O2  UNL     1      25.715   1.730  51.363  1.00  0.00    -0.348 OA
BRANCH  24  25
HETATM   25  C17 UNL     1      26.154   2.951  51.034  1.00  0.00     0.201 C 
BRANCH  25  26
HETATM   26  C18 UNL     1      25.887   3.387  49.611  1.00  0.00     0.193 C 
BRANCH  26  27
HETATM   27  O3  UNL     1      24.560   3.609  49.350  1.00  0.00    -0.394 OA
HETATM   28  C19 UNL     1      23.930   4.456  50.240  1.00  0.00     0.201 C 
ENDBRANCH  26  27
ENDBRANCH  25  26
ENDBRANCH  24  25
ENDBRANCH  18  24
ENDBRANCH   9  11
ENDBRANCH   7   9
TORSDOF 9
ENDMDL
MODEL 4
REMARK VINA RESULT:      -7.0      2.888      5.085
REMARK  9 active torsions:
REMARK  status: ('A' for Active; 'I' for Inactive)
REMARK    1  A    between atoms: C7_7  and  N1_8 
REMARK    2  A    between atoms: N1_8  and  C8_9 
REMARK    3  A    between atoms: C12_14  and  C13_15 
REMARK    4  A    between atoms: C13_15  and  C14_16 
REMARK    5  A    between atoms: C14_16  and  O1_17 
REMARK    6  A    between atoms: C16_19  and  O2_20 
REMARK    7  A    between atoms: O2_20  and  C17_21 
REMARK    8  A    between atoms: C17_21  and  C18_22 
REMARK    9  A    between atoms: C18_22  and  O3_23 
ROOT
HETATM    1  C1  UNL     1      21.907   6.682  44.994  1.00  0.00     0.018 C 
HETATM    2  C2  UNL     1      22.081   5.790  45.789  1.00  0.00    -0.078 C 
HETATM    3  C3  UNL     1      22.266   4.716  46.742  1.00  0.00     0.019 A 
HETATM    4  C4  UNL     1      21.859   3.411  46.490  1.00  0.00     0.021 A 
HETATM    5  C5  UNL     1      22.048   2.427  47.467  1.00  0.00     0.004 A 
HETATM    6  C6  UNL     1      22.632   2.702  48.689  1.00  0.00     0.029 A 
HETATM    7  C7  UNL     1      23.011   4.015  48.868  1.00  0.00     0.034 A 
HETATM    8  C22 UNL     1      22.864   5.043  47.965  1.00  0.00     0.050 A 
ENDROOT
BRANCH   7   9
HETATM    9  N1  UNL     1      23.619   4.439  50.108  1.00  0.00    -0.353 N 
HETATM   10  H5  UNL     1      23.067   5.248  50.524  1.00  0.00     0.166 HD
BRANCH   9  11
HETATM   11  C8  UNL     1      24.774   3.694  50.454  1.00  0.00     0.077 A 
HETATM   12  C9  UNL     1      25.981   3.984  50.059  1.00  0.00     0.116 A 
HETATM   13  N2  UNL     1      26.891   3.181  50.428  1.00  0.00    -0.243 NA
HETATM   14  C10 UNL     1      26.277   2.172  51.258  1.00  0.00     0.070 A 
HETATM   15  C11 UNL     1      26.729   1.071  51.954  1.00  0.00     0.042 A 
HETATM   16  C21 UNL     1      24.945   2.504  51.267  1.00  0.00     0.025 A 
HETATM   17  C12 UNL     1      25.776   0.321  52.661  1.00  0.00    -0.021 A 
HETATM   18  C16 UNL     1      24.402   0.624  52.700  1.00  0.00     0.076 A 
HETATM   19  C20 UNL     1      24.058   1.739  51.974  1.00  0.00     0.053 A 
BRANCH  17  20
HETATM   20  C13 UNL     1      26.355  -0.875  53.394  1.00  0.00     0.067 C 
BRANCH  20  21
HETATM   21  C14 UNL     1      27.754  -1.169  52.978  1.00  0.00     0.171 C 
BRANCH  21  22
HETATM   22  O1  UNL     1      28.616  -1.069  54.045  1.00  0.00    -0.396 OA
HETATM   23  C15 UNL     1      29.925  -0.887  53.686  1.00  0.00     0.201 C 
ENDBRANCH  21  22
ENDBRANCH  20  21
ENDBRANCH  17  20
BRANCH  18  24
HETATM   24  O2  UNL     1      23.781  -0.248  53.438  1.00  0.00    -0.348 OA
BRANCH  24  25
HETATM   25  C17 UNL     1      22.568  -0.754  53.693  1.00  0.00     0.201 C 
BRANCH  25  26
HETATM   26  C18 UNL     1      21.409   0.204  53.535  1.00  0.00     0.193 C 
BRANCH  26  27
HETATM   27  O3  UNL     1      20.860   0.193  52.279  1.00  0.00    -0.394 OA
HETATM   28  C19 UNL     1      20.121   1.316  51.963  1.00  0.00     0.201 C 
ENDBRANCH  26  27
ENDBRANCH  25  26
ENDBRANCH  24  25
ENDBRANCH  18  24
ENDBRANCH   9  11
ENDBRANCH   7   9
TORSDOF 9
ENDMDL
MODEL 5
REMARK VINA RESULT:      -6.9      4.189      8.552
REMARK  9 active torsions:
REMARK  status: ('A' for Active; 'I' for Inactive)
REMARK    1  A    between atoms: C7_7  and  N1_8 
REMARK    2  A    between atoms: N1_8  and  C8_9 
REMARK    3  A    between atoms: C12_14  and  C13_15 
REMARK    4  A    between atoms: C13_15  and  C14_16 
REMARK    5  A    between atoms: C14_16  and  O1_17 
REMARK    6  A    between atoms: C16_19  and  O2_20 
REMARK    7  A    between atoms: O2_20  and  C17_21 
REMARK    8  A    between atoms: C17_21  and  C18_22 
REMARK    9  A    between atoms: C18_22  and  O3_23 
ROOT
HETATM    1  C1  UNL     1      29.039   1.910  53.923  1.00  0.00     0.018 C 
HETATM    2  C2  UNL     1      27.968   2.078  53.391  1.00  0.00    -0.078 C 
HETATM    3  C3  UNL     1      26.677   2.257  52.759  1.00  0.00     0.019 A 
HETATM    4  C4  UNL     1      25.479   2.012  53.419  1.00  0.00     0.021 A 
HETATM    5  C5  UNL     1      24.267   2.183  52.739  1.00  0.00     0.004 A 
HETATM    6  C6  UNL     1      24.213   2.593  51.420  1.00  0.00     0.029 A 
HETATM    7  C7  UNL     1      25.438   2.817  50.832  1.00  0.00     0.034 A 
HETATM    8  C22 UNL     1      26.673   2.675  51.423  1.00  0.00     0.050 A 
ENDROOT
BRANCH   7   9
HETATM    9  N1  UNL     1      25.522   3.234  49.450  1.00  0.00    -0.353 N 
HETATM   10  H5  UNL     1      25.406   2.392  48.811  1.00  0.00     0.166 HD
BRANCH   9  11
HETATM   11  C8  UNL     1      25.737   4.625  49.293  1.00  0.00     0.077 A 
HETATM   12  C9  UNL     1      24.840   5.539  49.531  1.00  0.00     0.116 A 
HETATM   13  N2  UNL     1      25.191   6.734  49.293  1.00  0.00    -0.243 NA
HETATM   14  C10 UNL     1      26.567   6.710  48.859  1.00  0.00     0.070 A 
HETATM   15  C11 UNL     1      27.491   7.662  48.484  1.00  0.00     0.042 A 
HETATM   16  C21 UNL     1      26.900   5.379  48.861  1.00  0.00     0.025 A 
HETATM   17  C12 UNL     1      28.768   7.210  48.115  1.00  0.00    -0.021 A 
HETATM   18  C16 UNL     1      29.155   5.857  48.103  1.00  0.00     0.076 A 
HETATM   19  C20 UNL     1      28.160   4.992  48.493  1.00  0.00     0.053 A 
BRANCH  17  20
HETATM   20  C13 UNL     1      29.720   8.321  47.712  1.00  0.00     0.067 C 
BRANCH  20  21
HETATM   21  C14 UNL     1      30.347   8.982  48.889  1.00  0.00     0.171 C 
BRANCH  21  22
HETATM   22  O1  UNL     1      30.961  10.158  48.524  1.00  0.00    -0.396 OA
HETATM   23  C15 UNL     1      30.302  11.282  48.945  1.00  0.00     0.201 C 
ENDBRANCH  21  22
ENDBRANCH  20  21
ENDBRANCH  17  20
BRANCH  18  24
HETATM   24  O2  UNL     1      30.393   5.758  47.721  1.00  0.00    -0.348 OA
BRANCH  24  25
HETATM   25  C17 UNL     1      31.546   5.138  48.002  1.00  0.00     0.201 C 
BRANCH  25  26
HETATM   26  C18 UNL     1      31.889   3.955  47.126  1.00  0.00     0.193 C 
BRANCH  26  27
HETATM   27  O3  UNL     1      32.756   3.073  47.715  1.00  0.00    -0.394 OA
HETATM   28  C19 UNL     1      34.091   3.410  47.597  1.00  0.00     0.201 C 
ENDBRANCH  26  27
ENDBRANCH  25  26
ENDBRANCH  24  25
ENDBRANCH  18  24
ENDBRANCH   9  11
ENDBRANCH   7   9
TORSDOF 9
ENDMDL
MODEL 6
REMARK VINA RESULT:      -6.8      3.039      6.348
REMARK  9 active torsions:
REMARK  status: ('A' for Active; 'I' for Inactive)
REMARK    1  A    between atoms: C7_7  and  N1_8 
REMARK    2  A    between atoms: N1_8  and  C8_9 
REMARK    3  A    between atoms: C12_14  and  C13_15 
REMARK    4  A    between atoms: C13_15  and  C14_16 
REMARK    5  A    between atoms: C14_16  and  O1_17 
REMARK    6  A    between atoms: C16_19  and  O2_20 
REMARK    7  A    between atoms: O2_20  and  C17_21 
REMARK    8  A    between atoms: C17_21  and  C18_22 
REMARK    9  A    between atoms: C18_22  and  O3_23 
ROOT
HETATM    1  C1  UNL     1      29.759   2.097  54.635  1.00  0.00     0.018 C 
HETATM    2  C2  UNL     1      28.951   1.243  54.356  1.00  0.00    -0.078 C 
HETATM    3  C3  UNL     1      27.983   0.227  53.998  1.00  0.00     0.019 A 
HETATM    4  C4  UNL     1      28.225  -0.727  53.018  1.00  0.00     0.021 A 
HETATM    5  C5  UNL     1      27.234  -1.665  52.706  1.00  0.00     0.004 A 
HETATM    6  C6  UNL     1      26.008  -1.683  53.344  1.00  0.00     0.029 A 
HETATM    7  C7  UNL     1      25.840  -0.709  54.305  1.00  0.00     0.034 A 
HETATM    8  C22 UNL     1      26.756   0.249  54.673  1.00  0.00     0.050 A 
ENDROOT
BRANCH   7   9
HETATM    9  N1  UNL     1      24.597  -0.608  55.035  1.00  0.00    -0.353 N 
HETATM   10  H5  UNL     1      24.791  -0.618  56.081  1.00  0.00     0.166 HD
BRANCH   9  11
HETATM   11  C8  UNL     1      23.457  -0.526  54.199  1.00  0.00     0.077 A 
HETATM   12  C9  UNL     1      22.346  -1.175  54.405  1.00  0.00     0.116 A 
HETATM   13  N2  UNL     1      21.443  -1.016  53.528  1.00  0.00    -0.243 NA
HETATM   14  C10 UNL     1      21.936  -0.074  52.553  1.00  0.00     0.070 A 
HETATM   15  C11 UNL     1      21.430   0.503  51.408  1.00  0.00     0.042 A 
HETATM   16  C21 UNL     1      23.204   0.228  52.984  1.00  0.00     0.025 A 
HETATM   17  C12 UNL     1      22.261   1.401  50.718  1.00  0.00    -0.021 A 
HETATM   18  C16 UNL     1      23.565   1.741  51.122  1.00  0.00     0.076 A 
HETATM   19  C20 UNL     1      23.972   1.110  52.275  1.00  0.00     0.053 A 
BRANCH  17  20
HETATM   20  C13 UNL     1      21.630   1.985  49.468  1.00  0.00     0.067 C 
BRANCH  20  21
HETATM   21  C14 UNL     1      20.336   2.664  49.753  1.00  0.00     0.171 C 
BRANCH  21  22
HETATM   22  O1  UNL     1      20.543   3.949  50.200  1.00  0.00    -0.396 OA
HETATM   23  C15 UNL     1      21.359   4.694  49.391  1.00  0.00     0.201 C 
ENDBRANCH  21  22
ENDBRANCH  20  21
ENDBRANCH  17  20
BRANCH  18  24
HETATM   24  O2  UNL     1      24.075   2.594  50.285  1.00  0.00    -0.348 OA
BRANCH  24  25
HETATM   25  C17 UNL     1      24.923   3.628  50.205  1.00  0.00     0.201 C 
BRANCH  25  26
HETATM   26  C18 UNL     1      26.387   3.294  50.382  1.00  0.00     0.193 C 
BRANCH  26  27
HETATM   27  O3  UNL     1      27.168   3.694  49.329  1.00  0.00    -0.394 OA
HETATM   28  C19 UNL     1      27.001   5.013  48.956  1.00  0.00     0.201 C 
ENDBRANCH  26  27
ENDBRANCH  25  26
ENDBRANCH  24  25
ENDBRANCH  18  24
ENDBRANCH   9  11
ENDBRANCH   7   9
TORSDOF 9
ENDMDL
MODEL 7
REMARK VINA RESULT:      -6.8      0.977      2.178
REMARK  9 active torsions:
REMARK  status: ('A' for Active; 'I' for Inactive)
REMARK    1  A    between atoms: C7_7  and  N1_8 
REMARK    2  A    between atoms: N1_8  and  C8_9 
REMARK    3  A    between atoms: C12_14  and  C13_15 
REMARK    4  A    between atoms: C13_15  and  C14_16 
REMARK    5  A    between atoms: C14_16  and  O1_17 
REMARK    6  A    between atoms: C16_19  and  O2_20 
REMARK    7  A    between atoms: O2_20  and  C17_21 
REMARK    8  A    between atoms: C17_21  and  C18_22 
REMARK    9  A    between atoms: C18_22  and  O3_23 
ROOT
HETATM    1  C1  UNL     1      22.121  10.092  48.287  1.00  0.00     0.018 C 
HETATM    2  C2  UNL     1      22.851   9.206  48.661  1.00  0.00    -0.078 C 
HETATM    3  C3  UNL     1      23.719   8.129  49.091  1.00  0.00     0.019 A 
HETATM    4  C4  UNL     1      24.689   7.574  48.266  1.00  0.00     0.021 A 
HETATM    5  C5  UNL     1      25.478   6.518  48.739  1.00  0.00     0.004 A 
HETATM    6  C6  UNL     1      25.331   6.000  50.012  1.00  0.00     0.029 A 
HETATM    7  C7  UNL     1      24.351   6.601  50.773  1.00  0.00     0.034 A 
HETATM    8  C22 UNL     1      23.533   7.639  50.389  1.00  0.00     0.050 A 
ENDROOT
BRANCH   7   9
HETATM    9  N1  UNL     1      24.084   6.143  52.117  1.00  0.00    -0.353 N 
HETATM   10  H5  UNL     1      24.617   6.743  52.816  1.00  0.00     0.166 HD
BRANCH   9  11
HETATM   11  C8  UNL     1      23.204   5.035  52.171  1.00  0.00     0.077 A 
HETATM   12  C9  UNL     1      21.916   5.110  51.990  1.00  0.00     0.116 A 
HETATM   13  N2  UNL     1      21.276   4.022  52.119  1.00  0.00    -0.243 NA
HETATM   14  C10 UNL     1      22.233   2.977  52.390  1.00  0.00     0.070 A 
HETATM   15  C11 UNL     1      22.163   1.617  52.600  1.00  0.00     0.042 A 
HETATM   16  C21 UNL     1      23.443   3.625  52.421  1.00  0.00     0.025 A 
HETATM   17  C12 UNL     1      23.368   0.938  52.842  1.00  0.00    -0.021 A 
HETATM   18  C16 UNL     1      24.630   1.560  52.882  1.00  0.00     0.076 A 
HETATM   19  C20 UNL     1      24.589   2.916  52.661  1.00  0.00     0.053 A 
BRANCH  17  20
HETATM   20  C13 UNL     1      23.200  -0.553  53.068  1.00  0.00     0.067 C 
BRANCH  20  21
HETATM   21  C14 UNL     1      22.960  -0.884  54.499  1.00  0.00     0.171 C 
BRANCH  21  22
HETATM   22  O1  UNL     1      21.634  -0.719  54.827  1.00  0.00    -0.396 OA
HETATM   23  C15 UNL     1      20.807  -1.668  54.287  1.00  0.00     0.201 C 
ENDBRANCH  21  22
ENDBRANCH  20  21
ENDBRANCH  17  20
BRANCH  18  24
HETATM   24  O2  UNL     1      25.549   0.672  53.122  1.00  0.00    -0.348 OA
BRANCH  24  25
HETATM   25  C17 UNL     1      26.601   0.056  52.569  1.00  0.00     0.201 C 
BRANCH  25  26
HETATM   26  C18 UNL     1      27.949   0.393  53.164  1.00  0.00     0.193 C 
BRANCH  26  27
HETATM   27  O3  UNL     1      28.395   1.645  52.831  1.00  0.00    -0.394 OA
HETATM   28  C19 UNL     1      28.872   2.388  53.893  1.00  0.00     0.201 C 
ENDBRANCH  26  27
ENDBRANCH  25  26
ENDBRANCH  24  25
ENDBRANCH  18  24
ENDBRANCH   9  11
ENDBRANCH   7   9
TORSDOF 9
ENDMDL
MODEL 8
REMARK VINA RESULT:      -6.7      5.257      9.727
REMARK  9 active torsions:
REMARK  status: ('A' for Active; 'I' for Inactive)
REMARK    1  A    between atoms: C7_7  and  N1_8 
REMARK    2  A    between atoms: N1_8  and  C8_9 
REMARK    3  A    between atoms: C12_14  and  C13_15 
REMARK    4  A    between atoms: C13_15  and  C14_16 
REMARK    5  A    between atoms: C14_16  and  O1_17 
REMARK    6  A    between atoms: C16_19  and  O2_20 
REMARK    7  A    between atoms: O2_20  and  C17_21 
REMARK    8  A    between atoms: C17_21  and  C18_22 
REMARK    9  A    between atoms: C18_22  and  O3_23 
ROOT
HETATM    1  C1  UNL     1      31.893   0.322  46.653  1.00  0.00     0.018 C 
HETATM    2  C2  UNL     1      32.491   1.367  46.752  1.00  0.00    -0.078 C 
HETATM    3  C3  UNL     1      33.229   2.607  46.876  1.00  0.00     0.019 A 
HETATM    4  C4  UNL     1      34.359   2.885  46.119  1.00  0.00     0.021 A 
HETATM    5  C5  UNL     1      35.037   4.095  46.308  1.00  0.00     0.004 A 
HETATM    6  C6  UNL     1      34.622   5.038  47.229  1.00  0.00     0.029 A 
HETATM    7  C7  UNL     1      33.494   4.694  47.942  1.00  0.00     0.034 A 
HETATM    8  C22 UNL     1      32.768   3.531  47.821  1.00  0.00     0.050 A 
ENDROOT
BRANCH   7   9
HETATM    9  N1  UNL     1      32.964   5.585  48.948  1.00  0.00    -0.353 N 
HETATM   10  H5  UNL     1      33.357   5.328  49.903  1.00  0.00     0.166 HD
BRANCH   9  11
HETATM   11  C8  UNL     1      32.071   6.555  48.429  1.00  0.00     0.077 A 
HETATM   12  C9  UNL     1      32.437   7.714  47.961  1.00  0.00     0.116 A 
HETATM   13  N2  UNL     1      31.498   8.477  47.578  1.00  0.00    -0.243 NA
HETATM   14  C10 UNL     1      30.256   7.761  47.740  1.00  0.00     0.070 A 
HETATM   15  C11 UNL     1      28.929   8.037  47.490  1.00  0.00     0.042 A 
HETATM   16  C21 UNL     1      30.627   6.554  48.277  1.00  0.00     0.025 A 
HETATM   17  C12 UNL     1      27.993   7.038  47.804  1.00  0.00    -0.021 A 
HETATM   18  C16 UNL     1      28.327   5.787  48.354  1.00  0.00     0.076 A 
HETATM   19  C20 UNL     1      29.675   5.615  48.564  1.00  0.00     0.053 A 
BRANCH  17  20
HETATM   20  C13 UNL     1      26.557   7.425  47.502  1.00  0.00     0.067 C 
BRANCH  20  21
HETATM   21  C14 UNL     1      26.007   8.380  48.503  1.00  0.00     0.171 C 
BRANCH  21  22
HETATM   22  O1  UNL     1      25.654   9.569  47.908  1.00  0.00    -0.396 OA
HETATM   23  C15 UNL     1      26.226  10.670  48.486  1.00  0.00     0.201 C 
ENDBRANCH  21  22
ENDBRANCH  20  21
ENDBRANCH  17  20
BRANCH  18  24
HETATM   24  O2  UNL     1      27.249   5.082  48.528  1.00  0.00    -0.348 OA
BRANCH  24  25
HETATM   25  C17 UNL     1      26.757   4.044  49.216  1.00  0.00     0.201 C 
BRANCH  25  26
HETATM   26  C18 UNL     1      25.285   4.115  49.553  1.00  0.00     0.193 C 
BRANCH  26  27
HETATM   27  O3  UNL     1      24.992   5.041  50.519  1.00  0.00    -0.394 OA
HETATM   28  C19 UNL     1      23.730   4.921  51.069  1.00  0.00     0.201 C 
ENDBRANCH  26  27
ENDBRANCH  25  26
ENDBRANCH  24  25
ENDBRANCH  18  24
ENDBRANCH   9  11
ENDBRANCH   7   9
TORSDOF 9
ENDMDL
MODEL 9
REMARK VINA RESULT:      -6.7      3.807      8.372
REMARK  9 active torsions:
REMARK  status: ('A' for Active; 'I' for Inactive)
REMARK    1  A    between atoms: C7_7  and  N1_8 
REMARK    2  A    between atoms: N1_8  and  C8_9 
REMARK    3  A    between atoms: C12_14  and  C13_15 
REMARK    4  A    between atoms: C13_15  and  C14_16 
REMARK    5  A    between atoms: C14_16  and  O1_17 
REMARK    6  A    between atoms: C16_19  and  O2_20 
REMARK    7  A    between atoms: O2_20  and  C17_21 
REMARK    8  A    between atoms: C17_21  and  C18_22 
REMARK    9  A    between atoms: C18_22  and  O3_23 
ROOT
HETATM    1  C1  UNL     1      22.714  -0.445  53.674  1.00  0.00     0.018 C 
HETATM    2  C2  UNL     1      23.548   0.189  53.072  1.00  0.00    -0.078 C 
HETATM    3  C3  UNL     1      24.557   0.956  52.371  1.00  0.00     0.019 A 
HETATM    4  C4  UNL     1      25.916   0.819  52.628  1.00  0.00     0.021 A 
HETATM    5  C5  UNL     1      26.835   1.611  51.929  1.00  0.00     0.004 A 
HETATM    6  C6  UNL     1      26.442   2.535  50.980  1.00  0.00     0.029 A 
HETATM    7  C7  UNL     1      25.081   2.615  50.779  1.00  0.00     0.034 A 
HETATM    8  C22 UNL     1      24.110   1.878  51.418  1.00  0.00     0.050 A 
ENDROOT
BRANCH   7   9
HETATM    9  N1  UNL     1      24.536   3.554  49.825  1.00  0.00    -0.353 N 
HETATM   10  H5  UNL     1      24.069   3.028  49.026  1.00  0.00     0.166 HD
BRANCH   9  11
HETATM   11  C8  UNL     1      24.756   4.908  50.177  1.00  0.00     0.077 A 
HETATM   12  C9  UNL     1      24.056   5.560  51.061  1.00  0.00     0.116 A 
HETATM   13  N2  UNL     1      24.363   6.781  51.218  1.00  0.00    -0.243 NA
HETATM   14  C10 UNL     1      25.487   7.066  50.359  1.00  0.00     0.070 A 
HETATM   15  C11 UNL     1      26.265   8.174  50.103  1.00  0.00     0.042 A 
HETATM   16  C21 UNL     1      25.725   5.882  49.708  1.00  0.00     0.025 A 
HETATM   17  C12 UNL     1      27.297   8.033  49.161  1.00  0.00    -0.021 A 
HETATM   18  C16 UNL     1      27.579   6.840  48.471  1.00  0.00     0.076 A 
HETATM   19  C20 UNL     1      26.745   5.797  48.799  1.00  0.00     0.053 A 
BRANCH  17  20
HETATM   20  C13 UNL     1      28.100   9.301  48.935  1.00  0.00     0.067 C 
BRANCH  20  21
HETATM   21  C14 UNL     1      27.284  10.385  48.323  1.00  0.00     0.171 C 
BRANCH  21  22
HETATM   22  O1  UNL     1      26.804  10.006  47.092  1.00  0.00    -0.396 OA
HETATM   23  C15 UNL     1      27.233  10.799  46.060  1.00  0.00     0.201 C 
ENDBRANCH  21  22
ENDBRANCH  20  21
ENDBRANCH  17  20
BRANCH  18  24
HETATM   24  O2  UNL     1      28.589   7.022  47.674  1.00  0.00    -0.348 OA
BRANCH  24  25
HETATM   25  C17 UNL     1      29.820   6.573  47.398  1.00  0.00     0.201 C 
BRANCH  25  26
HETATM   26  C18 UNL     1      30.576   5.965  48.557  1.00  0.00     0.193 C 
BRANCH  26  27
HETATM   27  O3  UNL     1      31.259   4.825  48.225  1.00  0.00    -0.394 OA
HETATM   28  C19 UNL     1      32.635   4.946  48.261  1.00  0.00     0.201 C 
ENDBRANCH  26  27
ENDBRANCH  25  26
ENDBRANCH  24  25
ENDBRANCH  18  24
ENDBRANCH   9  11
ENDBRANCH   7   9
TORSDOF 9
ENDMDL
