MODEL 1
REMARK VINA RESULT:      -6.9      0.000      0.000
REMARK  7 active torsions:
REMARK  status: ('A' for Active; 'I' for Inactive)
REMARK    1  A    between atoms: N2_7  and  C5_8 
REMARK    2  A    between atoms: N3_9  and  C6_10 
REMARK    3  A    between atoms: C6_10  and  C7_11 
REMARK    4  A    between atoms: C7_11  and  S1_12 
REMARK    5  A    between atoms: S1_12  and  C8_13 
REMARK    6  A    between atoms: C8_13  and  C9_14 
REMARK    7  A    between atoms: C11_17  and  C12_18 
ROOT
HETATM    1  C7  UNL     1      25.475   3.813  49.510  1.00  0.00     0.064 C 
ENDROOT
BRANCH   1   2
HETATM    2  C6  UNL     1      26.111   3.334  50.566  1.00  0.00     0.124 C 
BRANCH   2   3
HETATM    3  N3  UNL     1      26.966   2.534  51.359  1.00  0.00    -0.255 NA
HETATM    4  C5  UNL     1      26.504   2.041  52.482  1.00  0.00     0.214 C 
BRANCH   4   5
HETATM    5  N2  UNL     1      27.219   1.220  53.399  1.00  0.00    -0.279 N 
HETATM    6  C2  UNL     1      26.696  -0.094  53.746  1.00  0.00     0.325 C 
HETATM    7  C1  UNL     1      27.038  -1.080  52.664  1.00  0.00     0.066 C 
HETATM    8  N1  UNL     1      27.404  -0.364  54.992  1.00  0.00     0.115 N 
HETATM    9  C3  UNL     1      28.741   0.096  54.659  1.00  0.00     0.375 C 
HETATM   10  H5  UNL     1      27.015   0.351  55.668  1.00  0.00     0.319 HD
HETATM   11  C4  UNL     1      28.450   1.445  54.105  1.00  0.00     0.255 C 
HETATM   12  O1  UNL     1      29.003   2.579  54.139  1.00  0.00    -0.271 OA
ENDBRANCH   4   5
ENDBRANCH   2   3
ENDBRANCH   1   2
BRANCH   1  13
HETATM   13  S1  UNL     1      24.097   4.919  49.763  1.00  0.00    -0.132 SA
BRANCH  13  14
HETATM   14  C8  UNL     1      23.819   5.110  51.568  1.00  0.00     0.165 C 
BRANCH  14  15
HETATM   15  C9  UNL     1      22.764   4.090  51.895  1.00  0.00     0.154 A 
HETATM   16  N4  UNL     1      21.440   4.367  52.035  1.00  0.00    -0.237 NA
HETATM   17  C10 UNL     1      20.821   3.209  52.324  1.00  0.00     0.152 A 
HETATM   18  C11 UNL     1      21.834   2.269  52.342  1.00  0.00     0.080 A 
HETATM   19  O2  UNL     1      22.999   2.814  52.083  1.00  0.00    -0.297 OA
BRANCH  18  20
HETATM   20  C12 UNL     1      21.650   0.815  52.620  1.00  0.00    -0.000 C 
HETATM   21  C13 UNL     1      20.692   0.662  53.757  1.00  0.00     0.021 C 
HETATM   22  C14 UNL     1      21.170   0.125  51.370  1.00  0.00     0.021 C 
HETATM   23  C15 UNL     1      23.036   0.267  52.920  1.00  0.00     0.021 C 
ENDBRANCH  18  20
ENDBRANCH  14  15
ENDBRANCH  13  14
ENDBRANCH   1  13
TORSDOF 7
ENDMDL
MODEL 2
REMARK VINA RESULT:      -6.4      1.303      1.841
REMARK  7 active torsions:
REMARK  status: ('A' for Active; 'I' for Inactive)
REMARK    1  A    between atoms: N2_7  and  C5_8 
REMARK    2  A    between atoms: N3_9  and  C6_10 
REMARK    3  A    between atoms: C6_10  and  C7_11 
REMARK    4  A    between atoms: C7_11  and  S1_12 
REMARK    5  A    between atoms: S1_12  and  C8_13 
REMARK    6  A    between atoms: C8_13  and  C9_14 
REMARK    7  A    between atoms: C11_17  and  C12_18 
ROOT
HETATM    1  C7  UNL     1      25.272   4.267  50.078  1.00  0.00     0.064 C 
ENDROOT
BRANCH   1   2
HETATM    2  C6  UNL     1      26.245   3.458  50.462  1.00  0.00     0.124 C 
BRANCH   2   3
HETATM    3  N3  UNL     1      26.992   2.547  51.246  1.00  0.00    -0.255 NA
HETATM    4  C5  UNL     1      26.538   2.217  52.430  1.00  0.00     0.214 C 
BRANCH   4   5
HETATM    5  N2  UNL     1      27.155   1.320  53.348  1.00  0.00    -0.279 N 
HETATM    6  C2  UNL     1      26.529   0.035  53.627  1.00  0.00     0.325 C 
HETATM    7  C1  UNL     1      26.851  -0.938  52.527  1.00  0.00     0.066 C 
HETATM    8  N1  UNL     1      27.162  -0.323  54.891  1.00  0.00     0.115 N 
HETATM    9  C3  UNL     1      28.540   0.055  54.631  1.00  0.00     0.375 C 
HETATM   10  H5  UNL     1      26.793   0.397  55.575  1.00  0.00     0.319 HD
HETATM   11  C4  UNL     1      28.366   1.437  54.112  1.00  0.00     0.255 C 
HETATM   12  O1  UNL     1      28.993   2.528  54.207  1.00  0.00    -0.271 OA
ENDBRANCH   4   5
ENDBRANCH   2   3
ENDBRANCH   1   2
BRANCH   1  13
HETATM   13  S1  UNL     1      23.587   3.845  50.491  1.00  0.00    -0.132 SA
BRANCH  13  14
HETATM   14  C8  UNL     1      23.319   2.066  50.124  1.00  0.00     0.165 C 
BRANCH  14  15
HETATM   15  C9  UNL     1      22.221   1.651  51.063  1.00  0.00     0.154 A 
HETATM   16  N4  UNL     1      20.999   2.244  51.131  1.00  0.00    -0.237 NA
HETATM   17  C10 UNL     1      20.298   1.601  52.081  1.00  0.00     0.152 A 
HETATM   18  C11 UNL     1      21.160   0.627  52.549  1.00  0.00     0.080 A 
HETATM   19  O2  UNL     1      22.315   0.669  51.927  1.00  0.00    -0.297 OA
BRANCH  18  20
HETATM   20  C12 UNL     1      20.841  -0.358  53.623  1.00  0.00    -0.000 C 
HETATM   21  C13 UNL     1      21.836  -1.471  53.562  1.00  0.00     0.021 C 
HETATM   22  C14 UNL     1      20.843   0.340  54.957  1.00  0.00     0.021 C 
HETATM   23  C15 UNL     1      19.413  -0.810  53.365  1.00  0.00     0.021 C 
ENDBRANCH  18  20
ENDBRANCH  14  15
ENDBRANCH  13  14
ENDBRANCH   1  13
TORSDOF 7
ENDMDL
MODEL 3
REMARK VINA RESULT:      -6.3      4.490      7.001
REMARK  7 active torsions:
REMARK  status: ('A' for Active; 'I' for Inactive)
REMARK    1  A    between atoms: N2_7  and  C5_8 
REMARK    2  A    between atoms: N3_9  and  C6_10 
REMARK    3  A    between atoms: C6_10  and  C7_11 
REMARK    4  A    between atoms: C7_11  and  S1_12 
REMARK    5  A    between atoms: S1_12  and  C8_13 
REMARK    6  A    between atoms: C8_13  and  C9_14 
REMARK    7  A    between atoms: C11_17  and  C12_18 
ROOT
HETATM    1  C7  UNL     1      25.558   4.324  49.973  1.00  0.00     0.064 C 
ENDROOT
BRANCH   1   2
HETATM    2  C6  UNL     1      26.410   3.408  50.403  1.00  0.00     0.124 C 
BRANCH   2   3
HETATM    3  N3  UNL     1      27.164   2.593  51.280  1.00  0.00    -0.255 NA
HETATM    4  C5  UNL     1      26.574   2.098  52.341  1.00  0.00     0.214 C 
BRANCH   4   5
HETATM    5  N2  UNL     1      27.176   1.264  53.325  1.00  0.00    -0.279 N 
HETATM    6  C2  UNL     1      26.566  -0.019  53.648  1.00  0.00     0.325 C 
HETATM    7  C1  UNL     1      26.949  -1.039  52.613  1.00  0.00     0.066 C 
HETATM    8  N1  UNL     1      27.159  -0.297  54.951  1.00  0.00     0.115 N 
HETATM    9  C3  UNL     1      28.538   0.097  54.721  1.00  0.00     0.375 C 
HETATM   10  H5  UNL     1      26.751   0.448  55.583  1.00  0.00     0.319 HD
HETATM   11  C4  UNL     1      28.355   1.447  54.125  1.00  0.00     0.255 C 
HETATM   12  O1  UNL     1      28.955   2.555  54.186  1.00  0.00    -0.271 OA
ENDBRANCH   4   5
ENDBRANCH   2   3
ENDBRANCH   1   2
BRANCH   1  13
HETATM   13  S1  UNL     1      26.186   5.723  49.058  1.00  0.00    -0.132 SA
BRANCH  13  14
HETATM   14  C8  UNL     1      25.763   7.260  49.969  1.00  0.00     0.165 C 
BRANCH  14  15
HETATM   15  C9  UNL     1      26.909   8.190  49.687  1.00  0.00     0.154 A 
HETATM   16  N4  UNL     1      26.963   9.490  50.083  1.00  0.00    -0.237 NA
HETATM   17  C10 UNL     1      28.133   9.989  49.648  1.00  0.00     0.152 A 
HETATM   18  C11 UNL     1      28.740   8.933  48.996  1.00  0.00     0.080 A 
HETATM   19  O2  UNL     1      27.991   7.855  49.026  1.00  0.00    -0.297 OA
BRANCH  18  20
HETATM   20  C12 UNL     1      30.075   8.986  48.333  1.00  0.00    -0.000 C 
HETATM   21  C13 UNL     1      29.953   8.404  46.962  1.00  0.00     0.021 C 
HETATM   22  C14 UNL     1      30.563  10.410  48.308  1.00  0.00     0.021 C 
HETATM   23  C15 UNL     1      31.022   8.212  49.234  1.00  0.00     0.021 C 
ENDBRANCH  18  20
ENDBRANCH  14  15
ENDBRANCH  13  14
ENDBRANCH   1  13
TORSDOF 7
ENDMDL
MODEL 4
REMARK VINA RESULT:      -6.2      3.815      6.784
REMARK  7 active torsions:
REMARK  status: ('A' for Active; 'I' for Inactive)
REMARK    1  A    between atoms: N2_7  and  C5_8 
REMARK    2  A    between atoms: N3_9  and  C6_10 
REMARK    3  A    between atoms: C6_10  and  C7_11 
REMARK    4  A    between atoms: C7_11  and  S1_12 
REMARK    5  A    between atoms: S1_12  and  C8_13 
REMARK    6  A    between atoms: C8_13  and  C9_14 
REMARK    7  A    between atoms: C11_17  and  C12_18 
ROOT
HETATM    1  C7  UNL     1      24.335   3.737  50.303  1.00  0.00     0.064 C 
ENDROOT
BRANCH   1   2
HETATM    2  C6  UNL     1      24.890   2.902  51.165  1.00  0.00     0.124 C 
BRANCH   2   3
HETATM    3  N3  UNL     1      25.785   1.959  51.722  1.00  0.00    -0.255 NA
HETATM    4  C5  UNL     1      26.155   2.103  52.971  1.00  0.00     0.214 C 
BRANCH   4   5
HETATM    5  N2  UNL     1      27.043   1.254  53.690  1.00  0.00    -0.279 N 
HETATM    6  C2  UNL     1      26.603  -0.077  54.083  1.00  0.00     0.325 C 
HETATM    7  C1  UNL     1      26.718  -1.017  52.916  1.00  0.00     0.066 C 
HETATM    8  N1  UNL     1      27.551  -0.389  55.147  1.00  0.00     0.115 N 
HETATM    9  C3  UNL     1      28.791   0.096  54.568  1.00  0.00     0.375 C 
HETATM   10  H5  UNL     1      27.307   0.296  55.916  1.00  0.00     0.319 HD
HETATM   11  C4  UNL     1      28.392   1.463  54.139  1.00  0.00     0.255 C 
HETATM   12  O1  UNL     1      28.939   2.599  54.104  1.00  0.00    -0.271 OA
ENDBRANCH   4   5
ENDBRANCH   2   3
ENDBRANCH   1   2
BRANCH   1  13
HETATM   13  S1  UNL     1      25.378   4.899  49.436  1.00  0.00    -0.132 SA
BRANCH  13  14
HETATM   14  C8  UNL     1      27.005   4.109  49.122  1.00  0.00     0.165 C 
BRANCH  14  15
HETATM   15  C9  UNL     1      27.861   5.217  48.576  1.00  0.00     0.154 A 
HETATM   16  N4  UNL     1      27.382   6.396  48.096  1.00  0.00    -0.237 NA
HETATM   17  C10 UNL     1      28.442   7.124  47.701  1.00  0.00     0.152 A 
HETATM   18  C11 UNL     1      29.534   6.321  47.972  1.00  0.00     0.080 A 
HETATM   19  O2  UNL     1      29.169   5.175  48.498  1.00  0.00    -0.297 OA
BRANCH  18  20
HETATM   20  C12 UNL     1      30.955   6.689  47.708  1.00  0.00    -0.000 C 
HETATM   21  C13 UNL     1      30.997   7.638  46.555  1.00  0.00     0.021 C 
HETATM   22  C14 UNL     1      31.558   7.277  48.956  1.00  0.00     0.021 C 
HETATM   23  C15 UNL     1      31.683   5.382  47.441  1.00  0.00     0.021 C 
ENDBRANCH  18  20
ENDBRANCH  14  15
ENDBRANCH  13  14
ENDBRANCH   1  13
TORSDOF 7
ENDMDL
MODEL 5
REMARK VINA RESULT:      -5.9      5.051      6.651
REMARK  7 active torsions:
REMARK  status: ('A' for Active; 'I' for Inactive)
REMARK    1  A    between atoms: N2_7  and  C5_8 
REMARK    2  A    between atoms: N3_9  and  C6_10 
REMARK    3  A    between atoms: C6_10  and  C7_11 
REMARK    4  A    between atoms: C7_11  and  S1_12 
REMARK    5  A    between atoms: S1_12  and  C8_13 
REMARK    6  A    between atoms: C8_13  and  C9_14 
REMARK    7  A    between atoms: C11_17  and  C12_18 
ROOT
HETATM    1  C7  UNL     1      27.602   6.747  48.397  1.00  0.00     0.064 C 
ENDROOT
BRANCH   1   2
HETATM    2  C6  UNL     1      28.823   6.272  48.216  1.00  0.00     0.124 C 
BRANCH   2   3
HETATM    3  N3  UNL     1      29.965   5.446  48.337  1.00  0.00    -0.255 NA
HETATM    4  C5  UNL     1      31.123   5.911  47.935  1.00  0.00     0.214 C 
BRANCH   4   5
HETATM    5  N2  UNL     1      32.368   5.223  47.982  1.00  0.00    -0.279 N 
HETATM    6  C2  UNL     1      32.413   3.799  47.681  1.00  0.00     0.325 C 
HETATM    7  C1  UNL     1      32.405   3.592  46.193  1.00  0.00     0.066 C 
HETATM    8  N1  UNL     1      33.682   3.418  48.291  1.00  0.00     0.115 N 
HETATM    9  C3  UNL     1      34.530   4.527  47.889  1.00  0.00     0.375 C 
HETATM   10  H5  UNL     1      33.517   3.546  49.329  1.00  0.00     0.319 HD
HETATM   11  C4  UNL     1      33.692   5.688  48.289  1.00  0.00     0.255 C 
HETATM   12  O1  UNL     1      33.902   6.833  48.777  1.00  0.00    -0.271 OA
ENDBRANCH   4   5
ENDBRANCH   2   3
ENDBRANCH   1   2
BRANCH   1  13
HETATM   13  S1  UNL     1      26.422   5.766  49.309  1.00  0.00    -0.132 SA
BRANCH  13  14
HETATM   14  C8  UNL     1      26.768   3.989  48.997  1.00  0.00     0.165 C 
BRANCH  14  15
HETATM   15  C9  UNL     1      26.379   3.302  50.276  1.00  0.00     0.154 A 
HETATM   16  N4  UNL     1      25.163   3.415  50.873  1.00  0.00    -0.237 NA
HETATM   17  C10 UNL     1      25.195   2.661  51.986  1.00  0.00     0.152 A 
HETATM   18  C11 UNL     1      26.466   2.118  52.000  1.00  0.00     0.080 A 
HETATM   19  O2  UNL     1      27.168   2.513  50.964  1.00  0.00    -0.297 OA
BRANCH  18  20
HETATM   20  C12 UNL     1      26.994   1.198  53.048  1.00  0.00    -0.000 C 
HETATM   21  C13 UNL     1      26.991  -0.196  52.508  1.00  0.00     0.021 C 
HETATM   22  C14 UNL     1      28.370   1.648  53.460  1.00  0.00     0.021 C 
HETATM   23  C15 UNL     1      26.092   1.378  54.258  1.00  0.00     0.021 C 
ENDBRANCH  18  20
ENDBRANCH  14  15
ENDBRANCH  13  14
ENDBRANCH   1  13
TORSDOF 7
ENDMDL
MODEL 6
REMARK VINA RESULT:      -5.8      2.880      6.340
REMARK  7 active torsions:
REMARK  status: ('A' for Active; 'I' for Inactive)
REMARK    1  A    between atoms: N2_7  and  C5_8 
REMARK    2  A    between atoms: N3_9  and  C6_10 
REMARK    3  A    between atoms: C6_10  and  C7_11 
REMARK    4  A    between atoms: C7_11  and  S1_12 
REMARK    5  A    between atoms: S1_12  and  C8_13 
REMARK    6  A    between atoms: C8_13  and  C9_14 
REMARK    7  A    between atoms: C11_17  and  C12_18 
ROOT
HETATM    1  C7  UNL     1      20.136   0.937  52.751  1.00  0.00     0.064 C 
ENDROOT
BRANCH   1   2
HETATM    2  C6  UNL     1      20.641   2.087  52.337  1.00  0.00     0.124 C 
BRANCH   2   3
HETATM    3  N3  UNL     1      21.293   3.042  51.522  1.00  0.00    -0.255 NA
HETATM    4  C5  UNL     1      22.418   3.565  51.943  1.00  0.00     0.214 C 
BRANCH   4   5
HETATM    5  N2  UNL     1      23.205   4.534  51.257  1.00  0.00    -0.279 N 
HETATM    6  C2  UNL     1      24.572   4.209  50.875  1.00  0.00     0.325 C 
HETATM    7  C1  UNL     1      24.568   3.386  49.618  1.00  0.00     0.066 C 
HETATM    8  N1  UNL     1      25.135   5.539  50.671  1.00  0.00     0.115 N 
HETATM    9  C3  UNL     1      24.053   6.194  49.957  1.00  0.00     0.375 C 
HETATM   10  H5  UNL     1      25.140   5.967  51.639  1.00  0.00     0.319 HD
HETATM   11  C4  UNL     1      22.895   5.871  50.832  1.00  0.00     0.255 C 
HETATM   12  O1  UNL     1      21.851   6.467  51.212  1.00  0.00    -0.271 OA
ENDBRANCH   4   5
ENDBRANCH   2   3
ENDBRANCH   1   2
BRANCH   1  13
HETATM   13  S1  UNL     1      20.730   0.237  54.283  1.00  0.00    -0.132 SA
BRANCH  13  14
HETATM   14  C8  UNL     1      21.621  -1.325  53.910  1.00  0.00     0.165 C 
BRANCH  14  15
HETATM   15  C9  UNL     1      23.056  -1.026  54.241  1.00  0.00     0.154 A 
HETATM   16  N4  UNL     1      23.664  -1.362  55.411  1.00  0.00    -0.237 NA
HETATM   17  C10 UNL     1      24.935  -0.931  55.336  1.00  0.00     0.152 A 
HETATM   18  C11 UNL     1      25.028  -0.341  54.090  1.00  0.00     0.080 A 
HETATM   19  O2  UNL     1      23.889  -0.404  53.442  1.00  0.00    -0.297 OA
BRANCH  18  20
HETATM   20  C12 UNL     1      26.257   0.295  53.531  1.00  0.00    -0.000 C 
HETATM   21  C13 UNL     1      25.962   1.730  53.236  1.00  0.00     0.021 C 
HETATM   22  C14 UNL     1      27.391   0.132  54.507  1.00  0.00     0.021 C 
HETATM   23  C15 UNL     1      26.621  -0.512  52.295  1.00  0.00     0.021 C 
ENDBRANCH  18  20
ENDBRANCH  14  15
ENDBRANCH  13  14
ENDBRANCH   1  13
TORSDOF 7
ENDMDL
MODEL 7
REMARK VINA RESULT:      -5.7      3.188      5.651
REMARK  7 active torsions:
REMARK  status: ('A' for Active; 'I' for Inactive)
REMARK    1  A    between atoms: N2_7  and  C5_8 
REMARK    2  A    between atoms: N3_9  and  C6_10 
REMARK    3  A    between atoms: C6_10  and  C7_11 
REMARK    4  A    between atoms: C7_11  and  S1_12 
REMARK    5  A    between atoms: S1_12  and  C8_13 
REMARK    6  A    between atoms: C8_13  and  C9_14 
REMARK    7  A    between atoms: C11_17  and  C12_18 
ROOT
HETATM    1  C7  UNL     1      23.463   3.011  50.488  1.00  0.00     0.064 C 
ENDROOT
BRANCH   1   2
HETATM    2  C6  UNL     1      24.364   2.461  51.283  1.00  0.00     0.124 C 
BRANCH   2   3
HETATM    3  N3  UNL     1      25.563   1.850  51.720  1.00  0.00    -0.255 NA
HETATM    4  C5  UNL     1      25.710   1.595  52.997  1.00  0.00     0.214 C 
BRANCH   4   5
HETATM    5  N2  UNL     1      26.843   0.988  53.609  1.00  0.00    -0.279 N 
HETATM    6  C2  UNL     1      26.795  -0.422  53.971  1.00  0.00     0.325 C 
HETATM    7  C1  UNL     1      27.053  -1.268  52.756  1.00  0.00     0.066 C 
HETATM    8  N1  UNL     1      27.875  -0.503  54.948  1.00  0.00     0.115 N 
HETATM    9  C3  UNL     1      28.897   0.304  54.304  1.00  0.00     0.375 C 
HETATM   10  H5  UNL     1      27.526   0.074  55.764  1.00  0.00     0.319 HD
HETATM   11  C4  UNL     1      28.124   1.529  53.969  1.00  0.00     0.255 C 
HETATM   12  O1  UNL     1      28.355   2.770  53.947  1.00  0.00    -0.271 OA
ENDBRANCH   4   5
ENDBRANCH   2   3
ENDBRANCH   1   2
BRANCH   1  13
HETATM   13  S1  UNL     1      23.305   4.790  50.465  1.00  0.00    -0.132 SA
BRANCH  13  14
HETATM   14  C8  UNL     1      23.689   5.393  48.773  1.00  0.00     0.165 C 
BRANCH  14  15
HETATM   15  C9  UNL     1      24.891   6.276  48.954  1.00  0.00     0.154 A 
HETATM   16  N4  UNL     1      25.006   7.236  49.911  1.00  0.00    -0.237 NA
HETATM   17  C10 UNL     1      26.212   7.809  49.756  1.00  0.00     0.152 A 
HETATM   18  C11 UNL     1      26.777   7.145  48.683  1.00  0.00     0.080 A 
HETATM   19  O2  UNL     1      25.969   6.225  48.210  1.00  0.00    -0.297 OA
BRANCH  18  20
HETATM   20  C12 UNL     1      28.129   7.421  48.118  1.00  0.00    -0.000 C 
HETATM   21  C13 UNL     1      28.921   6.154  48.130  1.00  0.00     0.021 C 
HETATM   22  C14 UNL     1      27.983   7.992  46.732  1.00  0.00     0.021 C 
HETATM   23  C15 UNL     1      28.729   8.516  48.984  1.00  0.00     0.021 C 
ENDBRANCH  18  20
ENDBRANCH  14  15
ENDBRANCH  13  14
ENDBRANCH   1  13
TORSDOF 7
ENDMDL
MODEL 8
REMARK VINA RESULT:      -5.7      2.955      6.182
REMARK  7 active torsions:
REMARK  status: ('A' for Active; 'I' for Inactive)
REMARK    1  A    between atoms: N2_7  and  C5_8 
REMARK    2  A    between atoms: N3_9  and  C6_10 
REMARK    3  A    between atoms: C6_10  and  C7_11 
REMARK    4  A    between atoms: C7_11  and  S1_12 
REMARK    5  A    between atoms: S1_12  and  C8_13 
REMARK    6  A    between atoms: C8_13  and  C9_14 
REMARK    7  A    between atoms: C11_17  and  C12_18 
ROOT
HETATM    1  C7  UNL     1      22.400   2.052  49.939  1.00  0.00     0.064 C 
ENDROOT
BRANCH   1   2
HETATM    2  C6  UNL     1      22.912   3.117  50.532  1.00  0.00     0.124 C 
BRANCH   2   3
HETATM    3  N3  UNL     1      23.295   4.459  50.769  1.00  0.00    -0.255 NA
HETATM    4  C5  UNL     1      24.220   4.992  50.009  1.00  0.00     0.214 C 
BRANCH   4   5
HETATM    5  N2  UNL     1      24.724   6.320  50.104  1.00  0.00    -0.279 N 
HETATM    6  C2  UNL     1      26.124   6.580  49.798  1.00  0.00     0.325 C 
HETATM    7  C1  UNL     1      26.314   6.661  48.310  1.00  0.00     0.066 C 
HETATM    8  N1  UNL     1      26.327   7.864  50.458  1.00  0.00     0.115 N 
HETATM    9  C3  UNL     1      25.105   8.561  50.097  1.00  0.00     0.375 C 
HETATM   10  H5  UNL     1      26.235   7.641  51.489  1.00  0.00     0.319 HD
HETATM   11  C4  UNL     1      24.079   7.551  50.468  1.00  0.00     0.255 C 
HETATM   12  O1  UNL     1      22.921   7.575  50.970  1.00  0.00    -0.271 OA
ENDBRANCH   4   5
ENDBRANCH   2   3
ENDBRANCH   1   2
BRANCH   1  13
HETATM   13  S1  UNL     1      21.574   0.823  50.937  1.00  0.00    -0.132 SA
BRANCH  13  14
HETATM   14  C8  UNL     1      21.757   1.282  52.706  1.00  0.00     0.165 C 
BRANCH  14  15
HETATM   15  C9  UNL     1      22.981   0.540  53.162  1.00  0.00     0.154 A 
HETATM   16  N4  UNL     1      22.982  -0.442  54.103  1.00  0.00    -0.237 NA
HETATM   17  C10 UNL     1      24.253  -0.860  54.239  1.00  0.00     0.152 A 
HETATM   18  C11 UNL     1      24.970  -0.087  53.345  1.00  0.00     0.080 A 
HETATM   19  O2  UNL     1      24.191   0.753  52.704  1.00  0.00    -0.297 OA
BRANCH  18  20
HETATM   20  C12 UNL     1      26.442  -0.176  53.122  1.00  0.00    -0.000 C 
HETATM   21  C13 UNL     1      27.141   0.164  54.398  1.00  0.00     0.021 C 
HETATM   22  C14 UNL     1      26.789  -1.556  52.630  1.00  0.00     0.021 C 
HETATM   23  C15 UNL     1      26.753   0.787  51.988  1.00  0.00     0.021 C 
ENDBRANCH  18  20
ENDBRANCH  14  15
ENDBRANCH  13  14
ENDBRANCH   1  13
TORSDOF 7
ENDMDL
MODEL 9
REMARK VINA RESULT:      -5.6      6.598      8.434
REMARK  7 active torsions:
REMARK  status: ('A' for Active; 'I' for Inactive)
REMARK    1  A    between atoms: N2_7  and  C5_8 
REMARK    2  A    between atoms: N3_9  and  C6_10 
REMARK    3  A    between atoms: C6_10  and  C7_11 
REMARK    4  A    between atoms: C7_11  and  S1_12 
REMARK    5  A    between atoms: S1_12  and  C8_13 
REMARK    6  A    between atoms: C8_13  and  C9_14 
REMARK    7  A    between atoms: C11_17  and  C12_18 
ROOT
HETATM    1  C7  UNL     1      30.777   9.417  48.724  1.00  0.00     0.064 C 
ENDROOT
BRANCH   1   2
HETATM    2  C6  UNL     1      31.673   8.453  48.597  1.00  0.00     0.124 C 
BRANCH   2   3
HETATM    3  N3  UNL     1      32.408   7.272  48.852  1.00  0.00    -0.255 NA
HETATM    4  C5  UNL     1      32.555   6.401  47.884  1.00  0.00     0.214 C 
BRANCH   4   5
HETATM    5  N2  UNL     1      33.258   5.166  47.963  1.00  0.00    -0.279 N 
HETATM    6  C2  UNL     1      32.540   3.915  47.757  1.00  0.00     0.325 C 
HETATM    7  C1  UNL     1      32.359   3.668  46.286  1.00  0.00     0.066 C 
HETATM    8  N1  UNL     1      33.450   2.958  48.377  1.00  0.00     0.115 N 
HETATM    9  C3  UNL     1      34.732   3.437  47.892  1.00  0.00     0.375 C 
HETATM   10  H5  UNL     1      33.422   3.207  49.405  1.00  0.00     0.319 HD
HETATM   11  C4  UNL     1      34.643   4.883  48.224  1.00  0.00     0.255 C 
HETATM   12  O1  UNL     1      35.440   5.772  48.631  1.00  0.00    -0.271 OA
ENDBRANCH   4   5
ENDBRANCH   2   3
ENDBRANCH   1   2
BRANCH   1  13
HETATM   13  S1  UNL     1      29.533   9.610  47.458  1.00  0.00    -0.132 SA
BRANCH  13  14
HETATM   14  C8  UNL     1      29.431   8.052  46.491  1.00  0.00     0.165 C 
BRANCH  14  15
HETATM   15  C9  UNL     1      28.574   7.146  47.330  1.00  0.00     0.154 A 
HETATM   16  N4  UNL     1      28.989   5.964  47.859  1.00  0.00    -0.237 NA
HETATM   17  C10 UNL     1      27.950   5.447  48.540  1.00  0.00     0.152 A 
HETATM   18  C11 UNL     1      26.936   6.373  48.380  1.00  0.00     0.080 A 
HETATM   19  O2  UNL     1      27.325   7.390  47.648  1.00  0.00    -0.297 OA
BRANCH  18  20
HETATM   20  C12 UNL     1      25.565   6.251  48.956  1.00  0.00    -0.000 C 
HETATM   21  C13 UNL     1      24.586   6.828  47.985  1.00  0.00     0.021 C 
HETATM   22  C14 UNL     1      25.280   4.806  49.265  1.00  0.00     0.021 C 
HETATM   23  C15 UNL     1      25.603   6.987  50.285  1.00  0.00     0.021 C 
ENDBRANCH  18  20
ENDBRANCH  14  15
ENDBRANCH  13  14
ENDBRANCH   1  13
TORSDOF 7
ENDMDL
