MODEL 1
REMARK VINA RESULT:      -8.4      0.000      0.000
REMARK  1 active torsions:
REMARK  status: ('A' for Active; 'I' for Inactive)
REMARK    1  A    between atoms: O1_2  and  C2_3 
ROOT
HETATM    1  C2  UNL     1      25.928  -0.435  52.776  1.00  0.00     0.195 C 
HETATM    2  C3  UNL     1      25.022  -0.763  53.946  1.00  0.00     0.008 C 
HETATM    3  C4  UNL     1      23.699  -0.711  54.146  1.00  0.00    -0.008 C 
HETATM    4  C5  UNL     1      22.468  -0.364  53.400  1.00  0.00     0.150 C 
HETATM    5  N1  UNL     1      22.331   1.077  53.192  1.00  0.00    -0.351 N 
HETATM    6  C6  UNL     1      23.426   1.905  52.870  1.00  0.00     0.243 C 
HETATM    7  N2  UNL     1      24.744   1.946  52.855  1.00  0.00    -0.211 NA
HETATM    8  C7  UNL     1      25.757   0.996  52.431  1.00  0.00     0.069 C 
HETATM    9  C8  UNL     1      26.734   1.380  51.589  1.00  0.00     0.023 C 
HETATM   10  C9  UNL     1      26.659   2.811  51.171  1.00  0.00     0.149 C 
HETATM   11  N3  UNL     1      26.479   2.892  49.750  1.00  0.00    -0.384 N 
HETATM   12  C10 UNL     1      26.136   4.229  49.285  1.00  0.00     0.061 C 
HETATM   13  C11 UNL     1      26.298   5.511  48.896  1.00  0.00    -0.016 C 
HETATM   14  C12 UNL     1      27.334   6.512  48.715  1.00  0.00     0.010 C 
HETATM   15  C13 UNL     1      26.763   7.722  48.544  1.00  0.00     0.000 C 
HETATM   16  C14 UNL     1      25.288   7.834  48.508  1.00  0.00    -0.003 C 
HETATM   17  C15 UNL     1      24.373   6.851  48.566  1.00  0.00    -0.011 C 
HETATM   18  C16 UNL     1      24.856   5.499  48.634  1.00  0.00     0.097 C 
HETATM   19  C17 UNL     1      24.639   4.464  49.548  1.00  0.00     0.070 C 
HETATM   20  N4  UNL     1      24.177   3.671  50.339  1.00  0.00    -0.265 NA
HETATM   21  C18 UNL     1      23.013   3.339  50.967  1.00  0.00     0.327 C 
HETATM   22  O2  UNL     1      23.191   3.151  52.386  1.00  0.00    -0.299 OA
HETATM   23  H9  UNL     1      21.551   1.749  53.221  1.00  0.00     0.163 HD
HETATM   24  H13 UNL     1      26.448   2.524  48.786  1.00  0.00     0.160 HD
ENDROOT
BRANCH   1  25
HETATM   25  O1  UNL     1      27.213  -0.822  53.038  1.00  0.00    -0.381 OA
HETATM   26  C1  UNL     1      27.428  -2.152  52.780  1.00  0.00     0.202 C 
ENDBRANCH   1  25
TORSDOF 1
ENDMDL
MODEL 2
REMARK VINA RESULT:      -8.2      3.763      8.243
REMARK  1 active torsions:
REMARK  status: ('A' for Active; 'I' for Inactive)
REMARK    1  A    between atoms: O1_2  and  C2_3 
ROOT
HETATM    1  C2  UNL     1      24.437   0.485  53.551  1.00  0.00     0.195 C 
HETATM    2  C3  UNL     1      25.175   1.156  52.410  1.00  0.00     0.008 C 
HETATM    3  C4  UNL     1      24.878   2.147  51.560  1.00  0.00    -0.008 C 
HETATM    4  C5  UNL     1      23.771   3.092  51.288  1.00  0.00     0.150 C 
HETATM    5  N1  UNL     1      22.618   2.436  50.673  1.00  0.00    -0.351 N 
HETATM    6  C6  UNL     1      22.171   1.158  51.071  1.00  0.00     0.243 C 
HETATM    7  N2  UNL     1      22.528   0.082  51.742  1.00  0.00    -0.211 NA
HETATM    8  C7  UNL     1      23.188  -0.111  53.022  1.00  0.00     0.069 C 
HETATM    9  C8  UNL     1      22.654  -0.937  53.940  1.00  0.00     0.023 C 
HETATM   10  C9  UNL     1      21.384  -1.595  53.512  1.00  0.00     0.149 C 
HETATM   11  N3  UNL     1      20.317  -1.205  54.389  1.00  0.00    -0.384 N 
HETATM   12  C10 UNL     1      18.999  -1.586  53.900  1.00  0.00     0.061 C 
HETATM   13  C11 UNL     1      17.921  -2.357  53.645  1.00  0.00    -0.016 C 
HETATM   14  C12 UNL     1      17.435  -3.712  53.829  1.00  0.00     0.010 C 
HETATM   15  C13 UNL     1      16.331  -3.898  53.076  1.00  0.00     0.000 C 
HETATM   16  C14 UNL     1      15.788  -2.771  52.286  1.00  0.00    -0.003 C 
HETATM   17  C15 UNL     1      16.216  -1.498  52.243  1.00  0.00    -0.011 C 
HETATM   18  C16 UNL     1      17.319  -1.140  53.092  1.00  0.00     0.097 C 
HETATM   19  C17 UNL     1      18.568  -0.571  52.828  1.00  0.00     0.070 C 
HETATM   20  N4  UNL     1      19.498   0.082  52.408  1.00  0.00    -0.265 NA
HETATM   21  C18 UNL     1      19.796   1.073  51.520  1.00  0.00     0.327 C 
HETATM   22  O2  UNL     1      20.933   0.746  50.696  1.00  0.00    -0.299 OA
HETATM   23  H9  UNL     1      21.950   2.678  49.928  1.00  0.00     0.163 HD
HETATM   24  H13 UNL     1      19.906  -0.777  55.233  1.00  0.00     0.160 HD
ENDROOT
BRANCH   1  25
HETATM   25  O1  UNL     1      25.261  -0.382  54.215  1.00  0.00    -0.381 OA
HETATM   26  C1  UNL     1      26.399   0.223  54.682  1.00  0.00     0.202 C 
ENDBRANCH   1  25
TORSDOF 1
ENDMDL
MODEL 3
REMARK VINA RESULT:      -8.2      3.013      8.021
REMARK  1 active torsions:
REMARK  status: ('A' for Active; 'I' for Inactive)
REMARK    1  A    between atoms: O1_2  and  C2_3 
ROOT
HETATM    1  C2  UNL     1      21.219   6.175  49.675  1.00  0.00     0.195 C 
HETATM    2  C3  UNL     1      21.790   7.507  50.119  1.00  0.00     0.008 C 
HETATM    3  C4  UNL     1      23.001   7.919  50.516  1.00  0.00    -0.008 C 
HETATM    4  C5  UNL     1      24.362   7.368  50.704  1.00  0.00     0.150 C 
HETATM    5  N1  UNL     1      24.453   6.496  51.874  1.00  0.00    -0.351 N 
HETATM    6  C6  UNL     1      23.434   5.585  52.222  1.00  0.00     0.243 C 
HETATM    7  N2  UNL     1      22.172   5.283  51.993  1.00  0.00    -0.211 NA
HETATM    8  C7  UNL     1      21.380   5.199  50.778  1.00  0.00     0.069 C 
HETATM    9  C8  UNL     1      20.648   4.099  50.522  1.00  0.00     0.023 C 
HETATM   10  C9  UNL     1      20.737   3.042  51.573  1.00  0.00     0.149 C 
HETATM   11  N3  UNL     1      21.294   1.846  51.009  1.00  0.00    -0.384 N 
HETATM   12  C10 UNL     1      21.659   0.852  52.009  1.00  0.00     0.061 C 
HETATM   13  C11 UNL     1      21.523  -0.154  52.899  1.00  0.00    -0.016 C 
HETATM   14  C12 UNL     1      20.511  -1.022  53.473  1.00  0.00     0.010 C 
HETATM   15  C13 UNL     1      21.024  -1.659  54.546  1.00  0.00     0.000 C 
HETATM   16  C14 UNL     1      22.440  -1.446  54.913  1.00  0.00    -0.003 C 
HETATM   17  C15 UNL     1      23.369  -0.715  54.273  1.00  0.00    -0.011 C 
HETATM   18  C16 UNL     1      22.979  -0.074  53.047  1.00  0.00     0.097 C 
HETATM   19  C17 UNL     1      23.007   1.259  52.628  1.00  0.00     0.070 C 
HETATM   20  N4  UNL     1      23.287   2.417  52.406  1.00  0.00    -0.265 NA
HETATM   21  C18 UNL     1      24.255   3.349  52.643  1.00  0.00     0.327 C 
HETATM   22  O2  UNL     1      23.708   4.598  53.113  1.00  0.00    -0.299 OA
HETATM   23  H9  UNL     1      25.148   6.340  52.618  1.00  0.00     0.163 HD
HETATM   24  H13 UNL     1      21.613   1.229  50.246  1.00  0.00     0.160 HD
ENDROOT
BRANCH   1  25
HETATM   25  O1  UNL     1      19.941   6.328  49.214  1.00  0.00    -0.381 OA
HETATM   26  C1  UNL     1      19.502   7.625  49.289  1.00  0.00     0.202 C 
ENDBRANCH   1  25
TORSDOF 1
ENDMDL
MODEL 4
REMARK VINA RESULT:      -7.7      1.681      2.091
REMARK  1 active torsions:
REMARK  status: ('A' for Active; 'I' for Inactive)
REMARK    1  A    between atoms: O1_2  and  C2_3 
ROOT
HETATM    1  C2  UNL     1      23.675  -0.529  53.654  1.00  0.00     0.195 C 
HETATM    2  C3  UNL     1      22.473  -0.736  54.552  1.00  0.00     0.008 C 
HETATM    3  C4  UNL     1      21.147  -0.715  54.359  1.00  0.00    -0.008 C 
HETATM    4  C5  UNL     1      20.182  -0.523  53.252  1.00  0.00     0.150 C 
HETATM    5  N1  UNL     1      20.107   0.870  52.815  1.00  0.00    -0.351 N 
HETATM    6  C6  UNL     1      21.247   1.693  52.705  1.00  0.00     0.243 C 
HETATM    7  N2  UNL     1      22.512   1.789  53.059  1.00  0.00    -0.211 NA
HETATM    8  C7  UNL     1      23.607   0.835  53.078  1.00  0.00     0.069 C 
HETATM    9  C8  UNL     1      24.784   1.144  52.503  1.00  0.00     0.023 C 
HETATM   10  C9  UNL     1      24.829   2.503  51.885  1.00  0.00     0.149 C 
HETATM   11  N3  UNL     1      25.064   2.385  50.475  1.00  0.00    -0.384 N 
HETATM   12  C10 UNL     1      24.866   3.633  49.750  1.00  0.00     0.061 C 
HETATM   13  C11 UNL     1      25.130   4.857  49.248  1.00  0.00    -0.016 C 
HETATM   14  C12 UNL     1      26.172   5.868  49.230  1.00  0.00     0.010 C 
HETATM   15  C13 UNL     1      25.671   7.019  48.736  1.00  0.00     0.000 C 
HETATM   16  C14 UNL     1      24.269   7.063  48.267  1.00  0.00    -0.003 C 
HETATM   17  C15 UNL     1      23.378   6.058  48.199  1.00  0.00    -0.011 C 
HETATM   18  C16 UNL     1      23.824   4.749  48.591  1.00  0.00     0.097 C 
HETATM   19  C17 UNL     1      23.356   3.837  49.541  1.00  0.00     0.070 C 
HETATM   20  N4  UNL     1      22.689   3.137  50.271  1.00  0.00    -0.265 NA
HETATM   21  C18 UNL     1      21.394   2.843  50.582  1.00  0.00     0.327 C 
HETATM   22  O2  UNL     1      21.157   2.853  52.004  1.00  0.00    -0.299 OA
HETATM   23  H9  UNL     1      19.350   1.506  52.527  1.00  0.00     0.163 HD
HETATM   24  H13 UNL     1      25.313   1.891  49.603  1.00  0.00     0.160 HD
ENDROOT
BRANCH   1  25
HETATM   25  O1  UNL     1      24.832  -0.823  54.322  1.00  0.00    -0.381 OA
HETATM   26  C1  UNL     1      24.608  -1.266  55.600  1.00  0.00     0.202 C 
ENDBRANCH   1  25
TORSDOF 1
ENDMDL
MODEL 5
REMARK VINA RESULT:      -7.7      3.177      6.254
REMARK  1 active torsions:
REMARK  status: ('A' for Active; 'I' for Inactive)
REMARK    1  A    between atoms: O1_2  and  C2_3 
ROOT
HETATM    1  C2  UNL     1      20.900   3.329  49.768  1.00  0.00     0.195 C 
HETATM    2  C3  UNL     1      19.784   2.393  49.350  1.00  0.00     0.008 C 
HETATM    3  C4  UNL     1      19.028   1.494  49.994  1.00  0.00    -0.008 C 
HETATM    4  C5  UNL     1      18.843   0.967  51.365  1.00  0.00     0.150 C 
HETATM    5  N1  UNL     1      19.944   0.099  51.781  1.00  0.00    -0.351 N 
HETATM    6  C6  UNL     1      21.291   0.383  51.473  1.00  0.00     0.243 C 
HETATM    7  N2  UNL     1      22.059   1.122  50.697  1.00  0.00    -0.211 NA
HETATM    8  C7  UNL     1      22.017   2.521  50.311  1.00  0.00     0.069 C 
HETATM    9  C8  UNL     1      23.115   3.290  50.434  1.00  0.00     0.023 C 
HETATM   10  C9  UNL     1      24.309   2.576  50.977  1.00  0.00     0.149 C 
HETATM   11  N3  UNL     1      24.708   3.175  52.218  1.00  0.00    -0.384 N 
HETATM   12  C10 UNL     1      25.694   2.390  52.948  1.00  0.00     0.061 C 
HETATM   13  C11 UNL     1      26.895   1.890  53.308  1.00  0.00    -0.016 C 
HETATM   14  C12 UNL     1      28.299   1.957  52.945  1.00  0.00     0.010 C 
HETATM   15  C13 UNL     1      28.970   0.965  53.567  1.00  0.00     0.000 C 
HETATM   16  C14 UNL     1      28.250   0.067  54.496  1.00  0.00    -0.003 C 
HETATM   17  C15 UNL     1      26.964   0.124  54.885  1.00  0.00    -0.011 C 
HETATM   18  C16 UNL     1      26.167   1.208  54.382  1.00  0.00     0.097 C 
HETATM   19  C17 UNL     1      24.965   1.244  53.669  1.00  0.00     0.070 C 
HETATM   20  N4  UNL     1      23.852   1.055  53.229  1.00  0.00    -0.265 NA
HETATM   21  C18 UNL     1      22.756   0.259  53.394  1.00  0.00     0.327 C 
HETATM   22  O2  UNL     1      22.273  -0.273  52.144  1.00  0.00    -0.299 OA
HETATM   23  H9  UNL     1      20.022  -0.783  52.306  1.00  0.00     0.163 HD
HETATM   24  H13 UNL     1      24.704   3.898  52.956  1.00  0.00     0.160 HD
ENDROOT
BRANCH   1  25
HETATM   25  O1  UNL     1      21.233   4.170  48.743  1.00  0.00    -0.381 OA
HETATM   26  C1  UNL     1      20.556   5.362  48.793  1.00  0.00     0.202 C 
ENDBRANCH   1  25
TORSDOF 1
ENDMDL
MODEL 6
REMARK VINA RESULT:      -7.6      3.072      6.774
REMARK  1 active torsions:
REMARK  status: ('A' for Active; 'I' for Inactive)
REMARK    1  A    between atoms: O1_2  and  C2_3 
ROOT
HETATM    1  C2  UNL     1      21.379   6.031  50.884  1.00  0.00     0.195 C 
HETATM    2  C3  UNL     1      20.461   5.908  49.685  1.00  0.00     0.008 C 
HETATM    3  C4  UNL     1      19.592   4.980  49.265  1.00  0.00    -0.008 C 
HETATM    4  C5  UNL     1      19.056   3.671  49.703  1.00  0.00     0.150 C 
HETATM    5  N1  UNL     1      20.032   2.593  49.558  1.00  0.00    -0.351 N 
HETATM    6  C6  UNL     1      21.400   2.761  49.862  1.00  0.00     0.243 C 
HETATM    7  N2  UNL     1      22.322   3.676  50.082  1.00  0.00    -0.211 NA
HETATM    8  C7  UNL     1      22.333   4.898  50.868  1.00  0.00     0.069 C 
HETATM    9  C8  UNL     1      23.323   5.125  51.752  1.00  0.00     0.023 C 
HETATM   10  C9  UNL     1      24.347   4.040  51.821  1.00  0.00     0.149 C 
HETATM   11  N3  UNL     1      24.362   3.473  53.139  1.00  0.00    -0.384 N 
HETATM   12  C10 UNL     1      25.138   2.244  53.231  1.00  0.00     0.061 C 
HETATM   13  C11 UNL     1      26.211   1.433  53.344  1.00  0.00    -0.016 C 
HETATM   14  C12 UNL     1      27.657   1.486  53.464  1.00  0.00     0.010 C 
HETATM   15  C13 UNL     1      28.169   0.254  53.265  1.00  0.00     0.000 C 
HETATM   16  C14 UNL     1      27.255  -0.887  53.034  1.00  0.00    -0.003 C 
HETATM   17  C15 UNL     1      25.911  -0.898  53.048  1.00  0.00    -0.011 C 
HETATM   18  C16 UNL     1      25.242   0.334  53.363  1.00  0.00     0.097 C 
HETATM   19  C17 UNL     1      24.284   1.089  52.680  1.00  0.00     0.070 C 
HETATM   20  N4  UNL     1      23.345   1.481  52.022  1.00  0.00    -0.265 NA
HETATM   21  C18 UNL     1      22.279   1.028  51.302  1.00  0.00     0.327 C 
HETATM   22  O2  UNL     1      22.182   1.662  50.010  1.00  0.00    -0.299 OA
HETATM   23  H9  UNL     1      19.997   1.610  49.252  1.00  0.00     0.163 HD
HETATM   24  H13 UNL     1      24.125   3.425  54.143  1.00  0.00     0.160 HD
ENDROOT
BRANCH   1  25
HETATM   25  O1  UNL     1      21.949   7.273  50.930  1.00  0.00    -0.381 OA
HETATM   26  C1  UNL     1      21.519   8.091  49.917  1.00  0.00     0.202 C 
ENDBRANCH   1  25
TORSDOF 1
ENDMDL
MODEL 7
REMARK VINA RESULT:      -7.6      3.022      6.988
REMARK  1 active torsions:
REMARK  status: ('A' for Active; 'I' for Inactive)
REMARK    1  A    between atoms: O1_2  and  C2_3 
ROOT
HETATM    1  C2  UNL     1      22.247   5.383  47.564  1.00  0.00     0.195 C 
HETATM    2  C3  UNL     1      21.257   4.945  46.504  1.00  0.00     0.008 C 
HETATM    3  C4  UNL     1      20.145   4.198  46.515  1.00  0.00    -0.008 C 
HETATM    4  C5  UNL     1      19.303   3.463  47.485  1.00  0.00     0.150 C 
HETATM    5  N1  UNL     1      19.939   2.234  47.956  1.00  0.00    -0.351 N 
HETATM    6  C6  UNL     1      21.317   2.157  48.249  1.00  0.00     0.243 C 
HETATM    7  N2  UNL     1      22.465   2.781  48.074  1.00  0.00    -0.211 NA
HETATM    8  C7  UNL     1      22.855   4.176  48.172  1.00  0.00     0.069 C 
HETATM    9  C8  UNL     1      23.922   4.530  48.913  1.00  0.00     0.023 C 
HETATM   10  C9  UNL     1      24.616   3.387  49.577  1.00  0.00     0.149 C 
HETATM   11  N3  UNL     1      24.559   3.549  51.002  1.00  0.00    -0.384 N 
HETATM   12  C10 UNL     1      24.977   2.362  51.736  1.00  0.00     0.061 C 
HETATM   13  C11 UNL     1      25.795   1.456  52.311  1.00  0.00    -0.016 C 
HETATM   14  C12 UNL     1      27.206   1.173  52.505  1.00  0.00     0.010 C 
HETATM   15  C13 UNL     1      27.351  -0.087  52.965  1.00  0.00     0.000 C 
HETATM   16  C14 UNL     1      26.151  -0.906  53.240  1.00  0.00    -0.003 C 
HETATM   17  C15 UNL     1      24.857  -0.551  53.150  1.00  0.00    -0.011 C 
HETATM   18  C16 UNL     1      24.567   0.807  52.779  1.00  0.00     0.097 C 
HETATM   19  C17 UNL     1      23.809   1.361  51.743  1.00  0.00     0.070 C 
HETATM   20  N4  UNL     1      22.973   1.619  50.905  1.00  0.00    -0.265 NA
HETATM   21  C18 UNL     1      21.782   1.176  50.410  1.00  0.00     0.327 C 
HETATM   22  O2  UNL     1      21.781   1.104  48.970  1.00  0.00    -0.299 OA
HETATM   23  H9  UNL     1      19.620   1.276  48.160  1.00  0.00     0.163 HD
HETATM   24  H13 UNL     1      24.380   4.058  51.882  1.00  0.00     0.160 HD
ENDROOT
BRANCH   1  25
HETATM   25  O1  UNL     1      23.134   6.288  47.051  1.00  0.00    -0.381 OA
HETATM   26  C1  UNL     1      22.620   7.558  46.990  1.00  0.00     0.202 C 
ENDBRANCH   1  25
TORSDOF 1
ENDMDL
MODEL 8
REMARK VINA RESULT:      -7.5      2.237      3.181
REMARK  1 active torsions:
REMARK  status: ('A' for Active; 'I' for Inactive)
REMARK    1  A    between atoms: O1_2  and  C2_3 
ROOT
HETATM    1  C2  UNL     1      27.323   1.432  52.614  1.00  0.00     0.195 C 
HETATM    2  C3  UNL     1      27.084   0.823  53.980  1.00  0.00     0.008 C 
HETATM    3  C4  UNL     1      26.213  -0.072  54.465  1.00  0.00    -0.008 C 
HETATM    4  C5  UNL     1      25.104  -0.926  53.983  1.00  0.00     0.150 C 
HETATM    5  N1  UNL     1      23.898  -0.155  53.684  1.00  0.00    -0.351 N 
HETATM    6  C6  UNL     1      23.941   1.106  53.053  1.00  0.00     0.243 C 
HETATM    7  N2  UNL     1      24.751   2.098  52.742  1.00  0.00    -0.211 NA
HETATM    8  C7  UNL     1      26.093   2.141  52.189  1.00  0.00     0.069 C 
HETATM    9  C8  UNL     1      26.361   2.912  51.119  1.00  0.00     0.023 C 
HETATM   10  C9  UNL     1      25.186   3.676  50.602  1.00  0.00     0.149 C 
HETATM   11  N3  UNL     1      24.900   3.271  49.256  1.00  0.00    -0.384 N 
HETATM   12  C10 UNL     1      23.623   3.766  48.762  1.00  0.00     0.061 C 
HETATM   13  C11 UNL     1      22.717   4.615  48.234  1.00  0.00    -0.016 C 
HETATM   14  C12 UNL     1      22.600   5.974  47.738  1.00  0.00     0.010 C 
HETATM   15  C13 UNL     1      21.296   6.287  47.590  1.00  0.00     0.000 C 
HETATM   16  C14 UNL     1      20.264   5.266  47.873  1.00  0.00    -0.003 C 
HETATM   17  C15 UNL     1      20.435   3.979  48.222  1.00  0.00    -0.011 C 
HETATM   18  C16 UNL     1      21.783   3.487  48.301  1.00  0.00     0.097 C 
HETATM   19  C17 UNL     1      22.505   2.875  49.329  1.00  0.00     0.070 C 
HETATM   20  N4  UNL     1      22.877   2.209  50.271  1.00  0.00    -0.265 NA
HETATM   21  C18 UNL     1      22.434   1.284  51.170  1.00  0.00     0.327 C 
HETATM   22  O2  UNL     1      22.801   1.618  52.524  1.00  0.00    -0.299 OA
HETATM   23  H9  UNL     1      22.888  -0.293  53.826  1.00  0.00     0.163 HD
HETATM   24  H13 UNL     1      25.088   2.794  48.360  1.00  0.00     0.160 HD
ENDROOT
BRANCH   1  25
HETATM   25  O1  UNL     1      28.462   2.189  52.616  1.00  0.00    -0.381 OA
HETATM   26  C1  UNL     1      28.916   2.460  53.882  1.00  0.00     0.202 C 
ENDBRANCH   1  25
TORSDOF 1
ENDMDL
MODEL 9
REMARK VINA RESULT:      -7.5      2.595      4.538
REMARK  1 active torsions:
REMARK  status: ('A' for Active; 'I' for Inactive)
REMARK    1  A    between atoms: O1_2  and  C2_3 
ROOT
HETATM    1  C2  UNL     1      23.748   1.735  52.942  1.00  0.00     0.195 C 
HETATM    2  C3  UNL     1      24.906   0.873  52.481  1.00  0.00     0.008 C 
HETATM    3  C4  UNL     1      26.184   1.117  52.163  1.00  0.00    -0.008 C 
HETATM    4  C5  UNL     1      27.124   2.259  52.110  1.00  0.00     0.150 C 
HETATM    5  N1  UNL     1      26.842   3.160  50.994  1.00  0.00    -0.351 N 
HETATM    6  C6  UNL     1      25.529   3.505  50.610  1.00  0.00     0.243 C 
HETATM    7  N2  UNL     1      24.267   3.154  50.752  1.00  0.00    -0.211 NA
HETATM    8  C7  UNL     1      23.476   2.756  51.902  1.00  0.00     0.069 C 
HETATM    9  C8  UNL     1      22.295   3.353  52.152  1.00  0.00     0.023 C 
HETATM   10  C9  UNL     1      21.918   4.406  51.163  1.00  0.00     0.149 C 
HETATM   11  N3  UNL     1      21.808   5.675  51.825  1.00  0.00    -0.384 N 
HETATM   12  C10 UNL     1      21.701   6.799  50.906  1.00  0.00     0.061 C 
HETATM   13  C11 UNL     1      21.143   7.688  50.057  1.00  0.00    -0.016 C 
HETATM   14  C12 UNL     1      19.868   8.015  49.446  1.00  0.00     0.010 C 
HETATM   15  C13 UNL     1      20.063   8.903  48.449  1.00  0.00     0.000 C 
HETATM   16  C14 UNL     1      21.426   9.416  48.186  1.00  0.00    -0.003 C 
HETATM   17  C15 UNL     1      22.559   9.163  48.862  1.00  0.00    -0.011 C 
HETATM   18  C16 UNL     1      22.465   8.319  50.022  1.00  0.00     0.097 C 
HETATM   19  C17 UNL     1      23.108   7.130  50.378  1.00  0.00     0.070 C 
HETATM   20  N4  UNL     1      23.896   6.229  50.565  1.00  0.00    -0.265 NA
HETATM   21  C18 UNL     1      25.201   5.888  50.362  1.00  0.00     0.327 C 
HETATM   22  O2  UNL     1      25.340   4.571  49.791  1.00  0.00    -0.299 OA
HETATM   23  H9  UNL     1      27.413   3.685  50.316  1.00  0.00     0.163 HD
HETATM   24  H13 UNL     1      21.757   6.306  52.640  1.00  0.00     0.160 HD
ENDROOT
BRANCH   1  25
HETATM   25  O1  UNL     1      22.679   0.959  53.292  1.00  0.00    -0.381 OA
HETATM   26  C1  UNL     1      23.031  -0.337  53.566  1.00  0.00     0.202 C 
ENDBRANCH   1  25
TORSDOF 1
ENDMDL
