MODEL 1
REMARK VINA RESULT:      -8.0      0.000      0.000
REMARK  4 active torsions:
REMARK  status: ('A' for Active; 'I' for Inactive)
REMARK    1  A    between atoms: C5_5  and  C6_6 
REMARK       I    between atoms: C6_6  and  N1_8 
REMARK    2  A    between atoms: N1_8  and  S1_9 
REMARK    3  A    between atoms: S1_9  and  S2_11 
REMARK    4  A    between atoms: S1_9  and  C7_13 
ROOT
HETATM    1  C6  UNL     1      25.940   2.850  51.292  1.00  0.00     0.266 C 
HETATM    2  O1  UNL     1      25.127   1.863  51.311  1.00  0.00    -0.267 OA
HETATM    3  N1  UNL     1      27.030   2.759  52.244  1.00  0.00    -0.269 N 
HETATM    4  H6  UNL     1      27.677   3.584  52.203  1.00  0.00     0.180 HD
ENDROOT
BRANCH   3   5
HETATM    5  S1  UNL     1      27.368   1.582  53.332  1.00  0.00     0.143 S 
HETATM    6  O2  UNL     1      26.411   1.762  54.472  1.00  0.00    -0.231 OA
BRANCH   5   7
HETATM    7  S2  UNL     1      29.020   1.989  53.559  1.00  0.00     0.148 SA
HETATM    8  O3  UNL     1      28.970   2.490  54.666  1.00  0.00    -0.134 OA
ENDBRANCH   5   7
BRANCH   5   9
HETATM    9  C7  UNL     1      27.581  -0.024  53.086  1.00  0.00     0.051 A 
HETATM   10  C8  UNL     1      28.836  -0.582  53.428  1.00  0.00     0.023 A 
HETATM   11  C9  UNL     1      29.203  -1.894  53.303  1.00  0.00     0.001 A 
HETATM   12  C10 UNL     1      28.304  -2.781  52.807  1.00  0.00     0.000 A 
HETATM   13  C11 UNL     1      27.059  -2.401  52.435  1.00  0.00     0.001 A 
HETATM   14  C12 UNL     1      26.763  -1.063  52.591  1.00  0.00     0.023 A 
ENDBRANCH   5   9
ENDBRANCH   3   5
BRANCH   1  15
HETATM   15  C5  UNL     1      25.827   4.017  50.392  1.00  0.00     0.073 A 
HETATM   16  C4  UNL     1      26.894   4.171  49.501  1.00  0.00     0.022 A 
HETATM   17  C3  UNL     1      26.843   5.236  48.635  1.00  0.00     0.028 A 
HETATM   18  C2  UNL     1      25.743   6.075  48.709  1.00  0.00     0.032 A 
HETATM   19  C1  UNL     1      25.544   7.274  47.834  1.00  0.00     0.070 C 
HETATM   20  N2  UNL     1      24.739   5.866  49.603  1.00  0.00    -0.241 NA
HETATM   21  C13 UNL     1      24.747   4.832  50.473  1.00  0.00     0.142 A 
HETATM   22 CL1  UNL     1      23.450   4.567  51.624  1.00  0.00    -0.061 Cl
ENDBRANCH   1  15
TORSDOF 4
ENDMDL
MODEL 2
REMARK VINA RESULT:      -7.9      4.005      5.211
REMARK  4 active torsions:
REMARK  status: ('A' for Active; 'I' for Inactive)
REMARK    1  A    between atoms: C5_5  and  C6_6 
REMARK       I    between atoms: C6_6  and  N1_8 
REMARK    2  A    between atoms: N1_8  and  S1_9 
REMARK    3  A    between atoms: S1_9  and  S2_11 
REMARK    4  A    between atoms: S1_9  and  C7_13 
ROOT
HETATM    1  C6  UNL     1      23.572   1.465  52.934  1.00  0.00     0.266 C 
HETATM    2  O1  UNL     1      23.871   2.704  53.032  1.00  0.00    -0.267 OA
HETATM    3  N1  UNL     1      24.699   0.558  53.023  1.00  0.00    -0.269 N 
HETATM    4  H6  UNL     1      24.420  -0.450  52.938  1.00  0.00     0.180 HD
ENDROOT
BRANCH   3   5
HETATM    5  S1  UNL     1      26.291   0.890  53.231  1.00  0.00     0.143 S 
HETATM    6  O2  UNL     1      26.383   1.847  54.381  1.00  0.00    -0.231 OA
BRANCH   5   7
HETATM    7  S2  UNL     1      26.582   1.468  51.641  1.00  0.00     0.148 SA
HETATM    8  O3  UNL     1      27.307   2.414  51.883  1.00  0.00    -0.134 OA
ENDBRANCH   5   7
BRANCH   5   9
HETATM    9  C7  UNL     1      27.561  -0.141  53.315  1.00  0.00     0.051 A 
HETATM   10  C8  UNL     1      27.355  -1.476  52.892  1.00  0.00     0.023 A 
HETATM   11  C9  UNL     1      28.288  -2.477  52.881  1.00  0.00     0.001 A 
HETATM   12  C10 UNL     1      29.545  -2.206  53.309  1.00  0.00     0.000 A 
HETATM   13  C11 UNL     1      29.899  -0.974  53.744  1.00  0.00     0.001 A 
HETATM   14  C12 UNL     1      28.906  -0.018  53.726  1.00  0.00     0.023 A 
ENDBRANCH   5   9
ENDBRANCH   3   5
BRANCH   1  15
HETATM   15  C5  UNL     1      22.203   0.941  52.745  1.00  0.00     0.073 A 
HETATM   16  C4  UNL     1      21.597   0.458  53.910  1.00  0.00     0.022 A 
HETATM   17  C3  UNL     1      20.321  -0.037  53.797  1.00  0.00     0.028 A 
HETATM   18  C2  UNL     1      19.732  -0.022  52.544  1.00  0.00     0.032 A 
HETATM   19  C1  UNL     1      18.349  -0.525  52.263  1.00  0.00     0.070 C 
HETATM   20  N2  UNL     1      20.380   0.463  51.451  1.00  0.00    -0.241 NA
HETATM   21  C13 UNL     1      21.635   0.960  51.513  1.00  0.00     0.142 A 
HETATM   22 CL1  UNL     1      22.468   1.585  50.102  1.00  0.00    -0.061 Cl
ENDBRANCH   1  15
TORSDOF 4
ENDMDL
MODEL 3
REMARK VINA RESULT:      -7.9      4.118      5.161
REMARK  4 active torsions:
REMARK  status: ('A' for Active; 'I' for Inactive)
REMARK    1  A    between atoms: C5_5  and  C6_6 
REMARK       I    between atoms: C6_6  and  N1_8 
REMARK    2  A    between atoms: N1_8  and  S1_9 
REMARK    3  A    between atoms: S1_9  and  S2_11 
REMARK    4  A    between atoms: S1_9  and  C7_13 
ROOT
HETATM    1  C6  UNL     1      23.703   0.219  53.089  1.00  0.00     0.266 C 
HETATM    2  O1  UNL     1      24.171  -0.632  53.921  1.00  0.00    -0.267 OA
HETATM    3  N1  UNL     1      24.649   1.227  52.653  1.00  0.00    -0.269 N 
HETATM    4  H6  UNL     1      24.233   1.910  51.973  1.00  0.00     0.180 HD
ENDROOT
BRANCH   3   5
HETATM    5  S1  UNL     1      26.220   1.432  53.069  1.00  0.00     0.143 S 
HETATM    6  O2  UNL     1      26.230   2.250  54.324  1.00  0.00    -0.231 OA
BRANCH   5   7
HETATM    7  S2  UNL     1      26.722   2.159  51.597  1.00  0.00     0.148 SA
HETATM    8  O3  UNL     1      25.646   2.305  51.049  1.00  0.00    -0.134 OA
ENDBRANCH   5   7
BRANCH   5   9
HETATM    9  C7  UNL     1      27.418   0.317  53.170  1.00  0.00     0.051 A 
HETATM   10  C8  UNL     1      28.712   0.771  53.521  1.00  0.00     0.023 A 
HETATM   11  C9  UNL     1      29.832  -0.002  53.660  1.00  0.00     0.001 A 
HETATM   12  C10 UNL     1      29.737  -1.338  53.451  1.00  0.00     0.000 A 
HETATM   13  C11 UNL     1      28.565  -1.924  53.110  1.00  0.00     0.001 A 
HETATM   14  C12 UNL     1      27.480  -1.081  52.988  1.00  0.00     0.023 A 
ENDBRANCH   5   9
ENDBRANCH   3   5
BRANCH   1  15
HETATM   15  C5  UNL     1      22.316   0.222  52.578  1.00  0.00     0.073 A 
HETATM   16  C4  UNL     1      22.186   0.633  51.247  1.00  0.00     0.022 A 
HETATM   17  C3  UNL     1      20.920   0.651  50.714  1.00  0.00     0.028 A 
HETATM   18  C2  UNL     1      19.871   0.264  51.532  1.00  0.00     0.032 A 
HETATM   19  C1  UNL     1      18.439   0.230  51.095  1.00  0.00     0.070 C 
HETATM   20  N2  UNL     1      20.070  -0.125  52.820  1.00  0.00    -0.241 NA
HETATM   21  C13 UNL     1      21.296  -0.159  53.386  1.00  0.00     0.142 A 
HETATM   22 CL1  UNL     1      21.548  -0.660  55.048  1.00  0.00    -0.061 Cl
ENDBRANCH   1  15
TORSDOF 4
ENDMDL
MODEL 4
REMARK VINA RESULT:      -7.6      1.758      2.029
REMARK  4 active torsions:
REMARK  status: ('A' for Active; 'I' for Inactive)
REMARK    1  A    between atoms: C5_5  and  C6_6 
REMARK       I    between atoms: C6_6  and  N1_8 
REMARK    2  A    between atoms: N1_8  and  S1_9 
REMARK    3  A    between atoms: S1_9  and  S2_11 
REMARK    4  A    between atoms: S1_9  and  C7_13 
ROOT
HETATM    1  C6  UNL     1      24.812   2.282  52.155  1.00  0.00     0.266 C 
HETATM    2  O1  UNL     1      24.226   1.250  52.629  1.00  0.00    -0.267 OA
HETATM    3  N1  UNL     1      26.186   2.453  52.584  1.00  0.00    -0.269 N 
HETATM    4  H6  UNL     1      26.637   3.309  52.178  1.00  0.00     0.180 HD
ENDROOT
BRANCH   3   5
HETATM    5  S1  UNL     1      27.090   1.519  53.582  1.00  0.00     0.143 S 
HETATM    6  O2  UNL     1      26.441   1.579  54.932  1.00  0.00    -0.231 OA
BRANCH   5   7
HETATM    7  S2  UNL     1      28.575   2.343  53.334  1.00  0.00     0.148 SA
HETATM    8  O3  UNL     1      28.914   2.532  54.486  1.00  0.00    -0.134 OA
ENDBRANCH   5   7
BRANCH   5   9
HETATM    9  C7  UNL     1      27.653  -0.002  53.347  1.00  0.00     0.051 A 
HETATM   10  C8  UNL     1      26.760  -0.960  52.810  1.00  0.00     0.023 A 
HETATM   11  C9  UNL     1      27.043  -2.271  52.538  1.00  0.00     0.001 A 
HETATM   12  C10 UNL     1      28.290  -2.739  52.795  1.00  0.00     0.000 A 
HETATM   13  C11 UNL     1      29.258  -1.943  53.310  1.00  0.00     0.001 A 
HETATM   14  C12 UNL     1      28.897  -0.636  53.557  1.00  0.00     0.023 A 
ENDBRANCH   5   9
ENDBRANCH   3   5
BRANCH   1  15
HETATM   15  C5  UNL     1      24.187   3.258  51.237  1.00  0.00     0.073 A 
HETATM   16  C4  UNL     1      24.190   2.877  49.891  1.00  0.00     0.022 A 
HETATM   17  C3  UNL     1      23.618   3.742  48.991  1.00  0.00     0.028 A 
HETATM   18  C2  UNL     1      23.084   4.923  49.480  1.00  0.00     0.032 A 
HETATM   19  C1  UNL     1      22.429   5.963  48.625  1.00  0.00     0.070 C 
HETATM   20  N2  UNL     1      23.116   5.231  50.805  1.00  0.00    -0.241 NA
HETATM   21  C13 UNL     1      23.667   4.411  51.727  1.00  0.00     0.142 A 
HETATM   22 CL1  UNL     1      23.707   4.812  53.434  1.00  0.00    -0.061 Cl
ENDBRANCH   1  15
TORSDOF 4
ENDMDL
MODEL 5
REMARK VINA RESULT:      -7.3      2.518      3.071
REMARK  4 active torsions:
REMARK  status: ('A' for Active; 'I' for Inactive)
REMARK    1  A    between atoms: C5_5  and  C6_6 
REMARK       I    between atoms: C6_6  and  N1_8 
REMARK    2  A    between atoms: N1_8  and  S1_9 
REMARK    3  A    between atoms: S1_9  and  S2_11 
REMARK    4  A    between atoms: S1_9  and  C7_13 
ROOT
HETATM    1  C6  UNL     1      25.342   2.934  50.994  1.00  0.00     0.266 C 
HETATM    2  O1  UNL     1      24.316   2.219  50.727  1.00  0.00    -0.267 OA
HETATM    3  N1  UNL     1      26.087   2.516  52.164  1.00  0.00    -0.269 N 
HETATM    4  H6  UNL     1      26.921   3.124  52.355  1.00  0.00     0.180 HD
ENDROOT
BRANCH   3   5
HETATM    5  S1  UNL     1      25.807   1.267  53.187  1.00  0.00     0.143 S 
HETATM    6  O2  UNL     1      26.497   1.602  54.475  1.00  0.00    -0.231 OA
BRANCH   5   7
HETATM    7  S2  UNL     1      26.466   0.039  52.185  1.00  0.00     0.148 SA
HETATM    8  O3  UNL     1      27.528  -0.154  52.747  1.00  0.00    -0.134 OA
ENDBRANCH   5   7
BRANCH   5   9
HETATM    9  C7  UNL     1      24.395   0.514  53.539  1.00  0.00     0.051 A 
HETATM   10  C8  UNL     1      24.423  -0.522  54.503  1.00  0.00     0.023 A 
HETATM   11  C9  UNL     1      23.354  -1.260  54.932  1.00  0.00     0.001 A 
HETATM   12  C10 UNL     1      22.130  -1.006  54.408  1.00  0.00     0.000 A 
HETATM   13  C11 UNL     1      21.940  -0.044  53.475  1.00  0.00     0.001 A 
HETATM   14  C12 UNL     1      23.063   0.658  53.093  1.00  0.00     0.023 A 
ENDBRANCH   5   9
ENDBRANCH   3   5
BRANCH   1  15
HETATM   15  C5  UNL     1      25.780   4.105  50.205  1.00  0.00     0.073 A 
HETATM   16  C4  UNL     1      26.900   3.878  49.399  1.00  0.00     0.022 A 
HETATM   17  C3  UNL     1      27.351   4.929  48.638  1.00  0.00     0.028 A 
HETATM   18  C2  UNL     1      26.668   6.130  48.727  1.00  0.00     0.032 A 
HETATM   19  C1  UNL     1      27.038   7.363  47.960  1.00  0.00     0.070 C 
HETATM   20  N2  UNL     1      25.584   6.281  49.534  1.00  0.00    -0.241 NA
HETATM   21  C13 UNL     1      25.103   5.277  50.299  1.00  0.00     0.142 A 
HETATM   22 CL1  UNL     1      23.706   5.476  51.340  1.00  0.00    -0.061 Cl
ENDBRANCH   1  15
TORSDOF 4
ENDMDL
MODEL 6
REMARK VINA RESULT:      -7.0      4.025      7.401
REMARK  4 active torsions:
REMARK  status: ('A' for Active; 'I' for Inactive)
REMARK    1  A    between atoms: C5_5  and  C6_6 
REMARK       I    between atoms: C6_6  and  N1_8 
REMARK    2  A    between atoms: N1_8  and  S1_9 
REMARK    3  A    between atoms: S1_9  and  S2_11 
REMARK    4  A    between atoms: S1_9  and  C7_13 
ROOT
HETATM    1  C6  UNL     1      23.344   2.827  52.095  1.00  0.00     0.266 C 
HETATM    2  O1  UNL     1      24.077   3.702  52.671  1.00  0.00    -0.267 OA
HETATM    3  N1  UNL     1      22.974   3.145  50.730  1.00  0.00    -0.269 N 
HETATM    4  H6  UNL     1      22.373   2.407  50.288  1.00  0.00     0.180 HD
ENDROOT
BRANCH   3   5
HETATM    5  S1  UNL     1      23.358   4.456  49.825  1.00  0.00     0.143 S 
HETATM    6  O2  UNL     1      22.629   5.620  50.424  1.00  0.00    -0.231 OA
BRANCH   5   7
HETATM    7  S2  UNL     1      22.822   3.822  48.322  1.00  0.00     0.148 SA
HETATM    8  O3  UNL     1      22.900   2.630  48.548  1.00  0.00    -0.134 OA
ENDBRANCH   5   7
BRANCH   5   9
HETATM    9  C7  UNL     1      24.830   4.971  49.322  1.00  0.00     0.051 A 
HETATM   10  C8  UNL     1      25.914   4.068  49.425  1.00  0.00     0.023 A 
HETATM   11  C9  UNL     1      27.209   4.310  49.054  1.00  0.00     0.001 A 
HETATM   12  C10 UNL     1      27.527   5.520  48.533  1.00  0.00     0.000 A 
HETATM   13  C11 UNL     1      26.598   6.492  48.370  1.00  0.00     0.001 A 
HETATM   14  C12 UNL     1      25.315   6.175  48.766  1.00  0.00     0.023 A 
ENDBRANCH   5   9
ENDBRANCH   3   5
BRANCH   1  15
HETATM   15  C5  UNL     1      22.882   1.571  52.723  1.00  0.00     0.073 A 
HETATM   16  C4  UNL     1      21.529   1.561  53.079  1.00  0.00     0.022 A 
HETATM   17  C3  UNL     1      21.040   0.417  53.662  1.00  0.00     0.028 A 
HETATM   18  C2  UNL     1      21.919  -0.635  53.855  1.00  0.00     0.032 A 
HETATM   19  C1  UNL     1      21.536  -1.944  54.476  1.00  0.00     0.070 C 
HETATM   20  N2  UNL     1      23.225  -0.557  53.484  1.00  0.00    -0.241 NA
HETATM   21  C13 UNL     1      23.751   0.546  52.906  1.00  0.00     0.142 A 
HETATM   22 CL1  UNL     1      25.436   0.643  52.430  1.00  0.00    -0.061 Cl
ENDBRANCH   1  15
TORSDOF 4
ENDMDL
MODEL 7
REMARK VINA RESULT:      -6.9      4.166      5.353
REMARK  4 active torsions:
REMARK  status: ('A' for Active; 'I' for Inactive)
REMARK    1  A    between atoms: C5_5  and  C6_6 
REMARK       I    between atoms: C6_6  and  N1_8 
REMARK    2  A    between atoms: N1_8  and  S1_9 
REMARK    3  A    between atoms: S1_9  and  S2_11 
REMARK    4  A    between atoms: S1_9  and  C7_13 
ROOT
HETATM    1  C6  UNL     1      24.071   3.163  51.013  1.00  0.00     0.266 C 
HETATM    2  O1  UNL     1      23.884   3.258  52.275  1.00  0.00    -0.267 OA
HETATM    3  N1  UNL     1      23.115   2.324  50.318  1.00  0.00    -0.269 N 
HETATM    4  H6  UNL     1      23.297   2.267  49.286  1.00  0.00     0.180 HD
ENDROOT
BRANCH   3   5
HETATM    5  S1  UNL     1      21.837   1.488  50.912  1.00  0.00     0.143 S 
HETATM    6  O2  UNL     1      21.431   0.512  49.850  1.00  0.00    -0.231 OA
BRANCH   5   7
HETATM    7  S2  UNL     1      20.836   2.848  51.221  1.00  0.00     0.148 SA
HETATM    8  O3  UNL     1      19.961   2.665  50.396  1.00  0.00    -0.134 OA
ENDBRANCH   5   7
BRANCH   5   9
HETATM    9  C7  UNL     1      21.662   0.764  52.372  1.00  0.00     0.051 A 
HETATM   10  C8  UNL     1      22.677  -0.129  52.790  1.00  0.00     0.023 A 
HETATM   11  C9  UNL     1      22.714  -0.821  53.970  1.00  0.00     0.001 A 
HETATM   12  C10 UNL     1      21.697  -0.664  54.854  1.00  0.00     0.000 A 
HETATM   13  C11 UNL     1      20.652   0.158  54.598  1.00  0.00     0.001 A 
HETATM   14  C12 UNL     1      20.685   0.821  53.389  1.00  0.00     0.023 A 
ENDBRANCH   5   9
ENDBRANCH   3   5
BRANCH   1  15
HETATM   15  C5  UNL     1      25.159   3.833  50.270  1.00  0.00     0.073 A 
HETATM   16  C4  UNL     1      24.780   5.012  49.619  1.00  0.00     0.022 A 
HETATM   17  C3  UNL     1      25.750   5.683  48.916  1.00  0.00     0.028 A 
HETATM   18  C2  UNL     1      27.026   5.144  48.902  1.00  0.00     0.032 A 
HETATM   19  C1  UNL     1      28.187   5.758  48.181  1.00  0.00     0.070 C 
HETATM   20  N2  UNL     1      27.325   3.991  49.558  1.00  0.00    -0.241 NA
HETATM   21  C13 UNL     1      26.405   3.297  50.263  1.00  0.00     0.142 A 
HETATM   22 CL1  UNL     1      26.795   1.810  51.107  1.00  0.00    -0.061 Cl
ENDBRANCH   1  15
TORSDOF 4
ENDMDL
MODEL 8
REMARK VINA RESULT:      -6.8      2.118      2.629
REMARK  4 active torsions:
REMARK  status: ('A' for Active; 'I' for Inactive)
REMARK    1  A    between atoms: C5_5  and  C6_6 
REMARK       I    between atoms: C6_6  and  N1_8 
REMARK    2  A    between atoms: N1_8  and  S1_9 
REMARK    3  A    between atoms: S1_9  and  S2_11 
REMARK    4  A    between atoms: S1_9  and  C7_13 
ROOT
HETATM    1  C6  UNL     1      26.171   3.706  49.849  1.00  0.00     0.266 C 
HETATM    2  O1  UNL     1      26.889   2.743  49.413  1.00  0.00    -0.267 OA
HETATM    3  N1  UNL     1      25.536   3.461  51.129  1.00  0.00    -0.269 N 
HETATM    4  H6  UNL     1      24.953   4.270  51.457  1.00  0.00     0.180 HD
ENDROOT
BRANCH   3   5
HETATM    5  S1  UNL     1      25.606   2.136  52.090  1.00  0.00     0.143 S 
HETATM    6  O2  UNL     1      24.746   1.091  51.447  1.00  0.00    -0.231 OA
BRANCH   5   7
HETATM    7  S2  UNL     1      25.054   2.902  53.524  1.00  0.00     0.148 SA
HETATM    8  O3  UNL     1      24.150   3.580  53.074  1.00  0.00    -0.134 OA
ENDBRANCH   5   7
BRANCH   5   9
HETATM    9  C7  UNL     1      26.917   1.398  52.740  1.00  0.00     0.051 A 
HETATM   10  C8  UNL     1      27.881   2.211  53.382  1.00  0.00     0.023 A 
HETATM   11  C9  UNL     1      29.032   1.783  53.986  1.00  0.00     0.001 A 
HETATM   12  C10 UNL     1      29.314   0.457  53.992  1.00  0.00     0.000 A 
HETATM   13  C11 UNL     1      28.488  -0.450  53.418  1.00  0.00     0.001 A 
HETATM   14  C12 UNL     1      27.349   0.057  52.830  1.00  0.00     0.023 A 
ENDBRANCH   5   9
ENDBRANCH   3   5
BRANCH   1  15
HETATM   15  C5  UNL     1      25.969   4.991  49.147  1.00  0.00     0.073 A 
HETATM   16  C4  UNL     1      27.149   5.666  48.815  1.00  0.00     0.022 A 
HETATM   17  C3  UNL     1      27.024   6.864  48.155  1.00  0.00     0.028 A 
HETATM   18  C2  UNL     1      25.746   7.314  47.870  1.00  0.00     0.032 A 
HETATM   19  C1  UNL     1      25.449   8.598  47.158  1.00  0.00     0.070 C 
HETATM   20  N2  UNL     1      24.640   6.606  48.224  1.00  0.00    -0.241 NA
HETATM   21  C13 UNL     1      24.713   5.423  48.872  1.00  0.00     0.142 A 
HETATM   22 CL1  UNL     1      23.284   4.512  49.326  1.00  0.00    -0.061 Cl
ENDBRANCH   1  15
TORSDOF 4
ENDMDL
MODEL 9
REMARK VINA RESULT:      -6.8      5.391      7.558
REMARK  4 active torsions:
REMARK  status: ('A' for Active; 'I' for Inactive)
REMARK    1  A    between atoms: C5_5  and  C6_6 
REMARK       I    between atoms: C6_6  and  N1_8 
REMARK    2  A    between atoms: N1_8  and  S1_9 
REMARK    3  A    between atoms: S1_9  and  S2_11 
REMARK    4  A    between atoms: S1_9  and  C7_13 
ROOT
HETATM    1  C6  UNL     1      23.841   1.141  51.893  1.00  0.00     0.266 C 
HETATM    2  O1  UNL     1      23.794   1.739  50.764  1.00  0.00    -0.267 OA
HETATM    3  N1  UNL     1      22.566   0.648  52.375  1.00  0.00    -0.269 N 
HETATM    4  H6  UNL     1      22.640   0.164  53.303  1.00  0.00     0.180 HD
ENDROOT
BRANCH   3   5
HETATM    5  S1  UNL     1      21.083   0.747  51.686  1.00  0.00     0.143 S 
HETATM    6  O2  UNL     1      21.279   0.547  50.213  1.00  0.00    -0.231 OA
BRANCH   5   7
HETATM    7  S2  UNL     1      20.697   2.314  52.269  1.00  0.00     0.148 SA
HETATM    8  O3  UNL     1      20.746   2.950  51.234  1.00  0.00    -0.134 OA
ENDBRANCH   5   7
BRANCH   5   9
HETATM    9  C7  UNL     1      19.686   0.011  52.125  1.00  0.00     0.051 A 
HETATM   10  C8  UNL     1      18.574   0.140  51.259  1.00  0.00     0.023 A 
HETATM   11  C9  UNL     1      17.331  -0.403  51.448  1.00  0.00     0.001 A 
HETATM   12  C10 UNL     1      17.103  -1.144  52.560  1.00  0.00     0.000 A 
HETATM   13  C11 UNL     1      18.069  -1.360  53.484  1.00  0.00     0.001 A 
HETATM   14  C12 UNL     1      19.293  -0.782  53.225  1.00  0.00     0.023 A 
ENDBRANCH   5   9
ENDBRANCH   3   5
BRANCH   1  15
HETATM   15  C5  UNL     1      25.071   0.937  52.687  1.00  0.00     0.073 A 
HETATM   16  C4  UNL     1      25.667  -0.318  52.528  1.00  0.00     0.022 A 
HETATM   17  C3  UNL     1      26.818  -0.564  53.237  1.00  0.00     0.028 A 
HETATM   18  C2  UNL     1      27.298   0.445  54.055  1.00  0.00     0.032 A 
HETATM   19  C1  UNL     1      28.538   0.328  54.889  1.00  0.00     0.070 C 
HETATM   20  N2  UNL     1      26.666   1.644  54.164  1.00  0.00    -0.241 NA
HETATM   21  C13 UNL     1      25.534   1.932  53.485  1.00  0.00     0.142 A 
HETATM   22 CL1  UNL     1      24.722   3.479  53.629  1.00  0.00    -0.061 Cl
ENDBRANCH   1  15
TORSDOF 4
ENDMDL
