MODEL 1
REMARK VINA RESULT:      -8.0      0.000      0.000
REMARK  2 active torsions:
REMARK  status: ('A' for Active; 'I' for Inactive)
REMARK    1  A    between atoms: C2_2  and  C3_3 
REMARK    2  A    between atoms: C9_9  and  C10_10 
ROOT
HETATM    1  C3  UNL     1      20.197   0.133  52.570  1.00  0.00    -0.046 C 
HETATM    2  C4  UNL     1      20.656   0.151  53.819  1.00  0.00    -0.019 C 
HETATM    3  C5  UNL     1      21.851  -0.419  53.865  1.00  0.00     0.012 C 
HETATM    4  C6  UNL     1      22.934   0.278  53.200  1.00  0.00    -0.003 C 
HETATM    5  C7  UNL     1      23.646   1.403  52.971  1.00  0.00    -0.026 C 
HETATM    6  C8  UNL     1      24.626   2.425  52.490  1.00  0.00     0.040 C 
HETATM    7  C9  UNL     1      23.890   3.559  51.753  1.00  0.00     0.007 A 
HETATM    8  C14 UNL     1      23.422   4.705  52.705  1.00  0.00     0.031 A 
HETATM    9  C15 UNL     1      22.552   3.637  52.251  1.00  0.00     0.024 A 
HETATM   10  C16 UNL     1      22.188   2.566  51.651  1.00  0.00     0.044 C 
HETATM   11 CL1  UNL     1      20.525   2.670  52.314  1.00  0.00    -0.086 Cl
HETATM   12  C17 UNL     1      21.721   1.372  51.081  1.00  0.00     0.053 C 
HETATM   13 CL2  UNL     1      22.460   1.596  49.541  1.00  0.00    -0.083 Cl
HETATM   14  C18 UNL     1      20.945   0.344  51.336  1.00  0.00     0.033 C 
ENDROOT
BRANCH   7  15
HETATM   15  C10 UNL     1      24.572   4.164  50.596  1.00  0.00     0.158 C 
HETATM   16  C11 UNL     1      25.707   3.392  50.031  1.00  0.00     0.030 C 
HETATM   17  C12 UNL     1      26.578   4.099  49.327  1.00  0.00     0.136 C 
HETATM   18  O1  UNL     1      26.410   5.467  49.152  1.00  0.00    -0.338 OA
HETATM   19  C13 UNL     1      25.262   6.135  49.636  1.00  0.00     0.344 C 
HETATM   20  O2  UNL     1      24.866   5.493  50.810  1.00  0.00    -0.357 OA
ENDBRANCH   7  15
BRANCH   1  21
HETATM   21  C2  UNL     1      18.757  -0.141  52.337  1.00  0.00     0.035 C 
HETATM   22  C1  UNL     1      18.199  -1.244  53.189  1.00  0.00     0.010 C 
ENDBRANCH   1  21
TORSDOF 2
ENDMDL
MODEL 2
REMARK VINA RESULT:      -7.9      2.848      4.134
REMARK  2 active torsions:
REMARK  status: ('A' for Active; 'I' for Inactive)
REMARK    1  A    between atoms: C2_2  and  C3_3 
REMARK    2  A    between atoms: C9_9  and  C10_10 
ROOT
HETATM    1  C3  UNL     1      20.311   2.087  50.653  1.00  0.00    -0.046 C 
HETATM    2  C4  UNL     1      20.462   3.406  50.571  1.00  0.00    -0.019 C 
HETATM    3  C5  UNL     1      20.577   3.920  51.787  1.00  0.00     0.012 C 
HETATM    4  C6  UNL     1      21.777   3.584  52.528  1.00  0.00    -0.003 C 
HETATM    5  C7  UNL     1      23.121   3.481  52.608  1.00  0.00    -0.026 C 
HETATM    6  C8  UNL     1      24.533   3.244  53.041  1.00  0.00     0.040 C 
HETATM    7  C9  UNL     1      25.189   2.176  52.148  1.00  0.00     0.007 A 
HETATM    8  C14 UNL     1      25.861   2.774  50.870  1.00  0.00     0.031 A 
HETATM    9  C15 UNL     1      24.537   2.179  50.875  1.00  0.00     0.024 A 
HETATM   10  C16 UNL     1      23.480   1.620  51.332  1.00  0.00     0.044 C 
HETATM   11 CL1  UNL     1      22.674   1.665  49.732  1.00  0.00    -0.086 Cl
HETATM   12  C17 UNL     1      22.263   1.068  51.759  1.00  0.00     0.053 C 
HETATM   13 CL2  UNL     1      22.951  -0.146  52.770  1.00  0.00    -0.083 Cl
HETATM   14  C18 UNL     1      20.967   1.163  51.571  1.00  0.00     0.033 C 
ENDROOT
BRANCH   7  15
HETATM   15  C10 UNL     1      26.145   1.256  52.789  1.00  0.00     0.158 C 
HETATM   16  C11 UNL     1      26.429  -0.003  52.056  1.00  0.00     0.030 C 
HETATM   17  C12 UNL     1      26.897  -0.996  52.797  1.00  0.00     0.136 C 
HETATM   18  O1  UNL     1      27.096  -0.833  54.163  1.00  0.00    -0.338 OA
HETATM   19  C13 UNL     1      26.895   0.417  54.792  1.00  0.00     0.344 C 
HETATM   20  O2  UNL     1      25.856   1.062  54.122  1.00  0.00    -0.357 OA
ENDBRANCH   7  15
BRANCH   1  21
HETATM   21  C2  UNL     1      19.362   1.414  49.730  1.00  0.00     0.035 C 
HETATM   22  C1  UNL     1      18.389   0.499  50.417  1.00  0.00     0.010 C 
ENDBRANCH   1  21
TORSDOF 2
ENDMDL
MODEL 3
REMARK VINA RESULT:      -7.8      2.885      5.499
REMARK  2 active torsions:
REMARK  status: ('A' for Active; 'I' for Inactive)
REMARK    1  A    between atoms: C2_2  and  C3_3 
REMARK    2  A    between atoms: C9_9  and  C10_10 
ROOT
HETATM    1  C3  UNL     1      26.887   0.837  53.223  1.00  0.00    -0.046 C 
HETATM    2  C4  UNL     1      26.516  -0.420  52.996  1.00  0.00    -0.019 C 
HETATM    3  C5  UNL     1      25.600  -0.784  53.882  1.00  0.00     0.012 C 
HETATM    4  C6  UNL     1      24.308  -0.130  53.793  1.00  0.00    -0.003 C 
HETATM    5  C7  UNL     1      23.237   0.268  53.072  1.00  0.00    -0.026 C 
HETATM    6  C8  UNL     1      21.939   0.841  52.603  1.00  0.00     0.040 C 
HETATM    7  C9  UNL     1      22.192   1.940  51.555  1.00  0.00     0.007 A 
HETATM    8  C14 UNL     1      22.278   1.386  50.097  1.00  0.00     0.031 A 
HETATM    9  C15 UNL     1      23.442   1.679  50.911  1.00  0.00     0.024 A 
HETATM   10  C16 UNL     1      24.127   2.037  51.932  1.00  0.00     0.044 C 
HETATM   11 CL1  UNL     1      25.679   1.673  51.113  1.00  0.00    -0.086 Cl
HETATM   12  C17 UNL     1      24.952   2.350  53.023  1.00  0.00     0.053 C 
HETATM   13 CL2  UNL     1      24.102   3.771  53.500  1.00  0.00    -0.083 Cl
HETATM   14  C18 UNL     1      26.050   1.961  53.628  1.00  0.00     0.033 C 
ENDROOT
BRANCH   7  15
HETATM   15  C10 UNL     1      21.283   3.099  51.560  1.00  0.00     0.158 C 
HETATM   16  C11 UNL     1      19.867   2.815  51.904  1.00  0.00     0.030 C 
HETATM   17  C12 UNL     1      18.991   3.714  51.481  1.00  0.00     0.136 C 
HETATM   18  O1  UNL     1      19.405   4.832  50.767  1.00  0.00    -0.338 OA
HETATM   19  C13 UNL     1      20.776   5.098  50.547  1.00  0.00     0.344 C 
HETATM   20  O2  UNL     1      21.428   3.871  50.428  1.00  0.00    -0.357 OA
ENDBRANCH   7  15
BRANCH   1  21
HETATM   21  C2  UNL     1      28.318   1.202  53.074  1.00  0.00     0.035 C 
HETATM   22  C1  UNL     1      28.682   2.514  53.708  1.00  0.00     0.010 C 
ENDBRANCH   1  21
TORSDOF 2
ENDMDL
MODEL 4
REMARK VINA RESULT:      -7.7      3.989      5.510
REMARK  2 active torsions:
REMARK  status: ('A' for Active; 'I' for Inactive)
REMARK    1  A    between atoms: C2_2  and  C3_3 
REMARK    2  A    between atoms: C9_9  and  C10_10 
ROOT
HETATM    1  C3  UNL     1      23.166   2.989  51.562  1.00  0.00    -0.046 C 
HETATM    2  C4  UNL     1      22.220   2.447  52.324  1.00  0.00    -0.019 C 
HETATM    3  C5  UNL     1      22.043   1.179  51.984  1.00  0.00     0.012 C 
HETATM    4  C6  UNL     1      23.134   0.267  52.268  1.00  0.00    -0.003 C 
HETATM    5  C7  UNL     1      24.049  -0.246  53.118  1.00  0.00    -0.026 C 
HETATM    6  C8  UNL     1      25.153  -1.020  53.764  1.00  0.00     0.040 C 
HETATM    7  C9  UNL     1      26.277  -0.068  54.213  1.00  0.00     0.007 A 
HETATM    8  C14 UNL     1      26.062   0.498  55.653  1.00  0.00     0.031 A 
HETATM    9  C15 UNL     1      25.714   1.226  54.447  1.00  0.00     0.024 A 
HETATM   10  C16 UNL     1      25.559   1.467  53.199  1.00  0.00     0.044 C 
HETATM   11 CL1  UNL     1      24.829   3.071  53.522  1.00  0.00    -0.086 Cl
HETATM   12  C17 UNL     1      25.298   1.787  51.858  1.00  0.00     0.053 C 
HETATM   13 CL2  UNL     1      26.793   1.207  51.229  1.00  0.00    -0.083 Cl
HETATM   14  C18 UNL     1      24.405   2.376  51.096  1.00  0.00     0.033 C 
ENDROOT
BRANCH   7  15
HETATM   15  C10 UNL     1      27.660  -0.561  54.108  1.00  0.00     0.158 C 
HETATM   16  C11 UNL     1      28.720   0.477  54.043  1.00  0.00     0.030 C 
HETATM   17  C12 UNL     1      29.866   0.083  53.508  1.00  0.00     0.136 C 
HETATM   18  O1  UNL     1      30.028  -1.219  53.050  1.00  0.00    -0.338 OA
HETATM   19  C13 UNL     1      29.016  -2.191  53.221  1.00  0.00     0.344 C 
HETATM   20  O2  UNL     1      27.787  -1.536  53.143  1.00  0.00    -0.357 OA
ENDBRANCH   7  15
BRANCH   1  21
HETATM   21  C2  UNL     1      22.994   4.384  51.085  1.00  0.00     0.035 C 
HETATM   22  C1  UNL     1      21.839   5.107  51.716  1.00  0.00     0.010 C 
ENDBRANCH   1  21
TORSDOF 2
ENDMDL
MODEL 5
REMARK VINA RESULT:      -7.7      2.896      4.793
REMARK  2 active torsions:
REMARK  status: ('A' for Active; 'I' for Inactive)
REMARK    1  A    between atoms: C2_2  and  C3_3 
REMARK    2  A    between atoms: C9_9  and  C10_10 
ROOT
HETATM    1  C3  UNL     1      26.099   0.823  53.594  1.00  0.00    -0.046 C 
HETATM    2  C4  UNL     1      25.676  -0.255  52.938  1.00  0.00    -0.019 C 
HETATM    3  C5  UNL     1      24.398  -0.473  53.212  1.00  0.00     0.012 C 
HETATM    4  C6  UNL     1      23.447   0.503  52.712  1.00  0.00    -0.003 C 
HETATM    5  C7  UNL     1      22.949   1.254  51.706  1.00  0.00    -0.026 C 
HETATM    6  C8  UNL     1      22.164   2.201  50.858  1.00  0.00     0.040 C 
HETATM    7  C9  UNL     1      23.079   3.317  50.321  1.00  0.00     0.007 A 
HETATM    8  C14 UNL     1      23.769   2.945  48.969  1.00  0.00     0.031 A 
HETATM    9  C15 UNL     1      24.419   2.819  50.260  1.00  0.00     0.024 A 
HETATM   10  C16 UNL     1      24.569   2.855  51.531  1.00  0.00     0.044 C 
HETATM   11 CL1  UNL     1      26.235   2.201  51.428  1.00  0.00    -0.086 Cl
HETATM   12  C17 UNL     1      24.798   2.803  52.914  1.00  0.00     0.053 C 
HETATM   13 CL2  UNL     1      24.082   4.327  53.282  1.00  0.00    -0.083 Cl
HETATM   14  C18 UNL     1      25.378   2.068  53.834  1.00  0.00     0.033 C 
ENDROOT
BRANCH   7  15
HETATM   15  C10 UNL     1      22.497   4.663  50.193  1.00  0.00     0.158 C 
HETATM   16  C11 UNL     1      23.441   5.799  50.349  1.00  0.00     0.030 C 
HETATM   17  C12 UNL     1      22.886   6.954  50.684  1.00  0.00     0.136 C 
HETATM   18  O1  UNL     1      21.512   7.058  50.868  1.00  0.00    -0.338 OA
HETATM   19  C13 UNL     1      20.652   5.965  50.617  1.00  0.00     0.344 C 
HETATM   20  O2  UNL     1      21.347   4.799  50.939  1.00  0.00    -0.357 OA
ENDBRANCH   7  15
BRANCH   1  21
HETATM   21  C2  UNL     1      27.460   0.816  54.186  1.00  0.00     0.035 C 
HETATM   22  C1  UNL     1      28.393  -0.179  53.560  1.00  0.00     0.010 C 
ENDBRANCH   1  21
TORSDOF 2
ENDMDL
MODEL 6
REMARK VINA RESULT:      -7.5      3.327      6.173
REMARK  2 active torsions:
REMARK  status: ('A' for Active; 'I' for Inactive)
REMARK    1  A    between atoms: C2_2  and  C3_3 
REMARK    2  A    between atoms: C9_9  and  C10_10 
ROOT
HETATM    1  C3  UNL     1      24.317   6.028  48.595  1.00  0.00    -0.046 C 
HETATM    2  C4  UNL     1      23.013   5.805  48.451  1.00  0.00    -0.019 C 
HETATM    3  C5  UNL     1      22.821   4.629  47.871  1.00  0.00     0.012 C 
HETATM    4  C6  UNL     1      23.184   3.454  48.640  1.00  0.00    -0.003 C 
HETATM    5  C7  UNL     1      23.135   2.731  49.780  1.00  0.00    -0.026 C 
HETATM    6  C8  UNL     1      23.296   1.697  50.848  1.00  0.00     0.040 C 
HETATM    7  C9  UNL     1      24.006   2.304  52.072  1.00  0.00     0.007 A 
HETATM    8  C14 UNL     1      23.019   2.958  53.091  1.00  0.00     0.031 A 
HETATM    9  C15 UNL     1      23.755   3.713  52.095  1.00  0.00     0.024 A 
HETATM   10  C16 UNL     1      24.542   3.944  51.111  1.00  0.00     0.044 C 
HETATM   11 CL1  UNL     1      24.186   5.700  51.142  1.00  0.00    -0.086 Cl
HETATM   12  C17 UNL     1      25.334   4.279  50.003  1.00  0.00     0.053 C 
HETATM   13 CL2  UNL     1      26.672   3.275  50.416  1.00  0.00    -0.083 Cl
HETATM   14  C18 UNL     1      25.357   5.071  48.956  1.00  0.00     0.033 C 
ENDROOT
BRANCH   7  15
HETATM   15  C10 UNL     1      24.933   1.434  52.814  1.00  0.00     0.158 C 
HETATM   16  C11 UNL     1      25.927   2.123  53.675  1.00  0.00     0.030 C 
HETATM   17  C12 UNL     1      27.008   1.416  53.969  1.00  0.00     0.136 C 
HETATM   18  O1  UNL     1      27.166   0.123  53.487  1.00  0.00    -0.338 OA
HETATM   19  C13 UNL     1      26.146  -0.517  52.746  1.00  0.00     0.344 C 
HETATM   20  O2  UNL     1      25.486   0.464  52.006  1.00  0.00    -0.357 OA
ENDBRANCH   7  15
BRANCH   1  21
HETATM   21  C2  UNL     1      24.842   7.397  48.363  1.00  0.00     0.035 C 
HETATM   22  C1  UNL     1      26.249   7.430  47.840  1.00  0.00     0.010 C 
ENDBRANCH   1  21
TORSDOF 2
ENDMDL
MODEL 7
REMARK VINA RESULT:      -7.5      3.148      5.094
REMARK  2 active torsions:
REMARK  status: ('A' for Active; 'I' for Inactive)
REMARK    1  A    between atoms: C2_2  and  C3_3 
REMARK    2  A    between atoms: C9_9  and  C10_10 
ROOT
HETATM    1  C3  UNL     1      27.540  -0.231  53.338  1.00  0.00    -0.046 C 
HETATM    2  C4  UNL     1      27.051  -0.042  54.561  1.00  0.00    -0.019 C 
HETATM    3  C5  UNL     1      27.182   1.231  54.903  1.00  0.00     0.012 C 
HETATM    4  C6  UNL     1      26.378   2.191  54.170  1.00  0.00    -0.003 C 
HETATM    5  C7  UNL     1      25.187   2.599  53.681  1.00  0.00    -0.026 C 
HETATM    6  C8  UNL     1      24.072   3.338  53.012  1.00  0.00     0.040 C 
HETATM    7  C9  UNL     1      23.464   2.476  51.890  1.00  0.00     0.007 A 
HETATM    8  C14 UNL     1      22.317   1.541  52.390  1.00  0.00     0.031 A 
HETATM    9  C15 UNL     1      23.686   1.098  52.200  1.00  0.00     0.024 A 
HETATM   10  C16 UNL     1      24.935   1.160  51.925  1.00  0.00     0.044 C 
HETATM   11 CL1  UNL     1      25.190  -0.563  52.349  1.00  0.00    -0.086 Cl
HETATM   12  C17 UNL     1      26.320   1.153  51.705  1.00  0.00     0.053 C 
HETATM   13 CL2  UNL     1      26.286   2.084  50.255  1.00  0.00    -0.083 Cl
HETATM   14  C18 UNL     1      27.436   0.653  52.183  1.00  0.00     0.033 C 
ENDROOT
BRANCH   7  15
HETATM   15  C10 UNL     1      23.000   3.176  50.680  1.00  0.00     0.158 C 
HETATM   16  C11 UNL     1      22.819   2.335  49.470  1.00  0.00     0.030 C 
HETATM   17  C12 UNL     1      22.852   2.987  48.318  1.00  0.00     0.136 C 
HETATM   18  O1  UNL     1      23.045   4.362  48.282  1.00  0.00    -0.338 OA
HETATM   19  C13 UNL     1      23.121   5.125  49.470  1.00  0.00     0.344 C 
HETATM   20  O2  UNL     1      23.719   4.328  50.445  1.00  0.00    -0.357 OA
ENDBRANCH   7  15
BRANCH   1  21
HETATM   21  C2  UNL     1      28.306  -1.471  53.054  1.00  0.00     0.035 C 
HETATM   22  C1  UNL     1      29.748  -1.406  53.468  1.00  0.00     0.010 C 
ENDBRANCH   1  21
TORSDOF 2
ENDMDL
MODEL 8
REMARK VINA RESULT:      -7.4      2.481      4.272
REMARK  2 active torsions:
REMARK  status: ('A' for Active; 'I' for Inactive)
REMARK    1  A    between atoms: C2_2  and  C3_3 
REMARK    2  A    between atoms: C9_9  and  C10_10 
ROOT
HETATM    1  C3  UNL     1      24.878   1.353  52.460  1.00  0.00    -0.046 C 
HETATM    2  C4  UNL     1      26.078   1.881  52.684  1.00  0.00    -0.019 C 
HETATM    3  C5  UNL     1      26.774   1.906  51.556  1.00  0.00     0.012 C 
HETATM    4  C6  UNL     1      26.304   2.803  50.518  1.00  0.00    -0.003 C 
HETATM    5  C7  UNL     1      25.892   4.025  50.115  1.00  0.00    -0.026 C 
HETATM    6  C8  UNL     1      25.406   5.207  49.340  1.00  0.00     0.040 C 
HETATM    7  C9  UNL     1      24.057   5.692  49.902  1.00  0.00     0.007 A 
HETATM    8  C14 UNL     1      24.213   6.730  51.058  1.00  0.00     0.031 A 
HETATM    9  C15 UNL     1      23.974   5.316  51.280  1.00  0.00     0.024 A 
HETATM   10  C16 UNL     1      23.790   4.079  51.008  1.00  0.00     0.044 C 
HETATM   11 CL1  UNL     1      23.720   3.631  52.742  1.00  0.00    -0.086 Cl
HETATM   12  C17 UNL     1      23.646   2.698  50.803  1.00  0.00     0.053 C 
HETATM   13 CL2  UNL     1      22.520   2.816  49.504  1.00  0.00    -0.083 Cl
HETATM   14  C18 UNL     1      24.017   1.540  51.298  1.00  0.00     0.033 C 
ENDROOT
BRANCH   7  15
HETATM   15  C10 UNL     1      23.073   6.213  48.938  1.00  0.00     0.158 C 
HETATM   16  C11 UNL     1      21.657   6.202  49.381  1.00  0.00     0.030 C 
HETATM   17  C12 UNL     1      20.758   6.229  48.408  1.00  0.00     0.136 C 
HETATM   18  O1  UNL     1      21.152   6.264  47.076  1.00  0.00    -0.338 OA
HETATM   19  C13 UNL     1      22.515   6.365  46.714  1.00  0.00     0.344 C 
HETATM   20  O2  UNL     1      23.258   5.685  47.678  1.00  0.00    -0.357 OA
ENDBRANCH   7  15
BRANCH   1  21
HETATM   21  C2  UNL     1      24.292   0.443  53.477  1.00  0.00     0.035 C 
HETATM   22  C1  UNL     1      22.947  -0.107  53.100  1.00  0.00     0.010 C 
ENDBRANCH   1  21
TORSDOF 2
ENDMDL
MODEL 9
REMARK VINA RESULT:      -7.3      3.152      5.200
REMARK  2 active torsions:
REMARK  status: ('A' for Active; 'I' for Inactive)
REMARK    1  A    between atoms: C2_2  and  C3_3 
REMARK    2  A    between atoms: C9_9  and  C10_10 
ROOT
HETATM    1  C3  UNL     1      21.372   4.506  49.681  1.00  0.00    -0.046 C 
HETATM    2  C4  UNL     1      21.978   5.593  50.153  1.00  0.00    -0.019 C 
HETATM    3  C5  UNL     1      21.837   5.648  51.469  1.00  0.00     0.012 C 
HETATM    4  C6  UNL     1      22.525   4.632  52.243  1.00  0.00    -0.003 C 
HETATM    5  C7  UNL     1      23.643   3.936  52.542  1.00  0.00    -0.026 C 
HETATM    6  C8  UNL     1      24.656   2.999  53.119  1.00  0.00     0.040 C 
HETATM    7  C9  UNL     1      25.176   2.044  52.029  1.00  0.00     0.007 A 
HETATM    8  C14 UNL     1      26.402   2.616  51.248  1.00  0.00     0.031 A 
HETATM    9  C15 UNL     1      25.038   2.683  50.757  1.00  0.00     0.024 A 
HETATM   10  C16 UNL     1      23.766   2.538  50.739  1.00  0.00     0.044 C 
HETATM   11 CL1  UNL     1      23.618   3.369  49.158  1.00  0.00    -0.086 Cl
HETATM   12  C17 UNL     1      22.366   2.477  50.666  1.00  0.00     0.053 C 
HETATM   13 CL2  UNL     1      22.217   0.858  51.237  1.00  0.00    -0.083 Cl
HETATM   14  C18 UNL     1      21.325   3.175  50.276  1.00  0.00     0.033 C 
ENDROOT
BRANCH   7  15
HETATM   15  C10 UNL     1      25.486   0.663  52.436  1.00  0.00     0.158 C 
HETATM   16  C11 UNL     1      24.687   0.120  53.563  1.00  0.00     0.030 C 
HETATM   17  C12 UNL     1      25.240  -0.894  54.212  1.00  0.00     0.136 C 
HETATM   18  O1  UNL     1      26.483  -1.388  53.836  1.00  0.00    -0.338 OA
HETATM   19  C13 UNL     1      27.158  -0.892  52.698  1.00  0.00     0.344 C 
HETATM   20  O2  UNL     1      26.842   0.461  52.578  1.00  0.00    -0.357 OA
ENDBRANCH   7  15
BRANCH   1  21
HETATM   21  C2  UNL     1      20.627   4.597  48.400  1.00  0.00     0.035 C 
HETATM   22  C1  UNL     1      21.282   5.475  47.374  1.00  0.00     0.010 C 
ENDBRANCH   1  21
TORSDOF 2
ENDMDL
