MODEL 1
REMARK VINA RESULT:      -7.0      0.000      0.000
REMARK  8 active torsions:
REMARK  status: ('A' for Active; 'I' for Inactive)
REMARK    1  A    between atoms: N1_1  and  C1_2 
REMARK    2  A    between atoms: C1_2  and  C2_3 
REMARK    3  A    between atoms: C2_3  and  C3_5 
REMARK    4  A    between atoms: C3_5  and  C4_6 
REMARK    5  A    between atoms: C4_6  and  C5_7 
REMARK    6  A    between atoms: C5_7  and  N2_8 
REMARK    7  A    between atoms: N2_8  and  C6_9 
REMARK    8  A    between atoms: C9_13  and  C10_14 
ROOT
HETATM    1  C6  UNL     1      25.097   2.294  51.966  1.00  0.00     0.722 A 
HETATM    2  N3  UNL     1      23.841   1.984  52.376  1.00  0.00    -0.075 NA
HETATM    3  C7  UNL     1      23.580   0.797  52.974  1.00  0.00     0.139 A 
HETATM    4  C8  UNL     1      24.600  -0.107  53.168  1.00  0.00     0.053 A 
HETATM    5  C9  UNL     1      25.879   0.194  52.756  1.00  0.00     0.089 A 
HETATM    6  N5  UNL     1      26.069   1.375  52.177  1.00  0.00    -0.062 NA
ENDROOT
BRANCH   1   7
HETATM    7  N2  UNL     1      25.391   3.525  51.342  1.00  0.00    -0.221 N 
HETATM    8  H8  UNL     1      25.638   4.342  51.912  1.00  0.00     0.177 HD
BRANCH   7   9
HETATM    9  C5  UNL     1      25.309   3.506  49.886  1.00  0.00     0.156 C 
BRANCH   9  10
HETATM   10  C4  UNL     1      26.645   3.822  49.368  1.00  0.00     0.093 C 
BRANCH  10  11
HETATM   11  C3  UNL     1      26.852   5.065  48.953  1.00  0.00    -0.127 C 
BRANCH  11  12
HETATM   12  C2  UNL     1      27.026   6.372  48.796  1.00  0.00     0.080 C 
HETATM   13 CL1  UNL     1      28.338   6.719  47.702  1.00  0.00    -0.078 Cl
BRANCH  12  14
HETATM   14  C1  UNL     1      26.095   7.201  49.557  1.00  0.00     0.326 C 
BRANCH  14  15
HETATM   15  N1  UNL     1      26.698   8.112  50.486  1.00  0.00     0.083 N 
HETATM   16  H1  UNL     1      26.571   7.882  51.487  1.00  0.00     0.313 HD
HETATM   17  H2  UNL     1      26.273   9.052  50.329  1.00  0.00     0.313 HD
ENDBRANCH  14  15
ENDBRANCH  12  14
ENDBRANCH  11  12
ENDBRANCH  10  11
ENDBRANCH   9  10
ENDBRANCH   7   9
ENDBRANCH   1   7
BRANCH   5  18
HETATM   18  C10 UNL     1      27.014  -0.704  52.923  1.00  0.00     0.011 A 
HETATM   19  C11 UNL     1      28.186  -0.158  53.414  1.00  0.00     0.017 A 
HETATM   20  C12 UNL     1      29.229  -1.057  53.551  1.00  0.00     0.020 A 
HETATM   21  C13 UNL     1      29.217  -2.402  53.256  1.00  0.00     0.116 A 
HETATM   22  N4  UNL     1      28.044  -2.855  52.784  1.00  0.00    -0.272 NA
HETATM   23  C14 UNL     1      26.972  -2.049  52.618  1.00  0.00     0.130 A 
ENDBRANCH   5  18
TORSDOF 8
ENDMDL
MODEL 2
REMARK VINA RESULT:      -6.9      1.819      3.785
REMARK  8 active torsions:
REMARK  status: ('A' for Active; 'I' for Inactive)
REMARK    1  A    between atoms: N1_1  and  C1_2 
REMARK    2  A    between atoms: C1_2  and  C2_3 
REMARK    3  A    between atoms: C2_3  and  C3_5 
REMARK    4  A    between atoms: C3_5  and  C4_6 
REMARK    5  A    between atoms: C4_6  and  C5_7 
REMARK    6  A    between atoms: C5_7  and  N2_8 
REMARK    7  A    between atoms: N2_8  and  C6_9 
REMARK    8  A    between atoms: C9_13  and  C10_14 
ROOT
HETATM    1  C6  UNL     1      26.471   1.566  52.438  1.00  0.00     0.722 A 
HETATM    2  N3  UNL     1      27.530   0.731  52.599  1.00  0.00    -0.075 NA
HETATM    3  C7  UNL     1      27.362  -0.507  53.122  1.00  0.00     0.139 A 
HETATM    4  C8  UNL     1      26.105  -0.925  53.497  1.00  0.00     0.053 A 
HETATM    5  C9  UNL     1      25.023  -0.088  53.340  1.00  0.00     0.089 A 
HETATM    6  N5  UNL     1      25.254   1.113  52.820  1.00  0.00    -0.062 NA
ENDROOT
BRANCH   1   7
HETATM    7  N2  UNL     1      26.623   2.859  51.895  1.00  0.00    -0.221 N 
HETATM    8  H8  UNL     1      27.358   3.480  52.250  1.00  0.00     0.177 HD
BRANCH   7   9
HETATM    9  C5  UNL     1      25.675   3.193  50.838  1.00  0.00     0.156 C 
BRANCH   9  10
HETATM   10  C4  UNL     1      26.391   3.094  49.562  1.00  0.00     0.093 C 
BRANCH  10  11
HETATM   11  C3  UNL     1      26.981   4.195  49.115  1.00  0.00    -0.127 C 
BRANCH  11  12
HETATM   12  C2  UNL     1      27.393   5.423  48.823  1.00  0.00     0.080 C 
HETATM   13 CL1  UNL     1      29.012   5.421  48.174  1.00  0.00    -0.078 Cl
BRANCH  12  14
HETATM   14  C1  UNL     1      26.416   6.471  49.103  1.00  0.00     0.326 C 
BRANCH  14  15
HETATM   15  N1  UNL     1      26.922   7.617  49.801  1.00  0.00     0.083 N 
HETATM   16  H1  UNL     1      27.953   7.695  49.846  1.00  0.00     0.313 HD
HETATM   17  H2  UNL     1      26.573   7.571  50.783  1.00  0.00     0.313 HD
ENDBRANCH  14  15
ENDBRANCH  12  14
ENDBRANCH  11  12
ENDBRANCH  10  11
ENDBRANCH   9  10
ENDBRANCH   7   9
ENDBRANCH   1   7
BRANCH   5  18
HETATM   18  C10 UNL     1      23.661  -0.451  53.709  1.00  0.00     0.011 A 
HETATM   19  C11 UNL     1      22.650  -0.083  52.840  1.00  0.00     0.017 A 
HETATM   20  C12 UNL     1      21.379  -0.453  53.241  1.00  0.00     0.020 A 
HETATM   21  C13 UNL     1      21.029  -1.131  54.387  1.00  0.00     0.116 A 
HETATM   22  N4  UNL     1      22.066  -1.452  55.179  1.00  0.00    -0.272 NA
HETATM   23  C14 UNL     1      23.341  -1.132  54.866  1.00  0.00     0.130 A 
ENDBRANCH   5  18
TORSDOF 8
ENDMDL
MODEL 3
REMARK VINA RESULT:      -6.8      2.755      6.349
REMARK  8 active torsions:
REMARK  status: ('A' for Active; 'I' for Inactive)
REMARK    1  A    between atoms: N1_1  and  C1_2 
REMARK    2  A    between atoms: C1_2  and  C2_3 
REMARK    3  A    between atoms: C2_3  and  C3_5 
REMARK    4  A    between atoms: C3_5  and  C4_6 
REMARK    5  A    between atoms: C4_6  and  C5_7 
REMARK    6  A    between atoms: C5_7  and  N2_8 
REMARK    7  A    between atoms: N2_8  and  C6_9 
REMARK    8  A    between atoms: C9_13  and  C10_14 
ROOT
HETATM    1  C6  UNL     1      24.446   1.629  52.031  1.00  0.00     0.722 A 
HETATM    2  N3  UNL     1      23.247   1.254  51.517  1.00  0.00    -0.075 NA
HETATM    3  C7  UNL     1      22.768   1.827  50.387  1.00  0.00     0.139 A 
HETATM    4  C8  UNL     1      23.504   2.802  49.752  1.00  0.00     0.053 A 
HETATM    5  C9  UNL     1      24.721   3.192  50.263  1.00  0.00     0.089 A 
HETATM    6  N5  UNL     1      25.136   2.591  51.373  1.00  0.00    -0.062 NA
ENDROOT
BRANCH   1   7
HETATM    7  N2  UNL     1      24.964   1.046  53.206  1.00  0.00    -0.221 N 
HETATM    8  H8  UNL     1      25.124   1.625  54.038  1.00  0.00     0.177 HD
BRANCH   7   9
HETATM    9  C5  UNL     1      25.231  -0.385  53.112  1.00  0.00     0.156 C 
BRANCH   9  10
HETATM   10  C4  UNL     1      26.546  -0.544  52.483  1.00  0.00     0.093 C 
BRANCH  10  11
HETATM   11  C3  UNL     1      27.573   0.057  53.071  1.00  0.00    -0.127 C 
BRANCH  11  12
HETATM   12  C2  UNL     1      28.744   0.539  53.467  1.00  0.00     0.080 C 
HETATM   13 CL1  UNL     1      29.968  -0.702  53.513  1.00  0.00    -0.078 Cl
BRANCH  12  14
HETATM   14  C1  UNL     1      28.741   1.970  53.762  1.00  0.00     0.326 C 
BRANCH  14  15
HETATM   15  N1  UNL     1      27.932   2.776  52.895  1.00  0.00     0.083 N 
HETATM   16  H1  UNL     1      28.444   3.313  52.174  1.00  0.00     0.313 HD
HETATM   17  H2  UNL     1      27.421   3.466  53.489  1.00  0.00     0.313 HD
ENDBRANCH  14  15
ENDBRANCH  12  14
ENDBRANCH  11  12
ENDBRANCH  10  11
ENDBRANCH   9  10
ENDBRANCH   7   9
ENDBRANCH   1   7
BRANCH   5  18
HETATM   18  C10 UNL     1      25.563   4.214  49.654  1.00  0.00     0.011 A 
HETATM   19  C11 UNL     1      26.839   3.839  49.275  1.00  0.00     0.017 A 
HETATM   20  C12 UNL     1      27.592   4.849  48.703  1.00  0.00     0.020 A 
HETATM   21  C13 UNL     1      27.210   6.152  48.480  1.00  0.00     0.116 A 
HETATM   22  N4  UNL     1      25.958   6.438  48.876  1.00  0.00    -0.272 NA
HETATM   23  C14 UNL     1      25.151   5.514  49.443  1.00  0.00     0.130 A 
ENDBRANCH   5  18
TORSDOF 8
ENDMDL
MODEL 4
REMARK VINA RESULT:      -6.7      2.066      2.701
REMARK  8 active torsions:
REMARK  status: ('A' for Active; 'I' for Inactive)
REMARK    1  A    between atoms: N1_1  and  C1_2 
REMARK    2  A    between atoms: C1_2  and  C2_3 
REMARK    3  A    between atoms: C2_3  and  C3_5 
REMARK    4  A    between atoms: C3_5  and  C4_6 
REMARK    5  A    between atoms: C4_6  and  C5_7 
REMARK    6  A    between atoms: C5_7  and  N2_8 
REMARK    7  A    between atoms: N2_8  and  C6_9 
REMARK    8  A    between atoms: C9_13  and  C10_14 
ROOT
HETATM    1  C6  UNL     1      23.055   1.262  51.456  1.00  0.00     0.722 A 
HETATM    2  N3  UNL     1      22.012   0.625  52.048  1.00  0.00    -0.075 NA
HETATM    3  C7  UNL     1      22.213  -0.202  53.101  1.00  0.00     0.139 A 
HETATM    4  C8  UNL     1      23.489  -0.402  53.578  1.00  0.00     0.053 A 
HETATM    5  C9  UNL     1      24.556   0.237  52.987  1.00  0.00     0.089 A 
HETATM    6  N5  UNL     1      24.292   1.036  51.958  1.00  0.00    -0.062 NA
ENDROOT
BRANCH   1   7
HETATM    7  N2  UNL     1      22.869   2.128  50.359  1.00  0.00    -0.221 N 
HETATM    8  H8  UNL     1      22.807   1.745  49.409  1.00  0.00     0.177 HD
BRANCH   7   9
HETATM    9  C5  UNL     1      22.782   3.542  50.703  1.00  0.00     0.156 C 
BRANCH   9  10
HETATM   10  C4  UNL     1      23.376   4.300  49.598  1.00  0.00     0.093 C 
BRANCH  10  11
HETATM   11  C3  UNL     1      24.695   4.445  49.607  1.00  0.00    -0.127 C 
BRANCH  11  12
HETATM   12  C2  UNL     1      26.012   4.383  49.446  1.00  0.00     0.080 C 
HETATM   13 CL1  UNL     1      26.625   5.786  48.612  1.00  0.00    -0.078 Cl
BRANCH  12  14
HETATM   14  C1  UNL     1      26.631   3.181  49.997  1.00  0.00     0.326 C 
BRANCH  14  15
HETATM   15  N1  UNL     1      26.634   3.089  51.429  1.00  0.00     0.083 N 
HETATM   16  H1  UNL     1      27.027   3.904  51.930  1.00  0.00     0.313 HD
HETATM   17  H2  UNL     1      27.208   2.258  51.692  1.00  0.00     0.313 HD
ENDBRANCH  14  15
ENDBRANCH  12  14
ENDBRANCH  11  12
ENDBRANCH  10  11
ENDBRANCH   9  10
ENDBRANCH   7   9
ENDBRANCH   1   7
BRANCH   5  18
HETATM   18  C10 UNL     1      25.935   0.082  53.429  1.00  0.00     0.011 A 
HETATM   19  C11 UNL     1      26.770  -0.689  52.639  1.00  0.00     0.017 A 
HETATM   20  C12 UNL     1      28.067  -0.801  53.106  1.00  0.00     0.020 A 
HETATM   21  C13 UNL     1      28.596  -0.239  54.246  1.00  0.00     0.116 A 
HETATM   22  N4  UNL     1      27.723   0.493  54.959  1.00  0.00    -0.272 NA
HETATM   23  C14 UNL     1      26.437   0.657  54.578  1.00  0.00     0.130 A 
ENDBRANCH   5  18
TORSDOF 8
ENDMDL
MODEL 5
REMARK VINA RESULT:      -6.7      2.120      3.050
REMARK  8 active torsions:
REMARK  status: ('A' for Active; 'I' for Inactive)
REMARK    1  A    between atoms: N1_1  and  C1_2 
REMARK    2  A    between atoms: C1_2  and  C2_3 
REMARK    3  A    between atoms: C2_3  and  C3_5 
REMARK    4  A    between atoms: C3_5  and  C4_6 
REMARK    5  A    between atoms: C4_6  and  C5_7 
REMARK    6  A    between atoms: C5_7  and  N2_8 
REMARK    7  A    between atoms: N2_8  and  C6_9 
REMARK    8  A    between atoms: C9_13  and  C10_14 
ROOT
HETATM    1  C6  UNL     1      26.500   3.789  49.779  1.00  0.00     0.722 A 
HETATM    2  N3  UNL     1      25.161   3.625  49.630  1.00  0.00    -0.075 NA
HETATM    3  C7  UNL     1      24.470   2.789  50.440  1.00  0.00     0.139 A 
HETATM    4  C8  UNL     1      25.132   2.094  51.427  1.00  0.00     0.053 A 
HETATM    5  C9  UNL     1      26.490   2.249  51.589  1.00  0.00     0.089 A 
HETATM    6  N5  UNL     1      27.110   3.086  50.763  1.00  0.00    -0.062 NA
ENDROOT
BRANCH   1   7
HETATM    7  N2  UNL     1      27.239   4.655  48.947  1.00  0.00    -0.221 N 
HETATM    8  H8  UNL     1      28.062   4.304  48.444  1.00  0.00     0.177 HD
BRANCH   7   9
HETATM    9  C5  UNL     1      26.734   6.022  48.885  1.00  0.00     0.156 C 
BRANCH   9  10
HETATM   10  C4  UNL     1      27.595   6.765  47.959  1.00  0.00     0.093 C 
BRANCH  10  11
HETATM   11  C3  UNL     1      28.450   7.628  48.493  1.00  0.00    -0.127 C 
BRANCH  11  12
HETATM   12  C2  UNL     1      29.102   8.666  49.003  1.00  0.00     0.080 C 
HETATM   13 CL1  UNL     1      30.822   8.537  48.742  1.00  0.00    -0.078 Cl
BRANCH  12  14
HETATM   14  C1  UNL     1      28.247   9.659  49.649  1.00  0.00     0.326 C 
BRANCH  14  15
HETATM   15  N1  UNL     1      27.560   9.209  50.825  1.00  0.00     0.083 N 
HETATM   16  H1  UNL     1      26.530   9.305  50.807  1.00  0.00     0.313 HD
HETATM   17  H2  UNL     1      27.908   9.773  51.631  1.00  0.00     0.313 HD
ENDBRANCH  14  15
ENDBRANCH  12  14
ENDBRANCH  11  12
ENDBRANCH  10  11
ENDBRANCH   9  10
ENDBRANCH   7   9
ENDBRANCH   1   7
BRANCH   5  18
HETATM   18  C10 UNL     1      27.267   1.553  52.607  1.00  0.00     0.011 A 
HETATM   19  C11 UNL     1      27.145   0.177  52.665  1.00  0.00     0.017 A 
HETATM   20  C12 UNL     1      27.905  -0.430  53.649  1.00  0.00     0.020 A 
HETATM   21  C13 UNL     1      28.746   0.181  54.551  1.00  0.00     0.116 A 
HETATM   22  N4  UNL     1      28.810   1.518  54.430  1.00  0.00    -0.272 NA
HETATM   23  C14 UNL     1      28.104   2.194  53.498  1.00  0.00     0.130 A 
ENDBRANCH   5  18
TORSDOF 8
ENDMDL
MODEL 6
REMARK VINA RESULT:      -6.6      1.760      2.301
REMARK  8 active torsions:
REMARK  status: ('A' for Active; 'I' for Inactive)
REMARK    1  A    between atoms: N1_1  and  C1_2 
REMARK    2  A    between atoms: C1_2  and  C2_3 
REMARK    3  A    between atoms: C2_3  and  C3_5 
REMARK    4  A    between atoms: C3_5  and  C4_6 
REMARK    5  A    between atoms: C4_6  and  C5_7 
REMARK    6  A    between atoms: C5_7  and  N2_8 
REMARK    7  A    between atoms: N2_8  and  C6_9 
REMARK    8  A    between atoms: C9_13  and  C10_14 
ROOT
HETATM    1  C6  UNL     1      26.008   3.606  50.593  1.00  0.00     0.722 A 
HETATM    2  N3  UNL     1      24.693   3.269  50.561  1.00  0.00    -0.075 NA
HETATM    3  C7  UNL     1      24.245   2.162  51.200  1.00  0.00     0.139 A 
HETATM    4  C8  UNL     1      25.133   1.366  51.889  1.00  0.00     0.053 A 
HETATM    5  C9  UNL     1      26.469   1.695  51.928  1.00  0.00     0.089 A 
HETATM    6  N5  UNL     1      26.844   2.795  51.282  1.00  0.00    -0.062 NA
ENDROOT
BRANCH   1   7
HETATM    7  N2  UNL     1      26.495   4.754  49.936  1.00  0.00    -0.221 N 
HETATM    8  H8  UNL     1      26.212   5.687  50.257  1.00  0.00     0.177 HD
BRANCH   7   9
HETATM    9  C5  UNL     1      27.390   4.485  48.816  1.00  0.00     0.156 C 
BRANCH   9  10
HETATM   10  C4  UNL     1      28.000   5.760  48.426  1.00  0.00     0.093 C 
BRANCH  10  11
HETATM   11  C3  UNL     1      27.259   6.852  48.570  1.00  0.00    -0.127 C 
BRANCH  11  12
HETATM   12  C2  UNL     1      26.751   8.073  48.682  1.00  0.00     0.080 C 
HETATM   13 CL1  UNL     1      26.114   8.646  47.164  1.00  0.00    -0.078 Cl
BRANCH  12  14
HETATM   14  C1  UNL     1      26.837   8.642  50.025  1.00  0.00     0.326 C 
BRANCH  14  15
HETATM   15  N1  UNL     1      28.083   9.275  50.348  1.00  0.00     0.083 N 
HETATM   16  H1  UNL     1      28.907   8.650  50.385  1.00  0.00     0.313 HD
HETATM   17  H2  UNL     1      27.983   9.709  51.291  1.00  0.00     0.313 HD
ENDBRANCH  14  15
ENDBRANCH  12  14
ENDBRANCH  11  12
ENDBRANCH  10  11
ENDBRANCH   9  10
ENDBRANCH   7   9
ENDBRANCH   1   7
BRANCH   5  18
HETATM   18  C10 UNL     1      27.474   0.910  52.633  1.00  0.00     0.011 A 
HETATM   19  C11 UNL     1      27.345  -0.467  52.591  1.00  0.00     0.017 A 
HETATM   20  C12 UNL     1      28.326  -1.160  53.277  1.00  0.00     0.020 A 
HETATM   21  C13 UNL     1      29.387  -0.633  53.977  1.00  0.00     0.116 A 
HETATM   22  N4  UNL     1      29.442   0.710  53.972  1.00  0.00    -0.272 NA
HETATM   23  C14 UNL     1      28.528   1.467  53.328  1.00  0.00     0.130 A 
ENDBRANCH   5  18
TORSDOF 8
ENDMDL
MODEL 7
REMARK VINA RESULT:      -6.6      2.218      4.153
REMARK  8 active torsions:
REMARK  status: ('A' for Active; 'I' for Inactive)
REMARK    1  A    between atoms: N1_1  and  C1_2 
REMARK    2  A    between atoms: C1_2  and  C2_3 
REMARK    3  A    between atoms: C2_3  and  C3_5 
REMARK    4  A    between atoms: C3_5  and  C4_6 
REMARK    5  A    between atoms: C4_6  and  C5_7 
REMARK    6  A    between atoms: C5_7  and  N2_8 
REMARK    7  A    between atoms: N2_8  and  C6_9 
REMARK    8  A    between atoms: C9_13  and  C10_14 
ROOT
HETATM    1  C6  UNL     1      25.963   2.732  51.401  1.00  0.00     0.722 A 
HETATM    2  N3  UNL     1      27.057   1.944  51.567  1.00  0.00    -0.075 NA
HETATM    3  C7  UNL     1      26.960   0.749  52.198  1.00  0.00     0.139 A 
HETATM    4  C8  UNL     1      25.740   0.327  52.676  1.00  0.00     0.053 A 
HETATM    5  C9  UNL     1      24.624   1.116  52.515  1.00  0.00     0.089 A 
HETATM    6  N5  UNL     1      24.785   2.277  51.887  1.00  0.00    -0.062 NA
ENDROOT
BRANCH   1   7
HETATM    7  N2  UNL     1      26.041   3.979  50.747  1.00  0.00    -0.221 N 
HETATM    8  H8  UNL     1      25.755   4.834  51.239  1.00  0.00     0.177 HD
BRANCH   7   9
HETATM    9  C5  UNL     1      26.541   3.923  49.378  1.00  0.00     0.156 C 
BRANCH   9  10
HETATM   10  C4  UNL     1      26.680   5.304  48.905  1.00  0.00     0.093 C 
BRANCH  10  11
HETATM   11  C3  UNL     1      26.102   6.251  49.633  1.00  0.00    -0.127 C 
BRANCH  11  12
HETATM   12  C2  UNL     1      25.682   7.365  50.222  1.00  0.00     0.080 C 
HETATM   13 CL1  UNL     1      26.867   8.639  50.106  1.00  0.00    -0.078 Cl
BRANCH  12  14
HETATM   14  C1  UNL     1      24.350   7.270  50.814  1.00  0.00     0.326 C 
BRANCH  14  15
HETATM   15  N1  UNL     1      24.305   6.750  52.149  1.00  0.00     0.083 N 
HETATM   16  H1  UNL     1      24.648   7.385  52.891  1.00  0.00     0.313 HD
HETATM   17  H2  UNL     1      24.901   5.894  52.176  1.00  0.00     0.313 HD
ENDBRANCH  14  15
ENDBRANCH  12  14
ENDBRANCH  11  12
ENDBRANCH  10  11
ENDBRANCH   9  10
ENDBRANCH   7   9
ENDBRANCH   1   7
BRANCH   5  18
HETATM   18  C10 UNL     1      23.297   0.746  52.990  1.00  0.00     0.011 A 
HETATM   19  C11 UNL     1      23.194  -0.413  53.738  1.00  0.00     0.017 A 
HETATM   20  C12 UNL     1      21.912  -0.715  54.162  1.00  0.00     0.020 A 
HETATM   21  C13 UNL     1      20.762   0.001  53.921  1.00  0.00     0.116 A 
HETATM   22  N4  UNL     1      20.945   1.113  53.187  1.00  0.00    -0.272 NA
HETATM   23  C14 UNL     1      22.161   1.485  52.732  1.00  0.00     0.130 A 
ENDBRANCH   5  18
TORSDOF 8
ENDMDL
MODEL 8
REMARK VINA RESULT:      -6.6      3.334      5.865
REMARK  8 active torsions:
REMARK  status: ('A' for Active; 'I' for Inactive)
REMARK    1  A    between atoms: N1_1  and  C1_2 
REMARK    2  A    between atoms: C1_2  and  C2_3 
REMARK    3  A    between atoms: C2_3  and  C3_5 
REMARK    4  A    between atoms: C3_5  and  C4_6 
REMARK    5  A    between atoms: C4_6  and  C5_7 
REMARK    6  A    between atoms: C5_7  and  N2_8 
REMARK    7  A    between atoms: N2_8  and  C6_9 
REMARK    8  A    between atoms: C9_13  and  C10_14 
ROOT
HETATM    1  C6  UNL     1      24.033   2.522  51.003  1.00  0.00     0.722 A 
HETATM    2  N3  UNL     1      24.420   3.292  49.954  1.00  0.00    -0.075 NA
HETATM    3  C7  UNL     1      25.731   3.543  49.726  1.00  0.00     0.139 A 
HETATM    4  C8  UNL     1      26.683   3.014  50.567  1.00  0.00     0.053 A 
HETATM    5  C9  UNL     1      26.305   2.233  51.635  1.00  0.00     0.089 A 
HETATM    6  N5  UNL     1      25.003   2.022  51.804  1.00  0.00    -0.062 NA
ENDROOT
BRANCH   1   7
HETATM    7  N2  UNL     1      22.673   2.246  51.260  1.00  0.00    -0.221 N 
HETATM    8  H8  UNL     1      22.173   2.769  51.988  1.00  0.00     0.177 HD
BRANCH   7   9
HETATM    9  C5  UNL     1      22.093   1.200  50.426  1.00  0.00     0.156 C 
BRANCH   9  10
HETATM   10  C4  UNL     1      21.368   0.285  51.313  1.00  0.00     0.093 C 
BRANCH  10  11
HETATM   11  C3  UNL     1      21.943  -0.015  52.471  1.00  0.00    -0.127 C 
BRANCH  11  12
HETATM   12  C2  UNL     1      22.418  -0.559  53.585  1.00  0.00     0.080 C 
HETATM   13 CL1  UNL     1      24.148  -0.769  53.512  1.00  0.00    -0.078 Cl
BRANCH  12  14
HETATM   14  C1  UNL     1      21.404  -0.848  54.596  1.00  0.00     0.326 C 
BRANCH  14  15
HETATM   15  N1  UNL     1      20.511   0.233  54.899  1.00  0.00     0.083 N 
HETATM   16  H1  UNL     1      20.130   0.243  55.861  1.00  0.00     0.313 HD
HETATM   17  H2  UNL     1      19.700   0.167  54.246  1.00  0.00     0.313 HD
ENDBRANCH  14  15
ENDBRANCH  12  14
ENDBRANCH  11  12
ENDBRANCH  10  11
ENDBRANCH   9  10
ENDBRANCH   7   9
ENDBRANCH   1   7
BRANCH   5  18
HETATM   18  C10 UNL     1      27.247   1.635  52.572  1.00  0.00     0.011 A 
HETATM   19  C11 UNL     1      27.345   0.255  52.577  1.00  0.00     0.017 A 
HETATM   20  C12 UNL     1      28.254  -0.257  53.486  1.00  0.00     0.020 A 
HETATM   21  C13 UNL     1      29.048   0.449  54.361  1.00  0.00     0.116 A 
HETATM   22  N4  UNL     1      28.894   1.783  54.296  1.00  0.00    -0.272 NA
HETATM   23  C14 UNL     1      28.030   2.369  53.439  1.00  0.00     0.130 A 
ENDBRANCH   5  18
TORSDOF 8
ENDMDL
MODEL 9
REMARK VINA RESULT:      -6.4      1.732      2.146
REMARK  8 active torsions:
REMARK  status: ('A' for Active; 'I' for Inactive)
REMARK    1  A    between atoms: N1_1  and  C1_2 
REMARK    2  A    between atoms: C1_2  and  C2_3 
REMARK    3  A    between atoms: C2_3  and  C3_5 
REMARK    4  A    between atoms: C3_5  and  C4_6 
REMARK    5  A    between atoms: C4_6  and  C5_7 
REMARK    6  A    between atoms: C5_7  and  N2_8 
REMARK    7  A    between atoms: N2_8  and  C6_9 
REMARK    8  A    between atoms: C9_13  and  C10_14 
ROOT
HETATM    1  C6  UNL     1      24.579   2.533  52.698  1.00  0.00     0.722 A 
HETATM    2  N3  UNL     1      23.456   1.794  52.887  1.00  0.00    -0.075 NA
HETATM    3  C7  UNL     1      23.537   0.484  53.220  1.00  0.00     0.139 A 
HETATM    4  C8  UNL     1      24.772  -0.107  53.367  1.00  0.00     0.053 A 
HETATM    5  C9  UNL     1      25.919   0.630  53.177  1.00  0.00     0.089 A 
HETATM    6  N5  UNL     1      25.771   1.911  52.853  1.00  0.00    -0.062 NA
ENDROOT
BRANCH   1   7
HETATM    7  N2  UNL     1      24.517   3.899  52.351  1.00  0.00    -0.221 N 
HETATM    8  H8  UNL     1      25.377   4.407  52.116  1.00  0.00     0.177 HD
BRANCH   7   9
HETATM    9  C5  UNL     1      23.177   4.473  52.364  1.00  0.00     0.156 C 
BRANCH   9  10
HETATM   10  C4  UNL     1      23.144   5.532  51.349  1.00  0.00     0.093 C 
BRANCH  10  11
HETATM   11  C3  UNL     1      24.298   5.858  50.781  1.00  0.00    -0.127 C 
BRANCH  11  12
HETATM   12  C2  UNL     1      25.302   6.354  50.069  1.00  0.00     0.080 C 
HETATM   13 CL1  UNL     1      26.151   5.104  49.198  1.00  0.00    -0.078 Cl
BRANCH  12  14
HETATM   14  C1  UNL     1      25.460   7.802  50.172  1.00  0.00     0.326 C 
BRANCH  14  15
HETATM   15  N1  UNL     1      26.760   8.254  50.575  1.00  0.00     0.083 N 
HETATM   16  H1  UNL     1      27.263   8.843  49.889  1.00  0.00     0.313 HD
HETATM   17  H2  UNL     1      27.349   7.411  50.749  1.00  0.00     0.313 HD
ENDBRANCH  14  15
ENDBRANCH  12  14
ENDBRANCH  11  12
ENDBRANCH  10  11
ENDBRANCH   9  10
ENDBRANCH   7   9
ENDBRANCH   1   7
BRANCH   5  18
HETATM   18  C10 UNL     1      27.263   0.084  53.312  1.00  0.00     0.011 A 
HETATM   19  C11 UNL     1      27.439  -1.249  52.988  1.00  0.00     0.017 A 
HETATM   20  C12 UNL     1      28.734  -1.713  53.136  1.00  0.00     0.020 A 
HETATM   21  C13 UNL     1      29.833  -1.001  53.561  1.00  0.00     0.116 A 
HETATM   22  N4  UNL     1      29.580   0.285  53.857  1.00  0.00    -0.272 NA
HETATM   23  C14 UNL     1      28.346   0.823  53.741  1.00  0.00     0.130 A 
ENDBRANCH   5  18
TORSDOF 8
ENDMDL
