MODEL 1
REMARK VINA RESULT:      -9.1      0.000      0.000
REMARK  4 active torsions:
REMARK  status: ('A' for Active; 'I' for Inactive)
REMARK    1  A    between atoms: O1_2  and  C2_3 
REMARK    2  A    between atoms: C7_8  and  C8_9 
REMARK       I    between atoms: C8_9  and  N1_11 
REMARK    3  A    between atoms: N1_11  and  C9_12 
REMARK    4  A    between atoms: C22_28  and  N5_29 
ROOT
HETATM    1  C9  UNL     1      25.052   3.000  52.035  1.00  0.00     0.065 C 
HETATM    2  C10 UNL     1      24.250   3.429  52.999  1.00  0.00     0.029 C 
HETATM    3  C11 UNL     1      23.188   4.462  52.979  1.00  0.00    -0.000 C 
HETATM    4  C12 UNL     1      22.511   4.907  51.903  1.00  0.00     0.003 C 
HETATM    5  C13 UNL     1      22.871   4.286  50.567  1.00  0.00     0.303 C 
HETATM    6  N2  UNL     1      24.271   4.547  50.357  1.00  0.00     0.121 N 
HETATM    7  C14 UNL     1      24.355   5.008  48.982  1.00  0.00     0.292 C 
HETATM    8  C15 UNL     1      25.223   6.233  48.948  1.00  0.00     0.042 C 
HETATM    9  C16 UNL     1      26.618   5.689  48.779  1.00  0.00     0.004 C 
HETATM   10  C17 UNL     1      27.117   4.657  49.441  1.00  0.00     0.082 C 
HETATM   11  N3  UNL     1      26.538   3.813  50.433  1.00  0.00    -0.365 N 
HETATM   12  C18 UNL     1      25.139   3.463  50.618  1.00  0.00     0.372 C 
HETATM   13  C19 UNL     1      25.106   7.109  50.162  1.00  0.00     0.064 C 
HETATM   14  C20 UNL     1      23.992   8.109  49.983  1.00  0.00     0.084 C 
HETATM   15  N4  UNL     1      23.309   8.374  48.938  1.00  0.00    -0.303 NA
HETATM   16  C21 UNL     1      23.569   7.671  47.723  1.00  0.00     0.184 C 
HETATM   17  C22 UNL     1      24.959   7.112  47.745  1.00  0.00     0.251 C 
HETATM   18  H18 UNL     1      27.344   3.471  51.044  1.00  0.00     0.161 HD
ENDROOT
BRANCH   1  19
HETATM   19  N1  UNL     1      26.007   1.985  52.283  1.00  0.00    -0.323 N 
HETATM   20  C8  UNL     1      26.031   0.609  52.586  1.00  0.00     0.258 C 
HETATM   21  O2  UNL     1      24.862   0.172  52.653  1.00  0.00    -0.267 OA
HETATM   22  H8  UNL     1      27.006   2.283  52.229  1.00  0.00     0.169 HD
BRANCH  20  23
HETATM   23  C7  UNL     1      27.143  -0.285  52.809  1.00  0.00     0.065 A 
HETATM   24  C2  UNL     1      28.432  -0.035  53.173  1.00  0.00     0.084 A 
HETATM   25  C3  UNL     1      29.424  -0.961  53.364  1.00  0.00     0.038 A 
HETATM   26  C4  UNL     1      29.064  -2.273  53.162  1.00  0.00     0.003 A 
HETATM   27  C5  UNL     1      27.796  -2.627  52.795  1.00  0.00     0.001 A 
HETATM   28  C6  UNL     1      26.871  -1.647  52.626  1.00  0.00     0.020 A 
BRANCH  24  29
HETATM   29  O1  UNL     1      28.761   1.289  53.369  1.00  0.00    -0.355 OA
HETATM   30  C1  UNL     1      29.375   1.764  54.542  1.00  0.00     0.210 C 
ENDBRANCH  24  29
ENDBRANCH  20  23
ENDBRANCH   1  19
BRANCH  17  31
HETATM   31  N5  UNL     1      25.864   8.260  47.861  1.00  0.00     0.085 N 
HETATM   32  H26 UNL     1      26.782   7.933  48.257  1.00  0.00     0.313 HD
HETATM   33  H27 UNL     1      25.527   8.993  48.492  1.00  0.00     0.313 HD
ENDBRANCH  17  31
TORSDOF 4
ENDMDL
MODEL 2
REMARK VINA RESULT:      -8.5      1.240      1.291
REMARK  4 active torsions:
REMARK  status: ('A' for Active; 'I' for Inactive)
REMARK    1  A    between atoms: O1_2  and  C2_3 
REMARK    2  A    between atoms: C7_8  and  C8_9 
REMARK       I    between atoms: C8_9  and  N1_11 
REMARK    3  A    between atoms: N1_11  and  C9_12 
REMARK    4  A    between atoms: C22_28  and  N5_29 
ROOT
HETATM    1  C9  UNL     1      24.275   2.181  51.797  1.00  0.00     0.065 C 
HETATM    2  C10 UNL     1      23.237   2.278  52.616  1.00  0.00     0.029 C 
HETATM    3  C11 UNL     1      21.948   2.991  52.457  1.00  0.00    -0.000 C 
HETATM    4  C12 UNL     1      21.362   3.354  51.300  1.00  0.00     0.003 C 
HETATM    5  C13 UNL     1      22.096   2.997  50.021  1.00  0.00     0.303 C 
HETATM    6  N2  UNL     1      23.383   3.638  50.095  1.00  0.00     0.121 N 
HETATM    7  C14 UNL     1      23.562   4.250  48.789  1.00  0.00     0.292 C 
HETATM    8  C15 UNL     1      24.048   5.656  48.991  1.00  0.00     0.042 C 
HETATM    9  C16 UNL     1      25.547   5.520  49.056  1.00  0.00     0.004 C 
HETATM   10  C17 UNL     1      26.197   4.591  49.739  1.00  0.00     0.082 C 
HETATM   11  N3  UNL     1      25.719   3.523  50.554  1.00  0.00    -0.365 N 
HETATM   12  C18 UNL     1      24.462   2.799  50.451  1.00  0.00     0.372 C 
HETATM   13  C19 UNL     1      23.493   6.335  50.209  1.00  0.00     0.064 C 
HETATM   14  C20 UNL     1      22.189   7.021  49.882  1.00  0.00     0.084 C 
HETATM   15  N4  UNL     1      21.643   7.207  48.744  1.00  0.00    -0.303 NA
HETATM   16  C21 UNL     1      22.286   6.732  47.562  1.00  0.00     0.184 C 
HETATM   17  C22 UNL     1      23.752   6.559  47.812  1.00  0.00     0.251 C 
HETATM   18  H18 UNL     1      26.476   3.342  51.285  1.00  0.00     0.161 HD
ENDROOT
BRANCH   1  19
HETATM   19  N1  UNL     1      25.420   1.432  52.161  1.00  0.00    -0.323 N 
HETATM   20  C8  UNL     1      25.725   0.193  52.759  1.00  0.00     0.258 C 
HETATM   21  O2  UNL     1      24.667  -0.408  53.046  1.00  0.00    -0.267 OA
HETATM   22  H8  UNL     1      26.338   1.874  51.936  1.00  0.00     0.169 HD
BRANCH  20  23
HETATM   23  C7  UNL     1      26.998  -0.419  53.055  1.00  0.00     0.065 A 
HETATM   24  C2  UNL     1      28.091   0.063  53.713  1.00  0.00     0.084 A 
HETATM   25  C3  UNL     1      29.265  -0.603  53.948  1.00  0.00     0.038 A 
HETATM   26  C4  UNL     1      29.332  -1.888  53.462  1.00  0.00     0.003 A 
HETATM   27  C5  UNL     1      28.290  -2.462  52.789  1.00  0.00     0.001 A 
HETATM   28  C6  UNL     1      27.160  -1.733  52.598  1.00  0.00     0.020 A 
BRANCH  24  29
HETATM   29  O1  UNL     1      27.992   1.353  54.188  1.00  0.00    -0.355 OA
HETATM   30  C1  UNL     1      28.627   2.448  53.577  1.00  0.00     0.210 C 
ENDBRANCH  24  29
ENDBRANCH  20  23
ENDBRANCH   1  19
BRANCH  17  31
HETATM   31  N5  UNL     1      24.271   7.886  48.163  1.00  0.00     0.085 N 
HETATM   32  H26 UNL     1      23.975   8.119  49.145  1.00  0.00     0.313 HD
HETATM   33  H27 UNL     1      23.912   8.641  47.572  1.00  0.00     0.313 HD
ENDBRANCH  17  31
TORSDOF 4
ENDMDL
MODEL 3
REMARK VINA RESULT:      -8.5      4.138      7.819
REMARK  4 active torsions:
REMARK  status: ('A' for Active; 'I' for Inactive)
REMARK    1  A    between atoms: O1_2  and  C2_3 
REMARK    2  A    between atoms: C7_8  and  C8_9 
REMARK       I    between atoms: C8_9  and  N1_11 
REMARK    3  A    between atoms: N1_11  and  C9_12 
REMARK    4  A    between atoms: C22_28  and  N5_29 
ROOT
HETATM    1  C9  UNL     1      22.752   1.944  51.784  1.00  0.00     0.065 C 
HETATM    2  C10 UNL     1      22.910   3.249  51.610  1.00  0.00     0.029 C 
HETATM    3  C11 UNL     1      24.141   4.060  51.465  1.00  0.00    -0.000 C 
HETATM    4  C12 UNL     1      25.352   3.628  51.063  1.00  0.00     0.003 C 
HETATM    5  C13 UNL     1      25.472   2.155  50.721  1.00  0.00     0.303 C 
HETATM    6  N2  UNL     1      25.105   1.428  51.908  1.00  0.00     0.121 N 
HETATM    7  C14 UNL     1      26.129   0.406  52.042  1.00  0.00     0.292 C 
HETATM    8  C15 UNL     1      26.590   0.385  53.471  1.00  0.00     0.042 C 
HETATM    9  C16 UNL     1      25.644  -0.572  54.148  1.00  0.00     0.004 C 
HETATM   10  C17 UNL     1      24.332  -0.595  53.974  1.00  0.00     0.082 C 
HETATM   11  N3  UNL     1      23.482   0.211  53.161  1.00  0.00    -0.365 N 
HETATM   12  C18 UNL     1      23.800   0.888  51.914  1.00  0.00     0.372 C 
HETATM   13  C19 UNL     1      26.600   1.730  54.138  1.00  0.00     0.064 C 
HETATM   14  C20 UNL     1      27.920   2.423  53.907  1.00  0.00     0.084 C 
HETATM   15  N4  UNL     1      28.992   1.959  53.391  1.00  0.00    -0.303 NA
HETATM   16  C21 UNL     1      29.035   0.605  52.942  1.00  0.00     0.184 C 
HETATM   17  C22 UNL     1      27.978  -0.197  53.636  1.00  0.00     0.251 C 
HETATM   18  H18 UNL     1      22.533   0.234  53.650  1.00  0.00     0.161 HD
ENDROOT
BRANCH   1  19
HETATM   19  N1  UNL     1      21.460   1.377  51.897  1.00  0.00    -0.323 N 
HETATM   20  C8  UNL     1      20.505   0.753  51.071  1.00  0.00     0.258 C 
HETATM   21  O2  UNL     1      20.938   0.690  49.900  1.00  0.00    -0.267 OA
HETATM   22  H8  UNL     1      21.046   1.388  52.855  1.00  0.00     0.169 HD
BRANCH  20  23
HETATM   23  C7  UNL     1      19.199   0.222  51.379  1.00  0.00     0.065 A 
HETATM   24  C2  UNL     1      18.702  -0.318  52.528  1.00  0.00     0.084 A 
HETATM   25  C3  UNL     1      17.434  -0.799  52.725  1.00  0.00     0.038 A 
HETATM   26  C4  UNL     1      16.589  -0.722  51.642  1.00  0.00     0.003 A 
HETATM   27  C5  UNL     1      16.993  -0.198  50.446  1.00  0.00     0.001 A 
HETATM   28  C6  UNL     1      18.268   0.258  50.333  1.00  0.00     0.020 A 
BRANCH  24  29
HETATM   29  O1  UNL     1      19.572  -0.380  53.595  1.00  0.00    -0.355 OA
HETATM   30  C1  UNL     1      20.323  -1.526  53.910  1.00  0.00     0.210 C 
ENDBRANCH  24  29
ENDBRANCH  20  23
ENDBRANCH   1  19
BRANCH  17  31
HETATM   31  N5  UNL     1      28.287  -0.136  55.070  1.00  0.00     0.085 N 
HETATM   32  H26 UNL     1      27.397   0.030  55.604  1.00  0.00     0.313 HD
HETATM   33  H27 UNL     1      28.920   0.628  55.325  1.00  0.00     0.313 HD
ENDBRANCH  17  31
TORSDOF 4
ENDMDL
MODEL 4
REMARK VINA RESULT:      -8.5      3.142      7.956
REMARK  4 active torsions:
REMARK  status: ('A' for Active; 'I' for Inactive)
REMARK    1  A    between atoms: O1_2  and  C2_3 
REMARK    2  A    between atoms: C7_8  and  C8_9 
REMARK       I    between atoms: C8_9  and  N1_11 
REMARK    3  A    between atoms: N1_11  and  C9_12 
REMARK    4  A    between atoms: C22_28  and  N5_29 
ROOT
HETATM    1  C9  UNL     1      22.593   2.253  50.326  1.00  0.00     0.065 C 
HETATM    2  C10 UNL     1      21.822   1.176  50.384  1.00  0.00     0.029 C 
HETATM    3  C11 UNL     1      21.792   0.065  51.363  1.00  0.00    -0.000 C 
HETATM    4  C12 UNL     1      22.243   0.092  52.633  1.00  0.00     0.003 C 
HETATM    5  C13 UNL     1      22.845   1.398  53.114  1.00  0.00     0.303 C 
HETATM    6  N2  UNL     1      23.950   1.687  52.238  1.00  0.00     0.121 N 
HETATM    7  C14 UNL     1      25.033   2.071  53.128  1.00  0.00     0.292 C 
HETATM    8  C15 UNL     1      26.276   1.347  52.697  1.00  0.00     0.042 C 
HETATM    9  C16 UNL     1      26.892   2.258  51.667  1.00  0.00     0.004 C 
HETATM   10  C17 UNL     1      26.228   2.873  50.701  1.00  0.00     0.082 C 
HETATM   11  N3  UNL     1      24.842   2.862  50.365  1.00  0.00    -0.365 N 
HETATM   12  C18 UNL     1      23.701   2.658  51.242  1.00  0.00     0.372 C 
HETATM   13  C19 UNL     1      26.034  -0.031  52.153  1.00  0.00     0.064 C 
HETATM   14  C20 UNL     1      26.042  -1.046  53.268  1.00  0.00     0.084 C 
HETATM   15  N4  UNL     1      26.368  -0.892  54.492  1.00  0.00    -0.303 NA
HETATM   16  C21 UNL     1      26.797   0.387  54.958  1.00  0.00     0.184 C 
HETATM   17  C22 UNL     1      27.294   1.208  53.808  1.00  0.00     0.251 C 
HETATM   18  H18 UNL     1      24.788   3.035  49.313  1.00  0.00     0.161 HD
ENDROOT
BRANCH   1  19
HETATM   19  N1  UNL     1      22.441   3.199  49.284  1.00  0.00    -0.323 N 
HETATM   20  C8  UNL     1      22.457   3.230  47.876  1.00  0.00     0.258 C 
HETATM   21  O2  UNL     1      22.667   2.082  47.432  1.00  0.00    -0.267 OA
HETATM   22  H8  UNL     1      22.250   4.179  49.590  1.00  0.00     0.169 HD
BRANCH  20  23
HETATM   23  C7  UNL     1      22.274   4.330  46.958  1.00  0.00     0.065 A 
HETATM   24  C2  UNL     1      22.507   5.665  47.104  1.00  0.00     0.084 A 
HETATM   25  C3  UNL     1      22.301   6.640  46.164  1.00  0.00     0.038 A 
HETATM   26  C4  UNL     1      21.808   6.210  44.954  1.00  0.00     0.003 A 
HETATM   27  C5  UNL     1      21.542   4.892  44.708  1.00  0.00     0.001 A 
HETATM   28  C6  UNL     1      21.774   3.988  45.695  1.00  0.00     0.020 A 
BRANCH  24  29
HETATM   29  O1  UNL     1      23.001   6.064  48.327  1.00  0.00    -0.355 OA
HETATM   30  C1  UNL     1      24.365   6.313  48.561  1.00  0.00     0.210 C 
ENDBRANCH  24  29
ENDBRANCH  20  23
ENDBRANCH   1  19
BRANCH  17  31
HETATM   31  N5  UNL     1      28.433   0.476  53.240  1.00  0.00     0.085 N 
HETATM   32  H26 UNL     1      28.986   0.045  54.024  1.00  0.00     0.313 HD
HETATM   33  H27 UNL     1      29.088   1.068  52.720  1.00  0.00     0.313 HD
ENDBRANCH  17  31
TORSDOF 4
ENDMDL
MODEL 5
REMARK VINA RESULT:      -8.3      3.603      5.046
REMARK  4 active torsions:
REMARK  status: ('A' for Active; 'I' for Inactive)
REMARK    1  A    between atoms: O1_2  and  C2_3 
REMARK    2  A    between atoms: C7_8  and  C8_9 
REMARK       I    between atoms: C8_9  and  N1_11 
REMARK    3  A    between atoms: N1_11  and  C9_12 
REMARK    4  A    between atoms: C22_28  and  N5_29 
ROOT
HETATM    1  C9  UNL     1      22.608   0.994  52.965  1.00  0.00     0.065 C 
HETATM    2  C10 UNL     1      21.849   0.330  53.825  1.00  0.00     0.029 C 
HETATM    3  C11 UNL     1      20.406  -0.003  53.777  1.00  0.00    -0.000 C 
HETATM    4  C12 UNL     1      19.628  -0.077  52.680  1.00  0.00     0.003 C 
HETATM    5  C13 UNL     1      20.297   0.210  51.350  1.00  0.00     0.303 C 
HETATM    6  N2  UNL     1      20.826   1.546  51.437  1.00  0.00     0.121 N 
HETATM    7  C14 UNL     1      20.434   2.178  50.188  1.00  0.00     0.292 C 
HETATM    8  C15 UNL     1      19.872   3.534  50.502  1.00  0.00     0.042 C 
HETATM    9  C16 UNL     1      21.075   4.439  50.502  1.00  0.00     0.004 C 
HETATM   10  C17 UNL     1      22.237   4.160  51.073  1.00  0.00     0.082 C 
HETATM   11  N3  UNL     1      22.669   3.013  51.801  1.00  0.00    -0.365 N 
HETATM   12  C18 UNL     1      22.215   1.638  51.676  1.00  0.00     0.372 C 
HETATM   13  C19 UNL     1      19.115   3.607  51.796  1.00  0.00     0.064 C 
HETATM   14  C20 UNL     1      17.665   3.250  51.580  1.00  0.00     0.084 C 
HETATM   15  N4  UNL     1      17.037   3.071  50.484  1.00  0.00    -0.303 NA
HETATM   16  C21 UNL     1      17.725   3.206  49.241  1.00  0.00     0.184 C 
HETATM   17  C22 UNL     1      18.946   4.054  49.423  1.00  0.00     0.251 C 
HETATM   18  H18 UNL     1      23.414   3.356  52.486  1.00  0.00     0.161 HD
ENDROOT
BRANCH   1  19
HETATM   19  N1  UNL     1      23.987   1.196  53.218  1.00  0.00    -0.323 N 
HETATM   20  C8  UNL     1      25.161   0.428  53.336  1.00  0.00     0.258 C 
HETATM   21  O2  UNL     1      24.893  -0.781  53.167  1.00  0.00    -0.267 OA
HETATM   22  H8  UNL     1      24.279   2.188  53.357  1.00  0.00     0.169 HD
BRANCH  20  23
HETATM   23  C7  UNL     1      26.522   0.827  53.605  1.00  0.00     0.065 A 
HETATM   24  C2  UNL     1      27.255   1.878  53.139  1.00  0.00     0.084 A 
HETATM   25  C3  UNL     1      28.554   2.177  53.459  1.00  0.00     0.038 A 
HETATM   26  C4  UNL     1      29.167   1.317  54.340  1.00  0.00     0.003 A 
HETATM   27  C5  UNL     1      28.518   0.234  54.863  1.00  0.00     0.001 A 
HETATM   28  C6  UNL     1      27.229   0.008  54.495  1.00  0.00     0.020 A 
BRANCH  24  29
HETATM   29  O1  UNL     1      26.612   2.722  52.260  1.00  0.00    -0.355 OA
HETATM   30  C1  UNL     1      26.623   2.533  50.866  1.00  0.00     0.210 C 
ENDBRANCH  24  29
ENDBRANCH  20  23
ENDBRANCH   1  19
BRANCH  17  31
HETATM   31  N5  UNL     1      18.473   5.367  49.877  1.00  0.00     0.085 N 
HETATM   32  H26 UNL     1      18.946   6.115  49.309  1.00  0.00     0.313 HD
HETATM   33  H27 UNL     1      18.694   5.572  50.856  1.00  0.00     0.313 HD
ENDBRANCH  17  31
TORSDOF 4
ENDMDL
MODEL 6
REMARK VINA RESULT:      -8.2      2.935      4.939
REMARK  4 active torsions:
REMARK  status: ('A' for Active; 'I' for Inactive)
REMARK    1  A    between atoms: O1_2  and  C2_3 
REMARK    2  A    between atoms: C7_8  and  C8_9 
REMARK       I    between atoms: C8_9  and  N1_11 
REMARK    3  A    between atoms: N1_11  and  C9_12 
REMARK    4  A    between atoms: C22_28  and  N5_29 
ROOT
HETATM    1  C9  UNL     1      24.575   2.903  51.688  1.00  0.00     0.065 C 
HETATM    2  C10 UNL     1      24.846   3.987  50.974  1.00  0.00     0.029 C 
HETATM    3  C11 UNL     1      23.966   5.094  50.533  1.00  0.00    -0.000 C 
HETATM    4  C12 UNL     1      22.801   5.474  51.092  1.00  0.00     0.003 C 
HETATM    5  C13 UNL     1      22.336   4.686  52.301  1.00  0.00     0.303 C 
HETATM    6  N2  UNL     1      22.206   3.318  51.874  1.00  0.00     0.121 N 
HETATM    7  C14 UNL     1      20.925   2.887  52.409  1.00  0.00     0.292 C 
HETATM    8  C15 UNL     1      20.177   2.171  51.322  1.00  0.00     0.042 C 
HETATM    9  C16 UNL     1      20.632   0.740  51.445  1.00  0.00     0.004 C 
HETATM   10  C17 UNL     1      21.885   0.353  51.622  1.00  0.00     0.082 C 
HETATM   11  N3  UNL     1      23.089   1.107  51.741  1.00  0.00    -0.365 N 
HETATM   12  C18 UNL     1      23.263   2.459  52.248  1.00  0.00     0.372 C 
HETATM   13  C19 UNL     1      20.413   2.717  49.944  1.00  0.00     0.064 C 
HETATM   14  C20 UNL     1      19.436   3.826  49.642  1.00  0.00     0.084 C 
HETATM   15  N4  UNL     1      18.416   4.202  50.311  1.00  0.00    -0.303 NA
HETATM   16  C21 UNL     1      18.080   3.536  51.527  1.00  0.00     0.184 C 
HETATM   17  C22 UNL     1      18.680   2.163  51.540  1.00  0.00     0.251 C 
HETATM   18  H18 UNL     1      23.873   0.481  51.375  1.00  0.00     0.161 HD
ENDROOT
BRANCH   1  19
HETATM   19  N1  UNL     1      25.588   1.965  51.998  1.00  0.00    -0.323 N 
HETATM   20  C8  UNL     1      26.505   1.705  53.035  1.00  0.00     0.258 C 
HETATM   21  O2  UNL     1      26.374   2.560  53.937  1.00  0.00    -0.267 OA
HETATM   22  H8  UNL     1      25.740   1.215  51.288  1.00  0.00     0.169 HD
BRANCH  20  23
HETATM   23  C7  UNL     1      27.493   0.662  53.177  1.00  0.00     0.065 A 
HETATM   24  C2  UNL     1      27.384  -0.693  53.082  1.00  0.00     0.084 A 
HETATM   25  C3  UNL     1      28.392  -1.609  53.233  1.00  0.00     0.038 A 
HETATM   26  C4  UNL     1      29.636  -1.091  53.508  1.00  0.00     0.003 A 
HETATM   27  C5  UNL     1      29.849   0.255  53.623  1.00  0.00     0.001 A 
HETATM   28  C6  UNL     1      28.795   1.096  53.459  1.00  0.00     0.020 A 
BRANCH  24  29
HETATM   29  O1  UNL     1      26.125  -1.181  52.804  1.00  0.00    -0.355 OA
HETATM   30  C1  UNL     1      25.072  -1.166  53.735  1.00  0.00     0.210 C 
ENDBRANCH  24  29
ENDBRANCH  20  23
ENDBRANCH   1  19
BRANCH  17  31
HETATM   31  N5  UNL     1      18.096   1.447  50.401  1.00  0.00     0.085 N 
HETATM   32  H26 UNL     1      18.840   0.854  49.953  1.00  0.00     0.313 HD
HETATM   33  H27 UNL     1      17.739   2.061  49.663  1.00  0.00     0.313 HD
ENDBRANCH  17  31
TORSDOF 4
ENDMDL
MODEL 7
REMARK VINA RESULT:      -8.1      2.340      4.080
REMARK  4 active torsions:
REMARK  status: ('A' for Active; 'I' for Inactive)
REMARK    1  A    between atoms: O1_2  and  C2_3 
REMARK    2  A    between atoms: C7_8  and  C8_9 
REMARK       I    between atoms: C8_9  and  N1_11 
REMARK    3  A    between atoms: N1_11  and  C9_12 
REMARK    4  A    between atoms: C22_28  and  N5_29 
ROOT
HETATM    1  C9  UNL     1      24.696   3.752  51.087  1.00  0.00     0.065 C 
HETATM    2  C10 UNL     1      25.650   3.582  50.181  1.00  0.00     0.029 C 
HETATM    3  C11 UNL     1      26.168   4.504  49.144  1.00  0.00    -0.000 C 
HETATM    4  C12 UNL     1      26.090   5.849  49.145  1.00  0.00     0.003 C 
HETATM    5  C13 UNL     1      25.398   6.492  50.332  1.00  0.00     0.303 C 
HETATM    6  N2  UNL     1      24.060   5.963  50.362  1.00  0.00     0.121 N 
HETATM    7  C14 UNL     1      23.212   7.124  50.572  1.00  0.00     0.292 C 
HETATM    8  C15 UNL     1      22.066   7.052  49.604  1.00  0.00     0.042 C 
HETATM    9  C16 UNL     1      21.022   6.245  50.330  1.00  0.00     0.004 C 
HETATM   10  C17 UNL     1      21.259   5.137  51.014  1.00  0.00     0.082 C 
HETATM   11  N3  UNL     1      22.471   4.426  51.254  1.00  0.00    -0.365 N 
HETATM   12  C18 UNL     1      23.827   4.945  51.314  1.00  0.00     0.372 C 
HETATM   13  C19 UNL     1      22.416   6.450  48.274  1.00  0.00     0.064 C 
HETATM   14  C20 UNL     1      22.917   7.515  47.329  1.00  0.00     0.084 C 
HETATM   15  N4  UNL     1      22.919   8.783  47.475  1.00  0.00    -0.303 NA
HETATM   16  C21 UNL     1      22.392   9.360  48.669  1.00  0.00     0.184 C 
HETATM   17  C22 UNL     1      21.444   8.403  49.324  1.00  0.00     0.251 C 
HETATM   18  H18 UNL     1      22.197   3.401  51.384  1.00  0.00     0.161 HD
ENDROOT
BRANCH   1  19
HETATM   19  N1  UNL     1      24.363   2.718  51.994  1.00  0.00    -0.323 N 
HETATM   20  C8  UNL     1      23.576   1.550  52.021  1.00  0.00     0.258 C 
HETATM   21  O2  UNL     1      23.012   1.397  50.917  1.00  0.00    -0.267 OA
HETATM   22  H8  UNL     1      24.813   2.781  52.934  1.00  0.00     0.169 HD
BRANCH  20  23
HETATM   23  C7  UNL     1      23.356   0.589  53.076  1.00  0.00     0.065 A 
HETATM   24  C2  UNL     1      24.234  -0.170  53.791  1.00  0.00     0.084 A 
HETATM   25  C3  UNL     1      23.925  -1.063  54.784  1.00  0.00     0.038 A 
HETATM   26  C4  UNL     1      22.588  -1.196  55.075  1.00  0.00     0.003 A 
HETATM   27  C5  UNL     1      21.629  -0.480  54.414  1.00  0.00     0.001 A 
HETATM   28  C6  UNL     1      22.019   0.386  53.442  1.00  0.00     0.020 A 
BRANCH  24  29
HETATM   29  O1  UNL     1      25.567  -0.014  53.477  1.00  0.00    -0.355 OA
HETATM   30  C1  UNL     1      26.515   0.495  54.381  1.00  0.00     0.210 C 
ENDBRANCH  24  29
ENDBRANCH  20  23
ENDBRANCH   1  19
BRANCH  17  31
HETATM   31  N5  UNL     1      20.360   8.171  48.362  1.00  0.00     0.085 N 
HETATM   32  H26 UNL     1      19.698   8.988  48.390  1.00  0.00     0.313 HD
HETATM   33  H27 UNL     1      19.796   7.341  48.564  1.00  0.00     0.313 HD
ENDBRANCH  17  31
TORSDOF 4
ENDMDL
MODEL 8
REMARK VINA RESULT:      -8.0      4.641      6.590
REMARK  4 active torsions:
REMARK  status: ('A' for Active; 'I' for Inactive)
REMARK    1  A    between atoms: O1_2  and  C2_3 
REMARK    2  A    between atoms: C7_8  and  C8_9 
REMARK       I    between atoms: C8_9  and  N1_11 
REMARK    3  A    between atoms: N1_11  and  C9_12 
REMARK    4  A    between atoms: C22_28  and  N5_29 
ROOT
HETATM    1  C9  UNL     1      22.364   1.081  52.298  1.00  0.00     0.065 C 
HETATM    2  C10 UNL     1      23.505   0.457  52.553  1.00  0.00     0.029 C 
HETATM    3  C11 UNL     1      24.895   0.968  52.592  1.00  0.00    -0.000 C 
HETATM    4  C12 UNL     1      25.283   2.243  52.787  1.00  0.00     0.003 C 
HETATM    5  C13 UNL     1      24.183   3.268  52.989  1.00  0.00     0.303 C 
HETATM    6  N2  UNL     1      23.360   3.223  51.809  1.00  0.00     0.121 N 
HETATM    7  C14 UNL     1      23.155   4.617  51.453  1.00  0.00     0.292 C 
HETATM    8  C15 UNL     1      23.389   4.765  49.977  1.00  0.00     0.042 C 
HETATM    9  C16 UNL     1      22.043   4.482  49.362  1.00  0.00     0.004 C 
HETATM   10  C17 UNL     1      21.241   3.489  49.713  1.00  0.00     0.082 C 
HETATM   11  N3  UNL     1      21.390   2.469  50.698  1.00  0.00    -0.365 N 
HETATM   12  C18 UNL     1      22.145   2.514  51.940  1.00  0.00     0.372 C 
HETATM   13  C19 UNL     1      24.458   3.868  49.426  1.00  0.00     0.064 C 
HETATM   14  C20 UNL     1      25.809   4.533  49.529  1.00  0.00     0.084 C 
HETATM   15  N4  UNL     1      26.090   5.734  49.853  1.00  0.00    -0.303 NA
HETATM   16  C21 UNL     1      25.041   6.645  50.181  1.00  0.00     0.184 C 
HETATM   17  C22 UNL     1      23.752   6.179  49.576  1.00  0.00     0.251 C 
HETATM   18  H18 UNL     1      20.830   1.630  50.348  1.00  0.00     0.161 HD
ENDROOT
BRANCH   1  19
HETATM   19  N1  UNL     1      21.133   0.382  52.318  1.00  0.00    -0.323 N 
HETATM   20  C8  UNL     1      20.186  -0.060  53.263  1.00  0.00     0.258 C 
HETATM   21  O2  UNL     1      20.554   0.264  54.412  1.00  0.00    -0.267 OA
HETATM   22  H8  UNL     1      20.764   0.093  51.386  1.00  0.00     0.169 HD
BRANCH  20  23
HETATM   23  C7  UNL     1      18.948  -0.782  53.085  1.00  0.00     0.065 A 
HETATM   24  C2  UNL     1      17.848  -0.498  52.332  1.00  0.00     0.084 A 
HETATM   25  C3  UNL     1      16.710  -1.254  52.227  1.00  0.00     0.038 A 
HETATM   26  C4  UNL     1      16.692  -2.415  52.965  1.00  0.00     0.003 A 
HETATM   27  C5  UNL     1      17.746  -2.788  53.751  1.00  0.00     0.001 A 
HETATM   28  C6  UNL     1      18.839  -1.981  53.800  1.00  0.00     0.020 A 
BRANCH  24  29
HETATM   29  O1  UNL     1      17.897   0.671  51.604  1.00  0.00    -0.355 OA
HETATM   30  C1  UNL     1      18.125   0.704  50.217  1.00  0.00     0.210 C 
ENDBRANCH  24  29
ENDBRANCH  20  23
ENDBRANCH   1  19
BRANCH  17  31
HETATM   31  N5  UNL     1      23.961   6.159  48.124  1.00  0.00     0.085 N 
HETATM   32  H26 UNL     1      23.112   5.743  47.663  1.00  0.00     0.313 HD
HETATM   33  H27 UNL     1      24.756   5.586  47.826  1.00  0.00     0.313 HD
ENDBRANCH  17  31
TORSDOF 4
ENDMDL
MODEL 9
REMARK VINA RESULT:      -8.0      2.815      3.888
REMARK  4 active torsions:
REMARK  status: ('A' for Active; 'I' for Inactive)
REMARK    1  A    between atoms: O1_2  and  C2_3 
REMARK    2  A    between atoms: C7_8  and  C8_9 
REMARK       I    between atoms: C8_9  and  N1_11 
REMARK    3  A    between atoms: N1_11  and  C9_12 
REMARK    4  A    between atoms: C22_28  and  N5_29 
ROOT
HETATM    1  C9  UNL     1      23.056   1.133  52.029  1.00  0.00     0.065 C 
HETATM    2  C10 UNL     1      22.077   0.857  52.880  1.00  0.00     0.029 C 
HETATM    3  C11 UNL     1      20.611   1.025  52.748  1.00  0.00    -0.000 C 
HETATM    4  C12 UNL     1      19.904   1.103  51.604  1.00  0.00     0.003 C 
HETATM    5  C13 UNL     1      20.690   1.008  50.310  1.00  0.00     0.303 C 
HETATM    6  N2  UNL     1      21.639   2.089  50.327  1.00  0.00     0.121 N 
HETATM    7  C14 UNL     1      21.544   2.681  49.003  1.00  0.00     0.292 C 
HETATM    8  C15 UNL     1      21.466   4.173  49.158  1.00  0.00     0.042 C 
HETATM    9  C16 UNL     1      22.906   4.615  49.177  1.00  0.00     0.004 C 
HETATM   10  C17 UNL     1      23.874   4.023  49.857  1.00  0.00     0.082 C 
HETATM   11  N3  UNL     1      23.856   2.880  50.709  1.00  0.00    -0.365 N 
HETATM   12  C18 UNL     1      22.964   1.733  50.664  1.00  0.00     0.372 C 
HETATM   13  C19 UNL     1      20.723   4.631  50.380  1.00  0.00     0.064 C 
HETATM   14  C20 UNL     1      19.250   4.762  50.082  1.00  0.00     0.084 C 
HETATM   15  N4  UNL     1      18.648   4.691  48.959  1.00  0.00    -0.303 NA
HETATM   16  C21 UNL     1      19.395   4.456  47.767  1.00  0.00     0.184 C 
HETATM   17  C22 UNL     1      20.823   4.858  47.971  1.00  0.00     0.251 C 
HETATM   18  H18 UNL     1      24.641   3.022  51.419  1.00  0.00     0.161 HD
ENDROOT
BRANCH   1  19
HETATM   19  N1  UNL     1      24.407   0.884  52.370  1.00  0.00    -0.323 N 
HETATM   20  C8  UNL     1      25.444   1.505  53.093  1.00  0.00     0.258 C 
HETATM   21  O2  UNL     1      25.041   2.590  53.562  1.00  0.00    -0.267 OA
HETATM   22  H8  UNL     1      24.802  -0.016  52.018  1.00  0.00     0.169 HD
BRANCH  20  23
HETATM   23  C7  UNL     1      26.802   1.080  53.340  1.00  0.00     0.065 A 
HETATM   24  C2  UNL     1      27.357  -0.164  53.379  1.00  0.00     0.084 A 
HETATM   25  C3  UNL     1      28.671  -0.467  53.622  1.00  0.00     0.038 A 
HETATM   26  C4  UNL     1      29.501   0.605  53.850  1.00  0.00     0.003 A 
HETATM   27  C5  UNL     1      29.041   1.892  53.832  1.00  0.00     0.001 A 
HETATM   28  C6  UNL     1      27.723   2.108  53.583  1.00  0.00     0.020 A 
BRANCH  24  29
HETATM   29  O1  UNL     1      26.500  -1.218  53.146  1.00  0.00    -0.355 OA
HETATM   30  C1  UNL     1      26.834  -2.315  52.333  1.00  0.00     0.210 C 
ENDBRANCH  24  29
ENDBRANCH  20  23
ENDBRANCH   1  19
BRANCH  17  31
HETATM   31  N5  UNL     1      20.809   6.293  48.277  1.00  0.00     0.085 N 
HETATM   32  H26 UNL     1      19.868   6.687  48.019  1.00  0.00     0.313 HD
HETATM   33  H27 UNL     1      21.499   6.837  47.750  1.00  0.00     0.313 HD
ENDBRANCH  17  31
TORSDOF 4
ENDMDL
