MODEL 1
REMARK VINA RESULT:      -8.1      0.000      0.000
REMARK  5 active torsions:
REMARK  status: ('A' for Active; 'I' for Inactive)
REMARK    1  A    between atoms: C7_7  and  N1_8 
REMARK    2  A    between atoms: N1_8  and  C8_9 
REMARK    3  A    between atoms: C12_13  and  O1_14 
REMARK    4  A    between atoms: O1_14  and  C13_15 
REMARK    5  A    between atoms: C13_15  and  C14_16 
ROOT
HETATM    1  C1  UNL     1      21.909  -1.157  54.487  1.00  0.00     0.018 C 
HETATM    2  C2  UNL     1      21.071  -0.570  53.827  1.00  0.00    -0.078 C 
HETATM    3  C3  UNL     1      20.099   0.132  53.039  1.00  0.00     0.019 A 
HETATM    4  C4  UNL     1      19.002  -0.553  52.554  1.00  0.00     0.021 A 
HETATM    5  C5  UNL     1      18.084   0.129  51.806  1.00  0.00     0.004 A 
HETATM    6  C6  UNL     1      18.246   1.463  51.545  1.00  0.00     0.029 A 
HETATM    7  C7  UNL     1      19.318   2.213  51.998  1.00  0.00     0.035 A 
HETATM    8  C23 UNL     1      20.210   1.474  52.745  1.00  0.00     0.050 A 
ENDROOT
BRANCH   7   9
HETATM    9  N1  UNL     1      19.454   3.590  51.709  1.00  0.00    -0.341 N 
HETATM   10  H5  UNL     1      18.728   4.203  52.152  1.00  0.00     0.167 HD
BRANCH   9  11
HETATM   11  C8  UNL     1      20.448   4.201  50.903  1.00  0.00     0.132 C 
HETATM   12  C9  UNL     1      21.676   4.438  51.454  1.00  0.00     0.090 C 
HETATM   13  C10 UNL     1      22.689   5.210  50.905  1.00  0.00     0.108 C 
HETATM   14  C11 UNL     1      23.864   4.909  50.238  1.00  0.00     0.135 C 
HETATM   15  O4  UNL     1      22.246   6.492  51.187  1.00  0.00    -0.346 OA
HETATM   16  C12 UNL     1      24.180   3.571  50.029  1.00  0.00     0.106 C 
HETATM   17  O3  UNL     1      24.542   6.074  49.884  1.00  0.00    -0.344 OA
HETATM   18  C18 UNL     1      23.168   2.673  49.785  1.00  0.00     0.059 C 
HETATM   19  C19 UNL     1      22.451   2.072  48.766  1.00  0.00     0.121 C 
HETATM   20  N2  UNL     1      21.202   2.613  48.870  1.00  0.00    -0.254 NA
HETATM   21  C20 UNL     1      21.006   3.930  48.665  1.00  0.00     0.234 C 
HETATM   22  N3  UNL     1      20.385   4.603  49.643  1.00  0.00    -0.224 NA
HETATM   23  C21 UNL     1      23.760   7.175  49.451  1.00  0.00     0.202 C 
HETATM   24  C22 UNL     1      22.973   7.625  50.689  1.00  0.00     0.202 C 
BRANCH  16  25
HETATM   25  O1  UNL     1      25.488   3.577  50.141  1.00  0.00    -0.346 OA
BRANCH  25  26
HETATM   26  C13 UNL     1      26.569   2.790  50.305  1.00  0.00     0.207 C 
BRANCH  26  27
HETATM   27  C14 UNL     1      26.690   2.302  51.734  1.00  0.00     0.145 C 
HETATM   28  C15 UNL     1      26.578   0.808  51.845  1.00  0.00     0.036 C 
HETATM   29  C16 UNL     1      27.569   0.487  52.975  1.00  0.00     0.029 C 
HETATM   30  C17 UNL     1      27.937   1.881  53.451  1.00  0.00     0.168 C 
HETATM   31  O2  UNL     1      27.979   2.546  52.226  1.00  0.00    -0.384 OA
ENDBRANCH  26  27
ENDBRANCH  25  26
ENDBRANCH  16  25
ENDBRANCH   9  11
ENDBRANCH   7   9
TORSDOF 5
ENDMDL
MODEL 2
REMARK VINA RESULT:      -8.0      2.159      4.853
REMARK  5 active torsions:
REMARK  status: ('A' for Active; 'I' for Inactive)
REMARK    1  A    between atoms: C7_7  and  N1_8 
REMARK    2  A    between atoms: N1_8  and  C8_9 
REMARK    3  A    between atoms: C12_13  and  O1_14 
REMARK    4  A    between atoms: O1_14  and  C13_15 
REMARK    5  A    between atoms: C13_15  and  C14_16 
ROOT
HETATM    1  C1  UNL     1      26.425   0.347  52.161  1.00  0.00     0.018 C 
HETATM    2  C2  UNL     1      25.407   0.052  52.762  1.00  0.00    -0.078 C 
HETATM    3  C3  UNL     1      24.200  -0.301  53.452  1.00  0.00     0.019 A 
HETATM    4  C4  UNL     1      24.283  -0.888  54.699  1.00  0.00     0.021 A 
HETATM    5  C5  UNL     1      23.125  -1.218  55.345  1.00  0.00     0.004 A 
HETATM    6  C6  UNL     1      21.908  -0.971  54.768  1.00  0.00     0.029 A 
HETATM    7  C7  UNL     1      21.749  -0.387  53.523  1.00  0.00     0.035 A 
HETATM    8  C23 UNL     1      22.948  -0.076  52.921  1.00  0.00     0.050 A 
ENDROOT
BRANCH   7   9
HETATM    9  N1  UNL     1      20.475  -0.146  52.957  1.00  0.00    -0.341 N 
HETATM   10  H5  UNL     1      19.723  -0.802  53.278  1.00  0.00     0.167 HD
BRANCH   9  11
HETATM   11  C8  UNL     1      20.130   0.868  52.028  1.00  0.00     0.132 C 
HETATM   12  C9  UNL     1      20.085   2.162  52.464  1.00  0.00     0.090 C 
HETATM   13  C10 UNL     1      19.565   3.246  51.773  1.00  0.00     0.108 C 
HETATM   14  C11 UNL     1      20.136   4.283  51.055  1.00  0.00     0.135 C 
HETATM   15  O4  UNL     1      18.204   3.070  51.963  1.00  0.00    -0.346 OA
HETATM   16  C12 UNL     1      21.521   4.330  50.952  1.00  0.00     0.106 C 
HETATM   17  O3  UNL     1      19.152   5.128  50.544  1.00  0.00    -0.344 OA
HETATM   18  C18 UNL     1      22.228   3.155  50.868  1.00  0.00     0.059 C 
HETATM   19  C19 UNL     1      22.763   2.253  49.965  1.00  0.00     0.121 C 
HETATM   20  N2  UNL     1      21.989   1.137  50.106  1.00  0.00    -0.254 NA
HETATM   21  C20 UNL     1      20.680   1.166  49.791  1.00  0.00     0.234 C 
HETATM   22  N3  UNL     1      19.825   0.768  50.743  1.00  0.00    -0.224 NA
HETATM   23  C21 UNL     1      17.962   4.524  50.065  1.00  0.00     0.202 C 
HETATM   24  C22 UNL     1      17.273   3.945  51.308  1.00  0.00     0.202 C 
BRANCH  16  25
HETATM   25  O1  UNL     1      21.754   5.622  50.969  1.00  0.00    -0.346 OA
BRANCH  25  26
HETATM   26  C13 UNL     1      21.950   6.702  50.187  1.00  0.00     0.207 C 
BRANCH  26  27
HETATM   27  C14 UNL     1      23.396   6.813  49.746  1.00  0.00     0.145 C 
HETATM   28  C15 UNL     1      24.362   6.483  50.848  1.00  0.00     0.036 C 
HETATM   29  C16 UNL     1      25.494   5.772  50.091  1.00  0.00     0.029 C 
HETATM   30  C17 UNL     1      25.068   5.989  48.649  1.00  0.00     0.168 C 
HETATM   31  O2  UNL     1      23.689   5.838  48.784  1.00  0.00    -0.384 OA
ENDBRANCH  26  27
ENDBRANCH  25  26
ENDBRANCH  16  25
ENDBRANCH   9  11
ENDBRANCH   7   9
TORSDOF 5
ENDMDL
MODEL 3
REMARK VINA RESULT:      -8.0      2.833      6.473
REMARK  5 active torsions:
REMARK  status: ('A' for Active; 'I' for Inactive)
REMARK    1  A    between atoms: C7_7  and  N1_8 
REMARK    2  A    between atoms: N1_8  and  C8_9 
REMARK    3  A    between atoms: C12_13  and  O1_14 
REMARK    4  A    between atoms: O1_14  and  C13_15 
REMARK    5  A    between atoms: C13_15  and  C14_16 
ROOT
HETATM    1  C1  UNL     1      25.260   9.108  47.010  1.00  0.00     0.018 C 
HETATM    2  C2  UNL     1      25.247   8.016  47.550  1.00  0.00    -0.078 C 
HETATM    3  C3  UNL     1      25.218   6.723  48.170  1.00  0.00     0.019 A 
HETATM    4  C4  UNL     1      26.386   6.196  48.686  1.00  0.00     0.021 A 
HETATM    5  C5  UNL     1      26.342   4.964  49.275  1.00  0.00     0.004 A 
HETATM    6  C6  UNL     1      25.166   4.267  49.353  1.00  0.00     0.029 A 
HETATM    7  C7  UNL     1      23.960   4.732  48.859  1.00  0.00     0.035 A 
HETATM    8  C23 UNL     1      24.064   5.976  48.277  1.00  0.00     0.050 A 
ENDROOT
BRANCH   7   9
HETATM    9  N1  UNL     1      22.764   3.984  48.957  1.00  0.00    -0.341 N 
HETATM   10  H5  UNL     1      22.227   3.897  48.060  1.00  0.00     0.167 HD
BRANCH   9  11
HETATM   11  C8  UNL     1      22.239   3.359  50.116  1.00  0.00     0.132 C 
HETATM   12  C9  UNL     1      22.528   2.041  50.333  1.00  0.00     0.090 C 
HETATM   13  C10 UNL     1      21.939   1.213  51.276  1.00  0.00     0.108 C 
HETATM   14  C11 UNL     1      22.338   0.743  52.515  1.00  0.00     0.135 C 
HETATM   15  O4  UNL     1      20.732   0.911  50.666  1.00  0.00    -0.346 OA
HETATM   16  C12 UNL     1      23.582   1.131  52.999  1.00  0.00     0.106 C 
HETATM   17  O3  UNL     1      21.356  -0.076  53.070  1.00  0.00    -0.344 OA
HETATM   18  C18 UNL     1      24.047   2.393  52.719  1.00  0.00     0.059 C 
HETATM   19  C19 UNL     1      24.089   3.686  53.211  1.00  0.00     0.121 C 
HETATM   20  N2  UNL     1      23.280   4.392  52.367  1.00  0.00    -0.254 NA
HETATM   21  C20 UNL     1      21.963   4.121  52.293  1.00  0.00     0.234 C 
HETATM   22  N3  UNL     1      21.473   3.861  51.074  1.00  0.00    -0.224 NA
HETATM   23  C21 UNL     1      20.004   0.306  52.874  1.00  0.00     0.202 C 
HETATM   24  C22 UNL     1      19.750   0.137  51.370  1.00  0.00     0.202 C 
BRANCH  16  25
HETATM   25  O1  UNL     1      23.973   0.056  53.644  1.00  0.00    -0.346 OA
BRANCH  25  26
HETATM   26  C13 UNL     1      24.955  -0.455  54.412  1.00  0.00     0.207 C 
BRANCH  26  27
HETATM   27  C14 UNL     1      26.322  -0.003  53.938  1.00  0.00     0.145 C 
HETATM   28  C15 UNL     1      27.311   0.118  55.063  1.00  0.00     0.036 C 
HETATM   29  C16 UNL     1      28.619  -0.344  54.403  1.00  0.00     0.029 C 
HETATM   30  C17 UNL     1      28.190  -0.469  52.952  1.00  0.00     0.168 C 
HETATM   31  O2  UNL     1      26.907  -0.985  53.127  1.00  0.00    -0.384 OA
ENDBRANCH  26  27
ENDBRANCH  25  26
ENDBRANCH  16  25
ENDBRANCH   9  11
ENDBRANCH   7   9
TORSDOF 5
ENDMDL
MODEL 4
REMARK VINA RESULT:      -7.9      2.841      5.530
REMARK  5 active torsions:
REMARK  status: ('A' for Active; 'I' for Inactive)
REMARK    1  A    between atoms: C7_7  and  N1_8 
REMARK    2  A    between atoms: N1_8  and  C8_9 
REMARK    3  A    between atoms: C12_13  and  O1_14 
REMARK    4  A    between atoms: O1_14  and  C13_15 
REMARK    5  A    between atoms: C13_15  and  C14_16 
ROOT
HETATM    1  C1  UNL     1      28.248   2.327  53.660  1.00  0.00     0.018 C 
HETATM    2  C2  UNL     1      27.083   2.018  53.485  1.00  0.00    -0.078 C 
HETATM    3  C3  UNL     1      25.710   1.669  53.263  1.00  0.00     0.019 A 
HETATM    4  C4  UNL     1      25.312   0.358  53.436  1.00  0.00     0.021 A 
HETATM    5  C5  UNL     1      24.000   0.039  53.221  1.00  0.00     0.004 A 
HETATM    6  C6  UNL     1      23.100   1.000  52.844  1.00  0.00     0.029 A 
HETATM    7  C7  UNL     1      23.427   2.331  52.652  1.00  0.00     0.035 A 
HETATM    8  C23 UNL     1      24.760   2.592  52.882  1.00  0.00     0.050 A 
ENDROOT
BRANCH   7   9
HETATM    9  N1  UNL     1      22.471   3.296  52.262  1.00  0.00    -0.341 N 
HETATM   10  H5  UNL     1      21.570   3.261  52.798  1.00  0.00     0.167 HD
BRANCH   9  11
HETATM   11  C8  UNL     1      22.611   4.277  51.248  1.00  0.00     0.132 C 
HETATM   12  C9  UNL     1      23.051   5.522  51.602  1.00  0.00     0.090 C 
HETATM   13  C10 UNL     1      23.043   6.656  50.805  1.00  0.00     0.108 C 
HETATM   14  C11 UNL     1      24.019   7.323  50.085  1.00  0.00     0.135 C 
HETATM   15  O4  UNL     1      21.713   7.039  50.877  1.00  0.00    -0.346 OA
HETATM   16  C12 UNL     1      25.315   6.821  50.108  1.00  0.00     0.106 C 
HETATM   17  O3  UNL     1      23.480   8.433  49.437  1.00  0.00    -0.344 OA
HETATM   18  C18 UNL     1      25.507   5.461  50.157  1.00  0.00     0.059 C 
HETATM   19  C19 UNL     1      25.700   4.346  49.361  1.00  0.00     0.121 C 
HETATM   20  N2  UNL     1      24.542   3.634  49.494  1.00  0.00    -0.254 NA
HETATM   21  C20 UNL     1      23.373   4.139  49.058  1.00  0.00     0.234 C 
HETATM   22  N3  UNL     1      22.372   4.189  49.947  1.00  0.00    -0.224 NA
HETATM   23  C21 UNL     1      22.181   8.297  48.885  1.00  0.00     0.202 C 
HETATM   24  C22 UNL     1      21.244   8.143  50.091  1.00  0.00     0.202 C 
BRANCH  16  25
HETATM   25  O1  UNL     1      26.035   7.918  50.071  1.00  0.00    -0.346 OA
BRANCH  25  26
HETATM   26  C13 UNL     1      27.200   8.441  49.641  1.00  0.00     0.207 C 
BRANCH  26  27
HETATM   27  C14 UNL     1      26.972   9.593  48.683  1.00  0.00     0.145 C 
HETATM   28  C15 UNL     1      26.258   9.170  47.431  1.00  0.00     0.036 C 
HETATM   29  C16 UNL     1      25.369  10.387  47.132  1.00  0.00     0.029 C 
HETATM   30  C17 UNL     1      25.872  11.382  48.163  1.00  0.00     0.168 C 
HETATM   31  O2  UNL     1      26.082  10.521  49.239  1.00  0.00    -0.384 OA
ENDBRANCH  26  27
ENDBRANCH  25  26
ENDBRANCH  16  25
ENDBRANCH   9  11
ENDBRANCH   7   9
TORSDOF 5
ENDMDL
MODEL 5
REMARK VINA RESULT:      -7.8      2.960      6.348
REMARK  5 active torsions:
REMARK  status: ('A' for Active; 'I' for Inactive)
REMARK    1  A    between atoms: C7_7  and  N1_8 
REMARK    2  A    between atoms: N1_8  and  C8_9 
REMARK    3  A    between atoms: C12_13  and  O1_14 
REMARK    4  A    between atoms: O1_14  and  C13_15 
REMARK    5  A    between atoms: C13_15  and  C14_16 
ROOT
HETATM    1  C1  UNL     1      21.682  -1.138  54.634  1.00  0.00     0.018 C 
HETATM    2  C2  UNL     1      22.679  -0.698  54.089  1.00  0.00    -0.078 C 
HETATM    3  C3  UNL     1      23.845  -0.162  53.450  1.00  0.00     0.019 A 
HETATM    4  C4  UNL     1      25.083  -0.702  53.740  1.00  0.00     0.021 A 
HETATM    5  C5  UNL     1      26.185  -0.181  53.122  1.00  0.00     0.004 A 
HETATM    6  C6  UNL     1      26.065   0.854  52.234  1.00  0.00     0.029 A 
HETATM    7  C7  UNL     1      24.860   1.445  51.896  1.00  0.00     0.035 A 
HETATM    8  C23 UNL     1      23.786   0.879  52.548  1.00  0.00     0.050 A 
ENDROOT
BRANCH   7   9
HETATM    9  N1  UNL     1      24.773   2.513  50.974  1.00  0.00    -0.341 N 
HETATM   10  H5  UNL     1      25.688   2.973  50.750  1.00  0.00     0.167 HD
BRANCH   9  11
HETATM   11  C8  UNL     1      23.603   3.005  50.342  1.00  0.00     0.132 C 
HETATM   12  C9  UNL     1      22.789   2.116  49.698  1.00  0.00     0.090 C 
HETATM   13  C10 UNL     1      21.736   2.428  48.852  1.00  0.00     0.108 C 
HETATM   14  C11 UNL     1      20.360   2.446  49.006  1.00  0.00     0.135 C 
HETATM   15  O4  UNL     1      22.405   2.755  47.684  1.00  0.00    -0.346 OA
HETATM   16  C12 UNL     1      19.830   2.089  50.241  1.00  0.00     0.106 C 
HETATM   17  O3  UNL     1      19.737   2.844  47.825  1.00  0.00    -0.344 OA
HETATM   18  C18 UNL     1      20.512   2.423  51.386  1.00  0.00     0.059 C 
HETATM   19  C19 UNL     1      20.621   3.402  52.357  1.00  0.00     0.121 C 
HETATM   20  N2  UNL     1      21.838   3.974  52.122  1.00  0.00    -0.254 NA
HETATM   21  C20 UNL     1      22.075   4.636  50.973  1.00  0.00     0.234 C 
HETATM   22  N3  UNL     1      23.142   4.244  50.264  1.00  0.00    -0.224 NA
HETATM   23  C21 UNL     1      20.366   3.868  47.072  1.00  0.00     0.202 C 
HETATM   24  C22 UNL     1      21.670   3.248  46.553  1.00  0.00     0.202 C 
BRANCH  16  25
HETATM   25  O1  UNL     1      18.721   1.476  49.896  1.00  0.00    -0.346 OA
BRANCH  25  26
HETATM   26  C13 UNL     1      17.465   1.193  50.295  1.00  0.00     0.207 C 
BRANCH  26  27
HETATM   27  C14 UNL     1      17.386  -0.170  50.952  1.00  0.00     0.145 C 
HETATM   28  C15 UNL     1      18.455  -0.374  51.988  1.00  0.00     0.036 C 
HETATM   29  C16 UNL     1      17.724  -1.204  53.055  1.00  0.00     0.029 C 
HETATM   30  C17 UNL     1      16.410  -1.499  52.353  1.00  0.00     0.168 C 
HETATM   31  O2  UNL     1      16.210  -0.280  51.706  1.00  0.00    -0.384 OA
ENDBRANCH  26  27
ENDBRANCH  25  26
ENDBRANCH  16  25
ENDBRANCH   9  11
ENDBRANCH   7   9
TORSDOF 5
ENDMDL
MODEL 6
REMARK VINA RESULT:      -7.8      2.193      3.840
REMARK  5 active torsions:
REMARK  status: ('A' for Active; 'I' for Inactive)
REMARK    1  A    between atoms: C7_7  and  N1_8 
REMARK    2  A    between atoms: N1_8  and  C8_9 
REMARK    3  A    between atoms: C12_13  and  O1_14 
REMARK    4  A    between atoms: O1_14  and  C13_15 
REMARK    5  A    between atoms: C13_15  and  C14_16 
ROOT
HETATM    1  C1  UNL     1      26.225  -0.107  52.434  1.00  0.00     0.018 C 
HETATM    2  C2  UNL     1      25.062   0.016  52.777  1.00  0.00    -0.078 C 
HETATM    3  C3  UNL     1      23.689   0.165  53.161  1.00  0.00     0.019 A 
HETATM    4  C4  UNL     1      23.140  -0.725  54.064  1.00  0.00     0.021 A 
HETATM    5  C5  UNL     1      21.830  -0.569  54.421  1.00  0.00     0.004 A 
HETATM    6  C6  UNL     1      21.078   0.448  53.897  1.00  0.00     0.029 A 
HETATM    7  C7  UNL     1      21.560   1.375  52.989  1.00  0.00     0.035 A 
HETATM    8  C23 UNL     1      22.884   1.169  52.666  1.00  0.00     0.050 A 
ENDROOT
BRANCH   7   9
HETATM    9  N1  UNL     1      20.754   2.413  52.468  1.00  0.00    -0.341 N 
HETATM   10  H5  UNL     1      19.792   2.470  52.882  1.00  0.00     0.167 HD
BRANCH   9  11
HETATM   11  C8  UNL     1      21.112   3.355  51.471  1.00  0.00     0.132 C 
HETATM   12  C9  UNL     1      22.153   4.204  51.721  1.00  0.00     0.090 C 
HETATM   13  C10 UNL     1      22.506   5.317  50.974  1.00  0.00     0.108 C 
HETATM   14  C11 UNL     1      23.494   5.564  50.037  1.00  0.00     0.135 C 
HETATM   15  O4  UNL     1      21.568   6.245  51.397  1.00  0.00    -0.346 OA
HETATM   16  C12 UNL     1      24.369   4.533  49.713  1.00  0.00     0.106 C 
HETATM   17  O3  UNL     1      23.415   6.876  49.572  1.00  0.00    -0.344 OA
HETATM   18  C18 UNL     1      23.902   3.241  49.686  1.00  0.00     0.059 C 
HETATM   19  C19 UNL     1      23.364   2.281  48.847  1.00  0.00     0.121 C 
HETATM   20  N2  UNL     1      22.069   2.158  49.263  1.00  0.00    -0.254 NA
HETATM   21  C20 UNL     1      21.213   3.192  49.156  1.00  0.00     0.234 C 
HETATM   22  N3  UNL     1      20.579   3.564  50.276  1.00  0.00    -0.224 NA
HETATM   23  C21 UNL     1      22.120   7.419  49.376  1.00  0.00     0.202 C 
HETATM   24  C22 UNL     1      21.514   7.539  50.780  1.00  0.00     0.202 C 
BRANCH  16  25
HETATM   25  O1  UNL     1      25.493   5.181  49.511  1.00  0.00    -0.346 OA
BRANCH  25  26
HETATM   26  C13 UNL     1      26.695   5.110  48.907  1.00  0.00     0.207 C 
BRANCH  26  27
HETATM   27  C14 UNL     1      27.258   6.488  48.626  1.00  0.00     0.145 C 
HETATM   28  C15 UNL     1      28.590   6.437  47.931  1.00  0.00     0.036 C 
HETATM   29  C16 UNL     1      28.514   7.647  46.987  1.00  0.00     0.029 C 
HETATM   30  C17 UNL     1      27.222   8.300  47.445  1.00  0.00     0.168 C 
HETATM   31  O2  UNL     1      26.457   7.162  47.694  1.00  0.00    -0.384 OA
ENDBRANCH  26  27
ENDBRANCH  25  26
ENDBRANCH  16  25
ENDBRANCH   9  11
ENDBRANCH   7   9
TORSDOF 5
ENDMDL
MODEL 7
REMARK VINA RESULT:      -7.7      3.125      7.198
REMARK  5 active torsions:
REMARK  status: ('A' for Active; 'I' for Inactive)
REMARK    1  A    between atoms: C7_7  and  N1_8 
REMARK    2  A    between atoms: N1_8  and  C8_9 
REMARK    3  A    between atoms: C12_13  and  O1_14 
REMARK    4  A    between atoms: O1_14  and  C13_15 
REMARK    5  A    between atoms: C13_15  and  C14_16 
ROOT
HETATM    1  C1  UNL     1      28.269   8.453  45.112  1.00  0.00     0.018 C 
HETATM    2  C2  UNL     1      27.612   8.434  46.137  1.00  0.00    -0.078 C 
HETATM    3  C3  UNL     1      26.853   8.400  47.353  1.00  0.00     0.019 A 
HETATM    4  C4  UNL     1      26.201   9.543  47.773  1.00  0.00     0.021 A 
HETATM    5  C5  UNL     1      25.480   9.496  48.934  1.00  0.00     0.004 A 
HETATM    6  C6  UNL     1      25.406   8.339  49.664  1.00  0.00     0.029 A 
HETATM    7  C7  UNL     1      26.032   7.159  49.305  1.00  0.00     0.035 A 
HETATM    8  C23 UNL     1      26.742   7.266  48.129  1.00  0.00     0.050 A 
ENDROOT
BRANCH   7   9
HETATM    9  N1  UNL     1      25.934   5.982  50.084  1.00  0.00    -0.341 N 
HETATM   10  H5  UNL     1      26.807   5.729  50.605  1.00  0.00     0.167 HD
BRANCH   9  11
HETATM   11  C8  UNL     1      24.800   5.142  50.223  1.00  0.00     0.132 C 
HETATM   12  C9  UNL     1      24.972   3.792  50.097  1.00  0.00     0.090 C 
HETATM   13  C10 UNL     1      23.969   2.841  49.984  1.00  0.00     0.108 C 
HETATM   14  C11 UNL     1      23.402   1.943  50.871  1.00  0.00     0.135 C 
HETATM   15  O4  UNL     1      23.601   2.980  48.656  1.00  0.00    -0.346 OA
HETATM   16  C12 UNL     1      23.877   1.915  52.177  1.00  0.00     0.106 C 
HETATM   17  O3  UNL     1      22.404   1.196  50.246  1.00  0.00    -0.344 OA
HETATM   18  C18 UNL     1      24.277   3.089  52.770  1.00  0.00     0.059 C 
HETATM   19  C19 UNL     1      23.830   4.132  53.561  1.00  0.00     0.121 C 
HETATM   20  N2  UNL     1      23.807   5.207  52.719  1.00  0.00    -0.254 NA
HETATM   21  C20 UNL     1      22.977   5.230  51.659  1.00  0.00     0.234 C 
HETATM   22  N3  UNL     1      23.537   5.460  50.464  1.00  0.00    -0.224 NA
HETATM   23  C21 UNL     1      21.575   1.872  49.315  1.00  0.00     0.202 C 
HETATM   24  C22 UNL     1      22.493   2.230  48.139  1.00  0.00     0.202 C 
BRANCH  16  25
HETATM   25  O1  UNL     1      23.788   0.640  52.475  1.00  0.00    -0.346 OA
BRANCH  25  26
HETATM   26  C13 UNL     1      23.861  -0.249  53.485  1.00  0.00     0.207 C 
BRANCH  26  27
HETATM   27  C14 UNL     1      25.299  -0.583  53.829  1.00  0.00     0.145 C 
HETATM   28  C15 UNL     1      26.160  -0.750  52.609  1.00  0.00     0.036 C 
HETATM   29  C16 UNL     1      27.502  -0.160  53.071  1.00  0.00     0.029 C 
HETATM   30  C17 UNL     1      27.232   0.069  54.548  1.00  0.00     0.168 C 
HETATM   31  O2  UNL     1      25.907   0.497  54.483  1.00  0.00    -0.384 OA
ENDBRANCH  26  27
ENDBRANCH  25  26
ENDBRANCH  16  25
ENDBRANCH   9  11
ENDBRANCH   7   9
TORSDOF 5
ENDMDL
MODEL 8
REMARK VINA RESULT:      -7.6      3.372      5.536
REMARK  5 active torsions:
REMARK  status: ('A' for Active; 'I' for Inactive)
REMARK    1  A    between atoms: C7_7  and  N1_8 
REMARK    2  A    between atoms: N1_8  and  C8_9 
REMARK    3  A    between atoms: C12_13  and  O1_14 
REMARK    4  A    between atoms: O1_14  and  C13_15 
REMARK    5  A    between atoms: C13_15  and  C14_16 
ROOT
HETATM    1  C1  UNL     1      21.884  -1.446  54.282  1.00  0.00     0.018 C 
HETATM    2  C2  UNL     1      22.727  -0.687  53.840  1.00  0.00    -0.078 C 
HETATM    3  C3  UNL     1      23.716   0.221  53.335  1.00  0.00     0.019 A 
HETATM    4  C4  UNL     1      24.930  -0.275  52.903  1.00  0.00     0.021 A 
HETATM    5  C5  UNL     1      25.862   0.602  52.423  1.00  0.00     0.004 A 
HETATM    6  C6  UNL     1      25.597   1.944  52.371  1.00  0.00     0.029 A 
HETATM    7  C7  UNL     1      24.405   2.512  52.785  1.00  0.00     0.035 A 
HETATM    8  C23 UNL     1      23.505   1.581  53.259  1.00  0.00     0.050 A 
ENDROOT
BRANCH   7   9
HETATM    9  N1  UNL     1      24.165   3.904  52.717  1.00  0.00    -0.341 N 
HETATM   10  H5  UNL     1      24.243   4.407  53.633  1.00  0.00     0.167 HD
BRANCH   9  11
HETATM   11  C8  UNL     1      23.841   4.660  51.562  1.00  0.00     0.132 C 
HETATM   12  C9  UNL     1      23.946   6.021  51.624  1.00  0.00     0.090 C 
HETATM   13  C10 UNL     1      23.473   6.927  50.687  1.00  0.00     0.108 C 
HETATM   14  C11 UNL     1      24.077   7.663  49.683  1.00  0.00     0.135 C 
HETATM   15  O4  UNL     1      22.121   6.956  50.986  1.00  0.00    -0.346 OA
HETATM   16  C12 UNL     1      25.449   7.532  49.501  1.00  0.00     0.106 C 
HETATM   17  O3  UNL     1      23.136   8.439  49.008  1.00  0.00    -0.344 OA
HETATM   18  C18 UNL     1      26.039   6.309  49.710  1.00  0.00     0.059 C 
HETATM   19  C19 UNL     1      26.419   5.144  49.067  1.00  0.00     0.121 C 
HETATM   20  N2  UNL     1      25.562   4.198  49.550  1.00  0.00    -0.254 NA
HETATM   21  C20 UNL     1      24.240   4.282  49.305  1.00  0.00     0.234 C 
HETATM   22  N3  UNL     1      23.430   4.249  50.371  1.00  0.00    -0.224 NA
HETATM   23  C21 UNL     1      21.863   7.860  48.775  1.00  0.00     0.202 C 
HETATM   24  C22 UNL     1      21.223   7.716  50.163  1.00  0.00     0.202 C 
BRANCH  16  25
HETATM   25  O1  UNL     1      25.796   8.748  49.148  1.00  0.00    -0.346 OA
BRANCH  25  26
HETATM   26  C13 UNL     1      26.484   9.460  48.234  1.00  0.00     0.207 C 
BRANCH  26  27
HETATM   27  C14 UNL     1      27.665  10.175  48.860  1.00  0.00     0.145 C 
HETATM   28  C15 UNL     1      28.623   9.229  49.528  1.00  0.00     0.036 C 
HETATM   29  C16 UNL     1      29.984   9.882  49.238  1.00  0.00     0.029 C 
HETATM   30  C17 UNL     1      29.555  11.199  48.616  1.00  0.00     0.168 C 
HETATM   31  O2  UNL     1      28.462  10.762  47.869  1.00  0.00    -0.384 OA
ENDBRANCH  26  27
ENDBRANCH  25  26
ENDBRANCH  16  25
ENDBRANCH   9  11
ENDBRANCH   7   9
TORSDOF 5
ENDMDL
MODEL 9
REMARK VINA RESULT:      -7.6      3.049      7.228
REMARK  5 active torsions:
REMARK  status: ('A' for Active; 'I' for Inactive)
REMARK    1  A    between atoms: C7_7  and  N1_8 
REMARK    2  A    between atoms: N1_8  and  C8_9 
REMARK    3  A    between atoms: C12_13  and  O1_14 
REMARK    4  A    between atoms: O1_14  and  C13_15 
REMARK    5  A    between atoms: C13_15  and  C14_16 
ROOT
HETATM    1  C1  UNL     1      19.329   8.099  49.333  1.00  0.00     0.018 C 
HETATM    2  C2  UNL     1      20.515   7.989  49.588  1.00  0.00    -0.078 C 
HETATM    3  C3  UNL     1      21.909   7.840  49.890  1.00  0.00     0.019 A 
HETATM    4  C4  UNL     1      22.832   8.620  49.221  1.00  0.00     0.021 A 
HETATM    5  C5  UNL     1      24.156   8.467  49.520  1.00  0.00     0.004 A 
HETATM    6  C6  UNL     1      24.560   7.560  50.464  1.00  0.00     0.029 A 
HETATM    7  C7  UNL     1      23.693   6.747  51.172  1.00  0.00     0.035 A 
HETATM    8  C23 UNL     1      22.374   6.944  50.829  1.00  0.00     0.050 A 
ENDROOT
BRANCH   7   9
HETATM    9  N1  UNL     1      24.146   5.821  52.141  1.00  0.00    -0.341 N 
HETATM   10  H5  UNL     1      24.402   6.245  53.065  1.00  0.00     0.167 HD
BRANCH   9  11
HETATM   11  C8  UNL     1      24.280   4.418  51.986  1.00  0.00     0.132 C 
HETATM   12  C9  UNL     1      24.046   3.618  53.069  1.00  0.00     0.090 C 
HETATM   13  C10 UNL     1      24.334   2.266  53.171  1.00  0.00     0.108 C 
HETATM   14  C11 UNL     1      23.566   1.118  53.083  1.00  0.00     0.135 C 
HETATM   15  O4  UNL     1      25.699   2.288  53.406  1.00  0.00    -0.346 OA
HETATM   16  C12 UNL     1      22.203   1.252  52.845  1.00  0.00     0.106 C 
HETATM   17  O3  UNL     1      24.355  -0.018  53.261  1.00  0.00    -0.344 OA
HETATM   18  C18 UNL     1      21.761   2.267  52.031  1.00  0.00     0.059 C 
HETATM   19  C19 UNL     1      21.439   2.566  50.719  1.00  0.00     0.121 C 
HETATM   20  N2  UNL     1      22.430   3.415  50.315  1.00  0.00    -0.254 NA
HETATM   21  C20 UNL     1      23.707   2.994  50.243  1.00  0.00     0.234 C 
HETATM   22  N3  UNL     1      24.615   3.715  50.914  1.00  0.00    -0.224 NA
HETATM   23  C21 UNL     1      25.652  -0.003  52.687  1.00  0.00     0.202 C 
HETATM   24  C22 UNL     1      26.432   1.057  53.476  1.00  0.00     0.202 C 
BRANCH  16  25
HETATM   25  O1  UNL     1      21.703   0.260  53.546  1.00  0.00    -0.346 OA
BRANCH  25  26
HETATM   26  C13 UNL     1      21.009  -0.892  53.459  1.00  0.00     0.207 C 
BRANCH  26  27
HETATM   27  C14 UNL     1      19.514  -0.641  53.456  1.00  0.00     0.145 C 
HETATM   28  C15 UNL     1      19.019  -0.123  52.136  1.00  0.00     0.036 C 
HETATM   29  C16 UNL     1      17.642  -0.793  52.015  1.00  0.00     0.029 C 
HETATM   30  C17 UNL     1      17.502  -1.432  53.386  1.00  0.00     0.168 C 
HETATM   31  O2  UNL     1      18.817  -1.849  53.587  1.00  0.00    -0.384 OA
ENDBRANCH  26  27
ENDBRANCH  25  26
ENDBRANCH  16  25
ENDBRANCH   9  11
ENDBRANCH   7   9
TORSDOF 5
ENDMDL
