MODEL 1
REMARK VINA RESULT:      -9.3      0.000      0.000
REMARK  3 active torsions:
REMARK  status: ('A' for Active; 'I' for Inactive)
REMARK    1  A    between atoms: O1_1  and  C1_2 
REMARK    2  A    between atoms: C8_9  and  C9_10 
REMARK    3  A    between atoms: C9_10  and  C10_11 
ROOT
HETATM    1  C1  UNL     1      28.439  -2.194  53.256  1.00  0.00     0.066 A 
HETATM    2  C2  UNL     1      29.619  -1.524  53.536  1.00  0.00     0.037 A 
HETATM    3  C3  UNL     1      29.880  -0.165  53.546  1.00  0.00     0.012 A 
HETATM    4  C4  UNL     1      28.805   0.652  53.230  1.00  0.00    -0.029 A 
HETATM    5  C5  UNL     1      27.630  -0.126  52.954  1.00  0.00    -0.016 A 
HETATM    6  C6  UNL     1      27.339  -1.446  52.935  1.00  0.00     0.049 A 
HETATM    7  C7  UNL     1      26.458   0.689  52.680  1.00  0.00    -0.004 C 
HETATM    8  C8  UNL     1      25.271   0.586  53.164  1.00  0.00     0.049 C 
HETATM    9  N1  UNL     1      25.052   1.795  53.914  1.00  0.00    -0.248 NA
HETATM   10  C16 UNL     1      26.067   2.680  53.947  1.00  0.00     0.205 C 
HETATM   11  N2  UNL     1      27.285   2.436  53.240  1.00  0.00    -0.367 N 
HETATM   12  C17 UNL     1      26.850   1.984  51.854  1.00  0.00     0.165 C 
HETATM   13  C18 UNL     1      28.718   2.226  53.229  1.00  0.00     0.163 C 
ENDROOT
BRANCH   8  14
HETATM   14  C9  UNL     1      24.733  -0.636  52.820  1.00  0.00     0.101 C 
BRANCH  14  15
HETATM   15  C10 UNL     1      23.264  -0.539  53.104  1.00  0.00    -0.014 A 
HETATM   16  C11 UNL     1      22.245  -0.095  52.275  1.00  0.00     0.010 A 
HETATM   17  C12 UNL     1      20.958  -0.104  52.751  1.00  0.00     0.001 A 
HETATM   18  C13 UNL     1      20.570  -0.525  54.006  1.00  0.00     0.003 A 
HETATM   19  C14 UNL     1      21.606  -0.980  54.852  1.00  0.00     0.043 A 
HETATM   20  C15 UNL     1      22.889  -0.962  54.356  1.00  0.00     0.123 A 
HETATM   21  F1  UNL     1      23.796  -1.416  55.255  1.00  0.00    -0.206 F 
ENDBRANCH  14  15
ENDBRANCH   8  14
BRANCH   1  22
HETATM   22  O1  UNL     1      28.462  -3.570  53.327  1.00  0.00    -0.361 OA
HETATM   23  H1  UNL     1      28.077  -4.166  52.625  1.00  0.00     0.217 HD
ENDBRANCH   1  22
TORSDOF 3
ENDMDL
MODEL 2
REMARK VINA RESULT:      -9.1      2.469      5.986
REMARK  3 active torsions:
REMARK  status: ('A' for Active; 'I' for Inactive)
REMARK    1  A    between atoms: O1_1  and  C1_2 
REMARK    2  A    between atoms: C8_9  and  C9_10 
REMARK    3  A    between atoms: C9_10  and  C10_11 
ROOT
HETATM    1  C1  UNL     1      21.357  -0.711  54.200  1.00  0.00     0.066 A 
HETATM    2  C2  UNL     1      20.342   0.068  53.667  1.00  0.00     0.037 A 
HETATM    3  C3  UNL     1      20.420   1.257  52.964  1.00  0.00     0.012 A 
HETATM    4  C4  UNL     1      21.701   1.746  52.758  1.00  0.00    -0.029 A 
HETATM    5  C5  UNL     1      22.684   0.879  53.344  1.00  0.00    -0.016 A 
HETATM    6  C6  UNL     1      22.646  -0.283  54.034  1.00  0.00     0.049 A 
HETATM    7  C7  UNL     1      24.049   1.317  53.100  1.00  0.00    -0.004 C 
HETATM    8  C8  UNL     1      25.055   0.632  52.687  1.00  0.00     0.049 C 
HETATM    9  N1  UNL     1      25.406   1.192  51.408  1.00  0.00    -0.248 NA
HETATM   10  C16 UNL     1      24.650   2.215  50.966  1.00  0.00     0.205 C 
HETATM   11  N2  UNL     1      23.574   2.733  51.752  1.00  0.00    -0.367 N 
HETATM   12  C17 UNL     1      24.153   2.898  53.149  1.00  0.00     0.165 C 
HETATM   13  C18 UNL     1      22.164   3.009  51.936  1.00  0.00     0.163 C 
ENDROOT
BRANCH   8  14
HETATM   14  C9  UNL     1      25.340  -0.370  53.591  1.00  0.00     0.101 C 
BRANCH  14  15
HETATM   15  C10 UNL     1      26.831  -0.380  53.746  1.00  0.00    -0.014 A 
HETATM   16  C11 UNL     1      27.634   0.471  54.489  1.00  0.00     0.010 A 
HETATM   17  C12 UNL     1      28.991   0.264  54.490  1.00  0.00     0.001 A 
HETATM   18  C13 UNL     1      29.648  -0.738  53.805  1.00  0.00     0.003 A 
HETATM   19  C14 UNL     1      28.832  -1.608  53.049  1.00  0.00     0.043 A 
HETATM   20  C15 UNL     1      27.476  -1.382  53.062  1.00  0.00     0.123 A 
HETATM   21  F1  UNL     1      26.797  -2.274  52.300  1.00  0.00    -0.206 F 
ENDBRANCH  14  15
ENDBRANCH   8  14
BRANCH   1  22
HETATM   22  O1  UNL     1      20.988  -1.865  54.856  1.00  0.00    -0.361 OA
HETATM   23  H1  UNL     1      20.227  -2.444  54.571  1.00  0.00     0.217 HD
ENDBRANCH   1  22
TORSDOF 3
ENDMDL
MODEL 3
REMARK VINA RESULT:      -8.9      2.630      5.764
REMARK  3 active torsions:
REMARK  status: ('A' for Active; 'I' for Inactive)
REMARK    1  A    between atoms: O1_1  and  C1_2 
REMARK    2  A    between atoms: C8_9  and  C9_10 
REMARK    3  A    between atoms: C9_10  and  C10_11 
ROOT
HETATM    1  C1  UNL     1      22.820  -0.198  53.322  1.00  0.00     0.066 A 
HETATM    2  C2  UNL     1      21.916  -0.145  52.273  1.00  0.00     0.037 A 
HETATM    3  C3  UNL     1      21.881   0.703  51.180  1.00  0.00     0.012 A 
HETATM    4  C4  UNL     1      22.900   1.643  51.121  1.00  0.00    -0.029 A 
HETATM    5  C5  UNL     1      23.784   1.515  52.246  1.00  0.00    -0.016 A 
HETATM    6  C6  UNL     1      23.850   0.704  53.324  1.00  0.00     0.049 A 
HETATM    7  C7  UNL     1      24.906   2.439  52.196  1.00  0.00    -0.004 C 
HETATM    8  C8  UNL     1      26.156   2.201  52.379  1.00  0.00     0.049 C 
HETATM    9  N1  UNL     1      26.792   2.483  51.119  1.00  0.00    -0.248 NA
HETATM   10  C16 UNL     1      25.993   2.884  50.112  1.00  0.00     0.205 C 
HETATM   11  N2  UNL     1      24.586   3.051  50.306  1.00  0.00    -0.367 N 
HETATM   12  C17 UNL     1      24.460   3.839  51.601  1.00  0.00     0.165 C 
HETATM   13  C18 UNL     1      23.217   2.696  49.992  1.00  0.00     0.163 C 
ENDROOT
BRANCH   8  14
HETATM   14  C9  UNL     1      26.358   1.731  53.659  1.00  0.00     0.101 C 
BRANCH  14  15
HETATM   15  C10 UNL     1      27.406   0.665  53.551  1.00  0.00    -0.014 A 
HETATM   16  C11 UNL     1      27.262  -0.661  53.174  1.00  0.00     0.010 A 
HETATM   17  C12 UNL     1      28.377  -1.461  53.139  1.00  0.00     0.001 A 
HETATM   18  C13 UNL     1      29.661  -1.061  53.449  1.00  0.00     0.003 A 
HETATM   19  C14 UNL     1      29.811   0.291  53.832  1.00  0.00     0.043 A 
HETATM   20  C15 UNL     1      28.681   1.074  53.861  1.00  0.00     0.123 A 
HETATM   21  F1  UNL     1      28.945   2.347  54.245  1.00  0.00    -0.206 F 
ENDBRANCH  14  15
ENDBRANCH   8  14
BRANCH   1  22
HETATM   22  O1  UNL     1      22.615  -1.162  54.284  1.00  0.00    -0.361 OA
HETATM   23  H1  UNL     1      21.730  -1.591  54.456  1.00  0.00     0.217 HD
ENDBRANCH   1  22
TORSDOF 3
ENDMDL
MODEL 4
REMARK VINA RESULT:      -8.7      3.748      6.294
REMARK  3 active torsions:
REMARK  status: ('A' for Active; 'I' for Inactive)
REMARK    1  A    between atoms: O1_1  and  C1_2 
REMARK    2  A    between atoms: C8_9  and  C9_10 
REMARK    3  A    between atoms: C9_10  and  C10_11 
ROOT
HETATM    1  C1  UNL     1      27.431   4.849  48.789  1.00  0.00     0.066 A 
HETATM    2  C2  UNL     1      26.709   6.019  48.614  1.00  0.00     0.037 A 
HETATM    3  C3  UNL     1      25.430   6.338  49.036  1.00  0.00     0.012 A 
HETATM    4  C4  UNL     1      24.768   5.343  49.741  1.00  0.00    -0.029 A 
HETATM    5  C5  UNL     1      25.589   4.172  49.871  1.00  0.00    -0.016 A 
HETATM    6  C6  UNL     1      26.834   3.826  49.475  1.00  0.00     0.049 A 
HETATM    7  C7  UNL     1      24.962   3.122  50.658  1.00  0.00    -0.004 C 
HETATM    8  C8  UNL     1      25.457   2.431  51.623  1.00  0.00     0.049 C 
HETATM    9  N1  UNL     1      24.682   2.778  52.785  1.00  0.00    -0.248 NA
HETATM   10  C16 UNL     1      23.702   3.686  52.612  1.00  0.00     0.205 C 
HETATM   11  N2  UNL     1      23.433   4.248  51.325  1.00  0.00    -0.367 N 
HETATM   12  C17 UNL     1      23.403   3.058  50.377  1.00  0.00     0.165 C 
HETATM   13  C18 UNL     1      23.355   5.389  50.437  1.00  0.00     0.163 C 
ENDROOT
BRANCH   8  14
HETATM   14  C9  UNL     1      26.537   1.704  51.169  1.00  0.00     0.101 C 
BRANCH  14  15
HETATM   15  C10 UNL     1      27.385   1.422  52.372  1.00  0.00    -0.014 A 
HETATM   16  C11 UNL     1      28.144   2.303  53.127  1.00  0.00     0.010 A 
HETATM   17  C12 UNL     1      28.842   1.815  54.204  1.00  0.00     0.001 A 
HETATM   18  C13 UNL     1      28.858   0.499  54.619  1.00  0.00     0.003 A 
HETATM   19  C14 UNL     1      28.084  -0.400  53.853  1.00  0.00     0.043 A 
HETATM   20  C15 UNL     1      27.394   0.110  52.778  1.00  0.00     0.123 A 
HETATM   21  F1  UNL     1      26.692  -0.843  52.117  1.00  0.00    -0.206 F 
ENDBRANCH  14  15
ENDBRANCH   8  14
BRANCH   1  22
HETATM   22  O1  UNL     1      28.702   4.807  48.260  1.00  0.00    -0.361 OA
HETATM   23  H1  UNL     1      28.968   5.283  47.425  1.00  0.00     0.217 HD
ENDBRANCH   1  22
TORSDOF 3
ENDMDL
MODEL 5
REMARK VINA RESULT:      -8.6      3.184      4.879
REMARK  3 active torsions:
REMARK  status: ('A' for Active; 'I' for Inactive)
REMARK    1  A    between atoms: O1_1  and  C1_2 
REMARK    2  A    between atoms: C8_9  and  C9_10 
REMARK    3  A    between atoms: C9_10  and  C10_11 
ROOT
HETATM    1  C1  UNL     1      21.857  -1.166  54.636  1.00  0.00     0.066 A 
HETATM    2  C2  UNL     1      22.820  -1.751  55.442  1.00  0.00     0.037 A 
HETATM    3  C3  UNL     1      24.187  -1.539  55.479  1.00  0.00     0.012 A 
HETATM    4  C4  UNL     1      24.670  -0.602  54.578  1.00  0.00    -0.029 A 
HETATM    5  C5  UNL     1      23.606  -0.053  53.786  1.00  0.00    -0.016 A 
HETATM    6  C6  UNL     1      22.268  -0.234  53.722  1.00  0.00     0.049 A 
HETATM    7  C7  UNL     1      24.054   0.982  52.867  1.00  0.00    -0.004 C 
HETATM    8  C8  UNL     1      23.554   2.147  52.656  1.00  0.00     0.049 C 
HETATM    9  N1  UNL     1      24.562   3.084  53.076  1.00  0.00    -0.248 NA
HETATM   10  C16 UNL     1      25.703   2.566  53.569  1.00  0.00     0.205 C 
HETATM   11  N2  UNL     1      25.906   1.153  53.637  1.00  0.00    -0.367 N 
HETATM   12  C17 UNL     1      25.481   0.630  52.273  1.00  0.00     0.165 C 
HETATM   13  C18 UNL     1      26.138  -0.054  54.404  1.00  0.00     0.163 C 
ENDROOT
BRANCH   8  14
HETATM   14  C9  UNL     1      22.266   2.020  52.180  1.00  0.00     0.101 C 
BRANCH  14  15
HETATM   15  C10 UNL     1      22.363   2.108  50.686  1.00  0.00    -0.014 A 
HETATM   16  C11 UNL     1      23.063   3.020  49.912  1.00  0.00     0.010 A 
HETATM   17  C12 UNL     1      23.013   2.900  48.546  1.00  0.00     0.001 A 
HETATM   18  C13 UNL     1      22.317   1.931  47.851  1.00  0.00     0.003 A 
HETATM   19  C14 UNL     1      21.605   0.999  48.638  1.00  0.00     0.043 A 
HETATM   20  C15 UNL     1      21.668   1.139  50.005  1.00  0.00     0.123 A 
HETATM   21  F1  UNL     1      20.944   0.193  50.653  1.00  0.00    -0.206 F 
ENDBRANCH  14  15
ENDBRANCH   8  14
BRANCH   1  22
HETATM   22  O1  UNL     1      20.552  -1.567  54.819  1.00  0.00    -0.361 OA
HETATM   23  H1  UNL     1      20.039  -2.103  54.151  1.00  0.00     0.217 HD
ENDBRANCH   1  22
TORSDOF 3
ENDMDL
MODEL 6
REMARK VINA RESULT:      -8.4      3.285      6.021
REMARK  3 active torsions:
REMARK  status: ('A' for Active; 'I' for Inactive)
REMARK    1  A    between atoms: O1_1  and  C1_2 
REMARK    2  A    between atoms: C8_9  and  C9_10 
REMARK    3  A    between atoms: C9_10  and  C10_11 
ROOT
HETATM    1  C1  UNL     1      21.261   0.001  52.956  1.00  0.00     0.066 A 
HETATM    2  C2  UNL     1      21.273  -0.744  54.124  1.00  0.00     0.037 A 
HETATM    3  C3  UNL     1      22.344  -1.152  54.900  1.00  0.00     0.012 A 
HETATM    4  C4  UNL     1      23.594  -0.758  54.445  1.00  0.00    -0.029 A 
HETATM    5  C5  UNL     1      23.485   0.004  53.233  1.00  0.00    -0.016 A 
HETATM    6  C6  UNL     1      22.463   0.420  52.452  1.00  0.00     0.049 A 
HETATM    7  C7  UNL     1      24.766   0.494  52.751  1.00  0.00    -0.004 C 
HETATM    8  C8  UNL     1      25.083   1.678  52.360  1.00  0.00     0.049 C 
HETATM    9  N1  UNL     1      26.067   2.145  53.301  1.00  0.00    -0.248 NA
HETATM   10  C16 UNL     1      26.393   1.308  54.304  1.00  0.00     0.205 C 
HETATM   11  N2  UNL     1      25.808   0.007  54.401  1.00  0.00    -0.367 N 
HETATM   12  C17 UNL     1      25.910  -0.574  52.999  1.00  0.00     0.165 C 
HETATM   13  C18 UNL     1      25.006  -0.967  55.113  1.00  0.00     0.163 C 
ENDROOT
BRANCH   8  14
HETATM   14  C9  UNL     1      24.326   2.024  51.262  1.00  0.00     0.101 C 
BRANCH  14  15
HETATM   15  C10 UNL     1      25.114   3.062  50.522  1.00  0.00    -0.014 A 
HETATM   16  C11 UNL     1      26.329   2.929  49.867  1.00  0.00     0.010 A 
HETATM   17  C12 UNL     1      26.865   4.028  49.243  1.00  0.00     0.001 A 
HETATM   18  C13 UNL     1      26.295   5.284  49.202  1.00  0.00     0.003 A 
HETATM   19  C14 UNL     1      25.056   5.421  49.867  1.00  0.00     0.043 A 
HETATM   20  C15 UNL     1      24.537   4.308  50.486  1.00  0.00     0.123 A 
HETATM   21  F1  UNL     1      23.351   4.561  51.091  1.00  0.00    -0.206 F 
ENDBRANCH  14  15
ENDBRANCH   8  14
BRANCH   1  22
HETATM   22  O1  UNL     1      20.034   0.269  52.390  1.00  0.00    -0.361 OA
HETATM   23  H1  UNL     1      19.164   0.070  52.838  1.00  0.00     0.217 HD
ENDBRANCH   1  22
TORSDOF 3
ENDMDL
MODEL 7
REMARK VINA RESULT:      -8.0      3.658      6.316
REMARK  3 active torsions:
REMARK  status: ('A' for Active; 'I' for Inactive)
REMARK    1  A    between atoms: O1_1  and  C1_2 
REMARK    2  A    between atoms: C8_9  and  C9_10 
REMARK    3  A    between atoms: C9_10  and  C10_11 
ROOT
HETATM    1  C1  UNL     1      24.490  -0.476  54.212  1.00  0.00     0.066 A 
HETATM    2  C2  UNL     1      23.341  -1.124  54.635  1.00  0.00     0.037 A 
HETATM    3  C3  UNL     1      22.020  -0.891  54.295  1.00  0.00     0.012 A 
HETATM    4  C4  UNL     1      21.809   0.145  53.397  1.00  0.00    -0.029 A 
HETATM    5  C5  UNL     1      23.051   0.757  53.017  1.00  0.00    -0.016 A 
HETATM    6  C6  UNL     1      24.351   0.558  53.325  1.00  0.00     0.049 A 
HETATM    7  C7  UNL     1      22.887   1.809  52.026  1.00  0.00    -0.004 C 
HETATM    8  C8  UNL     1      23.538   1.999  50.934  1.00  0.00     0.049 C 
HETATM    9  N1  UNL     1      22.577   1.838  49.875  1.00  0.00    -0.248 NA
HETATM   10  C16 UNL     1      21.317   1.533  50.242  1.00  0.00     0.205 C 
HETATM   11  N2  UNL     1      20.956   1.412  51.620  1.00  0.00    -0.367 N 
HETATM   12  C17 UNL     1      21.561   2.636  52.292  1.00  0.00     0.165 C 
HETATM   13  C18 UNL     1      20.463   0.625  52.732  1.00  0.00     0.163 C 
ENDROOT
BRANCH   8  14
HETATM   14  C9  UNL     1      24.870   2.217  51.219  1.00  0.00     0.101 C 
BRANCH  14  15
HETATM   15  C10 UNL     1      25.227   3.520  50.570  1.00  0.00    -0.014 A 
HETATM   16  C11 UNL     1      24.631   4.762  50.728  1.00  0.00     0.010 A 
HETATM   17  C12 UNL     1      25.139   5.830  50.030  1.00  0.00     0.001 A 
HETATM   18  C13 UNL     1      26.215   5.785  49.168  1.00  0.00     0.003 A 
HETATM   19  C14 UNL     1      26.825   4.521  49.007  1.00  0.00     0.043 A 
HETATM   20  C15 UNL     1      26.300   3.465  49.715  1.00  0.00     0.123 A 
HETATM   21  F1  UNL     1      26.962   2.306  49.479  1.00  0.00    -0.206 F 
ENDBRANCH  14  15
ENDBRANCH   8  14
BRANCH   1  22
HETATM   22  O1  UNL     1      25.691  -0.926  54.715  1.00  0.00    -0.361 OA
HETATM   23  H1  UNL     1      26.495  -1.103  54.150  1.00  0.00     0.217 HD
ENDBRANCH   1  22
TORSDOF 3
ENDMDL
MODEL 8
REMARK VINA RESULT:      -7.6      5.280      6.875
REMARK  3 active torsions:
REMARK  status: ('A' for Active; 'I' for Inactive)
REMARK    1  A    between atoms: O1_1  and  C1_2 
REMARK    2  A    between atoms: C8_9  and  C9_10 
REMARK    3  A    between atoms: C9_10  and  C10_11 
ROOT
HETATM    1  C1  UNL     1      29.195   5.544  48.206  1.00  0.00     0.066 A 
HETATM    2  C2  UNL     1      29.306   6.897  47.927  1.00  0.00     0.037 A 
HETATM    3  C3  UNL     1      28.339   7.886  47.955  1.00  0.00     0.012 A 
HETATM    4  C4  UNL     1      27.067   7.467  48.316  1.00  0.00    -0.029 A 
HETATM    5  C5  UNL     1      27.046   6.056  48.583  1.00  0.00    -0.016 A 
HETATM    6  C6  UNL     1      27.965   5.065  48.567  1.00  0.00     0.049 A 
HETATM    7  C7  UNL     1      25.746   5.579  49.028  1.00  0.00    -0.004 C 
HETATM    8  C8  UNL     1      25.462   4.823  50.027  1.00  0.00     0.049 C 
HETATM    9  N1  UNL     1      24.671   5.633  50.915  1.00  0.00    -0.248 NA
HETATM   10  C16 UNL     1      24.441   6.904  50.532  1.00  0.00     0.205 C 
HETATM   11  N2  UNL     1      24.935   7.402  49.286  1.00  0.00    -0.367 N 
HETATM   12  C17 UNL     1      24.577   6.332  48.266  1.00  0.00     0.165 C 
HETATM   13  C18 UNL     1      25.762   8.323  48.533  1.00  0.00     0.163 C 
ENDROOT
BRANCH   8  14
HETATM   14  C9  UNL     1      26.067   3.594  49.868  1.00  0.00     0.101 C 
BRANCH  14  15
HETATM   15  C10 UNL     1      25.429   2.681  50.872  1.00  0.00    -0.014 A 
HETATM   16  C11 UNL     1      24.134   2.187  50.899  1.00  0.00     0.010 A 
HETATM   17  C12 UNL     1      23.770   1.350  51.924  1.00  0.00     0.001 A 
HETATM   18  C13 UNL     1      24.591   0.941  52.954  1.00  0.00     0.003 A 
HETATM   19  C14 UNL     1      25.912   1.441  52.928  1.00  0.00     0.043 A 
HETATM   20  C15 UNL     1      26.255   2.279  51.893  1.00  0.00     0.123 A 
HETATM   21  F1  UNL     1      27.542   2.698  51.974  1.00  0.00    -0.206 F 
ENDBRANCH  14  15
ENDBRANCH   8  14
BRANCH   1  22
HETATM   22  O1  UNL     1      30.338   4.782  48.102  1.00  0.00    -0.361 OA
HETATM   23  H1  UNL     1      30.714   4.246  48.854  1.00  0.00     0.217 HD
ENDBRANCH   1  22
TORSDOF 3
ENDMDL
MODEL 9
REMARK VINA RESULT:      -7.5      4.571      6.097
REMARK  3 active torsions:
REMARK  status: ('A' for Active; 'I' for Inactive)
REMARK    1  A    between atoms: O1_1  and  C1_2 
REMARK    2  A    between atoms: C8_9  and  C9_10 
REMARK    3  A    between atoms: C9_10  and  C10_11 
ROOT
HETATM    1  C1  UNL     1      26.662   5.034  49.176  1.00  0.00     0.066 A 
HETATM    2  C2  UNL     1      26.345   6.246  48.582  1.00  0.00     0.037 A 
HETATM    3  C3  UNL     1      25.121   6.883  48.476  1.00  0.00     0.012 A 
HETATM    4  C4  UNL     1      24.049   6.215  49.048  1.00  0.00    -0.029 A 
HETATM    5  C5  UNL     1      24.469   4.974  49.635  1.00  0.00    -0.016 A 
HETATM    6  C6  UNL     1      25.647   4.323  49.758  1.00  0.00     0.049 A 
HETATM    7  C7  UNL     1      23.390   4.265  50.304  1.00  0.00    -0.004 C 
HETATM    8  C8  UNL     1      23.376   3.734  51.475  1.00  0.00     0.049 C 
HETATM    9  N1  UNL     1      22.395   4.473  52.225  1.00  0.00    -0.248 NA
HETATM   10  C16 UNL     1      21.776   5.483  51.582  1.00  0.00     0.205 C 
HETATM   11  N2  UNL     1      22.063   5.775  50.213  1.00  0.00    -0.367 N 
HETATM   12  C17 UNL     1      22.028   4.428  49.509  1.00  0.00     0.165 C 
HETATM   13  C18 UNL     1      22.549   6.678  49.190  1.00  0.00     0.163 C 
ENDROOT
BRANCH   8  14
HETATM   14  C9  UNL     1      24.325   2.736  51.545  1.00  0.00     0.101 C 
BRANCH  14  15
HETATM   15  C10 UNL     1      23.620   1.527  52.082  1.00  0.00    -0.014 A 
HETATM   16  C11 UNL     1      22.402   0.988  51.698  1.00  0.00     0.010 A 
HETATM   17  C12 UNL     1      21.953  -0.144  52.332  1.00  0.00     0.001 A 
HETATM   18  C13 UNL     1      22.617  -0.814  53.339  1.00  0.00     0.003 A 
HETATM   19  C14 UNL     1      23.859  -0.268  53.731  1.00  0.00     0.043 A 
HETATM   20  C15 UNL     1      24.289   0.866  53.083  1.00  0.00     0.123 A 
HETATM   21  F1  UNL     1      25.488   1.299  53.544  1.00  0.00    -0.206 F 
ENDBRANCH  14  15
ENDBRANCH   8  14
BRANCH   1  22
HETATM   22  O1  UNL     1      27.981   4.639  49.139  1.00  0.00    -0.361 OA
HETATM   23  H1  UNL     1      28.749   5.267  49.248  1.00  0.00     0.217 HD
ENDBRANCH   1  22
TORSDOF 3
ENDMDL
