MODEL 1
REMARK VINA RESULT:      -9.6      0.000      0.000
REMARK  2 active torsions:
REMARK  status: ('A' for Active; 'I' for Inactive)
REMARK    1  A    between atoms: N1_1  and  C1_2 
REMARK    2  A    between atoms: C1_2  and  N2_3 
ROOT
HETATM    1  N2  UNL     1      27.538   0.878  53.913  1.00  0.00    -0.318 N 
HETATM    2  C2  UNL     1      28.046   1.830  52.996  1.00  0.00     0.211 A 
HETATM    3  N3  UNL     1      27.287   2.333  52.083  1.00  0.00    -0.247 NA
HETATM    4  C3  UNL     1      25.929   1.938  51.986  1.00  0.00     0.046 A 
HETATM    5  C4  UNL     1      25.381   1.024  52.846  1.00  0.00     0.053 A 
HETATM    6  C5  UNL     1      26.203   0.472  53.838  1.00  0.00     0.024 A 
HETATM    7  C6  UNL     1      25.642  -0.416  54.575  1.00  0.00     0.092 A 
HETATM    8  C7  UNL     1      24.514  -1.208  54.996  1.00  0.00     0.244 A 
HETATM    9  O1  UNL     1      24.135  -0.421  54.048  1.00  0.00     0.000 OA
HETATM   10  N4  UNL     1      23.153  -1.341  54.642  1.00  0.00     0.099 N 
HETATM   11  C8  UNL     1      21.863  -1.153  54.004  1.00  0.00     0.273 C 
HETATM   12  C9  UNL     1      21.243   0.201  54.279  1.00  0.00     0.056 C 
HETATM   13  C10 UNL     1      19.902   0.342  53.613  1.00  0.00     0.169 C 
HETATM   14  O2  UNL     1      20.044   0.480  52.262  1.00  0.00    -0.391 OA
HETATM   15  C11 UNL     1      18.805   0.472  51.598  1.00  0.00     0.172 C 
HETATM   16  C12 UNL     1      19.002   0.800  50.167  1.00  0.00     0.065 C 
HETATM   17  C13 UNL     1      19.387   2.214  49.939  1.00  0.00    -0.050 A 
HETATM   18  C14 UNL     1      18.332   2.946  50.483  1.00  0.00     0.007 A 
HETATM   19  C15 UNL     1      18.280   4.349  50.481  1.00  0.00     0.001 A 
HETATM   20  C16 UNL     1      19.321   5.067  49.912  1.00  0.00     0.001 A 
HETATM   21  C17 UNL     1      20.345   4.303  49.385  1.00  0.00     0.008 A 
HETATM   22  C18 UNL     1      20.416   2.930  49.377  1.00  0.00    -0.045 A 
HETATM   23  C19 UNL     1      21.614   2.321  48.766  1.00  0.00     0.109 C 
HETATM   24  C20 UNL     1      22.585   3.340  48.285  1.00  0.00     0.098 C 
HETATM   25  F1  UNL     1      22.554   4.218  47.294  1.00  0.00    -0.211 F 
HETATM   26  C21 UNL     1      23.760   3.482  48.889  1.00  0.00     0.035 C 
HETATM   27  C22 UNL     1      24.633   3.040  49.939  1.00  0.00    -0.012 C 
HETATM   28  C23 UNL     1      25.524   2.747  50.836  1.00  0.00     0.074 C 
HETATM   29  H8  UNL     1      23.197  -2.104  55.407  1.00  0.00     0.317 HD
ENDROOT
BRANCH   1  30
HETATM   30  C1  UNL     1      28.384   0.317  54.931  1.00  0.00     0.397 C 
BRANCH  30  31
HETATM   31  N1  UNL     1      29.261  -0.715  54.410  1.00  0.00     0.096 N 
HETATM   32  H1  UNL     1      30.262  -0.447  54.508  1.00  0.00     0.314 HD
HETATM   33  H2  UNL     1      29.060  -0.901  53.399  1.00  0.00     0.314 HD
ENDBRANCH  30  31
ENDBRANCH   1  30
TORSDOF 2
ENDMDL
MODEL 2
REMARK VINA RESULT:      -8.9      2.329      3.150
REMARK  2 active torsions:
REMARK  status: ('A' for Active; 'I' for Inactive)
REMARK    1  A    between atoms: N1_1  and  C1_2 
REMARK    2  A    between atoms: C1_2  and  N2_3 
ROOT
HETATM    1  N2  UNL     1      26.416   0.574  52.991  1.00  0.00    -0.318 N 
HETATM    2  C2  UNL     1      27.442   1.405  52.480  1.00  0.00     0.211 A 
HETATM    3  N3  UNL     1      27.161   2.391  51.698  1.00  0.00    -0.247 NA
HETATM    4  C3  UNL     1      25.815   2.657  51.340  1.00  0.00     0.046 A 
HETATM    5  C4  UNL     1      24.780   1.890  51.805  1.00  0.00     0.053 A 
HETATM    6  C5  UNL     1      25.082   0.815  52.653  1.00  0.00     0.024 A 
HETATM    7  C6  UNL     1      24.073   0.106  53.009  1.00  0.00     0.092 A 
HETATM    8  C7  UNL     1      22.665  -0.198  53.038  1.00  0.00     0.244 A 
HETATM    9  O1  UNL     1      22.839   0.879  52.352  1.00  0.00     0.000 OA
HETATM   10  N4  UNL     1      21.474   0.359  52.519  1.00  0.00     0.099 N 
HETATM   11  C8  UNL     1      20.534   1.232  51.842  1.00  0.00     0.273 C 
HETATM   12  C9  UNL     1      20.432   2.610  52.462  1.00  0.00     0.056 C 
HETATM   13  C10 UNL     1      19.436   3.472  51.739  1.00  0.00     0.169 C 
HETATM   14  O2  UNL     1      19.922   3.859  50.523  1.00  0.00    -0.391 OA
HETATM   15  C11 UNL     1      18.960   4.547  49.764  1.00  0.00     0.172 C 
HETATM   16  C12 UNL     1      19.586   5.095  48.539  1.00  0.00     0.065 C 
HETATM   17  C13 UNL     1      20.522   6.214  48.810  1.00  0.00    -0.050 A 
HETATM   18  C14 UNL     1      19.731   7.172  49.444  1.00  0.00     0.007 A 
HETATM   19  C15 UNL     1      20.220   8.414  49.879  1.00  0.00     0.001 A 
HETATM   20  C16 UNL     1      21.556   8.727  49.678  1.00  0.00     0.001 A 
HETATM   21  C17 UNL     1      22.302   7.751  49.048  1.00  0.00     0.008 A 
HETATM   22  C18 UNL     1      21.844   6.528  48.614  1.00  0.00    -0.045 A 
HETATM   23  C19 UNL     1      22.825   5.632  47.971  1.00  0.00     0.109 C 
HETATM   24  C20 UNL     1      24.192   6.215  47.941  1.00  0.00     0.098 C 
HETATM   25  F1  UNL     1      24.724   7.232  47.280  1.00  0.00    -0.211 F 
HETATM   26  C21 UNL     1      25.163   5.686  48.679  1.00  0.00     0.035 C 
HETATM   27  C22 UNL     1      25.537   4.670  49.621  1.00  0.00    -0.012 C 
HETATM   28  C23 UNL     1      26.021   3.813  50.468  1.00  0.00     0.074 C 
HETATM   29  H8  UNL     1      21.049  -0.510  53.005  1.00  0.00     0.317 HD
ENDROOT
BRANCH   1  30
HETATM   30  C1  UNL     1      26.728  -0.525  53.863  1.00  0.00     0.397 C 
BRANCH  30  31
HETATM   31  N1  UNL     1      27.696  -0.162  54.880  1.00  0.00     0.096 N 
HETATM   32  H1  UNL     1      28.658  -0.102  54.485  1.00  0.00     0.314 HD
HETATM   33  H2  UNL     1      27.697  -0.858  55.662  1.00  0.00     0.314 HD
ENDBRANCH  30  31
ENDBRANCH   1  30
TORSDOF 2
ENDMDL
MODEL 3
REMARK VINA RESULT:      -8.8      3.222      7.285
REMARK  2 active torsions:
REMARK  status: ('A' for Active; 'I' for Inactive)
REMARK    1  A    between atoms: N1_1  and  C1_2 
REMARK    2  A    between atoms: C1_2  and  N2_3 
ROOT
HETATM    1  N2  UNL     1      16.422   0.173  51.765  1.00  0.00    -0.318 N 
HETATM    2  C2  UNL     1      16.165   1.337  51.002  1.00  0.00     0.211 A 
HETATM    3  N3  UNL     1      17.091   2.212  50.806  1.00  0.00    -0.247 NA
HETATM    4  C3  UNL     1      18.384   2.019  51.354  1.00  0.00     0.046 A 
HETATM    5  C4  UNL     1      18.693   0.911  52.098  1.00  0.00     0.053 A 
HETATM    6  C5  UNL     1      17.688  -0.041  52.316  1.00  0.00     0.024 A 
HETATM    7  C6  UNL     1      18.028  -1.027  53.065  1.00  0.00     0.092 A 
HETATM    8  C7  UNL     1      18.977  -1.771  53.853  1.00  0.00     0.244 A 
HETATM    9  O1  UNL     1      19.573  -0.745  53.351  1.00  0.00     0.000 OA
HETATM   10  N4  UNL     1      20.340  -1.662  54.207  1.00  0.00     0.099 N 
HETATM   11  C8  UNL     1      21.711  -1.199  54.311  1.00  0.00     0.273 C 
HETATM   12  C9  UNL     1      22.473  -1.268  53.003  1.00  0.00     0.056 C 
HETATM   13  C10 UNL     1      23.892  -0.795  53.162  1.00  0.00     0.169 C 
HETATM   14  O2  UNL     1      23.936   0.559  53.325  1.00  0.00    -0.391 OA
HETATM   15  C11 UNL     1      25.234   1.013  53.618  1.00  0.00     0.172 C 
HETATM   16  C12 UNL     1      25.260   2.494  53.610  1.00  0.00     0.065 C 
HETATM   17  C13 UNL     1      25.103   3.075  52.254  1.00  0.00    -0.050 A 
HETATM   18  C14 UNL     1      26.174   2.548  51.532  1.00  0.00     0.007 A 
HETATM   19  C15 UNL     1      26.417   2.842  50.182  1.00  0.00     0.001 A 
HETATM   20  C16 UNL     1      25.561   3.701  49.508  1.00  0.00     0.001 A 
HETATM   21  C17 UNL     1      24.515   4.199  50.259  1.00  0.00     0.008 A 
HETATM   22  C18 UNL     1      24.258   3.924  51.582  1.00  0.00    -0.045 A 
HETATM   23  C19 UNL     1      23.072   4.563  52.184  1.00  0.00     0.109 C 
HETATM   24  C20 UNL     1      22.315   5.391  51.207  1.00  0.00     0.098 C 
HETATM   25  F1  UNL     1      22.587   6.530  50.589  1.00  0.00    -0.211 F 
HETATM   26  C21 UNL     1      21.106   5.013  50.805  1.00  0.00     0.035 C 
HETATM   27  C22 UNL     1      20.059   4.036  50.899  1.00  0.00    -0.012 C 
HETATM   28  C23 UNL     1      19.033   3.241  50.881  1.00  0.00     0.074 C 
HETATM   29  H8  UNL     1      20.098  -2.557  54.765  1.00  0.00     0.317 HD
ENDROOT
BRANCH   1  30
HETATM   30  C1  UNL     1      15.389  -0.803  51.983  1.00  0.00     0.397 C 
BRANCH  30  31
HETATM   31  N1  UNL     1      14.534  -0.458  53.102  1.00  0.00     0.096 N 
HETATM   32  H1  UNL     1      14.338  -1.286  53.700  1.00  0.00     0.314 HD
HETATM   33  H2  UNL     1      13.623  -0.061  52.768  1.00  0.00     0.314 HD
ENDBRANCH  30  31
ENDBRANCH   1  30
TORSDOF 2
ENDMDL
MODEL 4
REMARK VINA RESULT:      -8.8      3.663      6.572
REMARK  2 active torsions:
REMARK  status: ('A' for Active; 'I' for Inactive)
REMARK    1  A    between atoms: N1_1  and  C1_2 
REMARK    2  A    between atoms: C1_2  and  N2_3 
ROOT
HETATM    1  N2  UNL     1      21.745   0.447  53.064  1.00  0.00    -0.318 N 
HETATM    2  C2  UNL     1      20.473   1.064  52.984  1.00  0.00     0.211 A 
HETATM    3  N3  UNL     1      20.344   2.240  52.470  1.00  0.00    -0.247 NA
HETATM    4  C3  UNL     1      21.479   2.931  51.975  1.00  0.00     0.046 A 
HETATM    5  C4  UNL     1      22.734   2.384  52.022  1.00  0.00     0.053 A 
HETATM    6  C5  UNL     1      22.878   1.108  52.583  1.00  0.00     0.024 A 
HETATM    7  C6  UNL     1      24.086   0.676  52.645  1.00  0.00     0.092 A 
HETATM    8  C7  UNL     1      25.501   0.788  52.403  1.00  0.00     0.244 A 
HETATM    9  O1  UNL     1      24.918   1.832  51.922  1.00  0.00     0.000 OA
HETATM   10  N4  UNL     1      26.379   1.718  51.802  1.00  0.00     0.099 N 
HETATM   11  C8  UNL     1      26.902   2.880  51.107  1.00  0.00     0.273 C 
HETATM   12  C9  UNL     1      26.466   2.965  49.659  1.00  0.00     0.056 C 
HETATM   13  C10 UNL     1      27.045   4.173  48.976  1.00  0.00     0.169 C 
HETATM   14  O2  UNL     1      26.438   5.315  49.413  1.00  0.00    -0.391 OA
HETATM   15  C11 UNL     1      27.053   6.470  48.899  1.00  0.00     0.172 C 
HETATM   16  C12 UNL     1      26.255   7.665  49.259  1.00  0.00     0.065 C 
HETATM   17  C13 UNL     1      24.960   7.742  48.539  1.00  0.00    -0.050 A 
HETATM   18  C14 UNL     1      25.321   7.763  47.192  1.00  0.00     0.007 A 
HETATM   19  C15 UNL     1      24.392   7.838  46.142  1.00  0.00     0.001 A 
HETATM   20  C16 UNL     1      23.038   7.895  46.436  1.00  0.00     0.001 A 
HETATM   21  C17 UNL     1      22.724   7.870  47.781  1.00  0.00     0.008 A 
HETATM   22  C18 UNL     1      23.618   7.798  48.825  1.00  0.00    -0.045 A 
HETATM   23  C19 UNL     1      23.057   7.774  50.189  1.00  0.00     0.109 C 
HETATM   24  C20 UNL     1      21.570   7.796  50.193  1.00  0.00     0.098 C 
HETATM   25  F1  UNL     1      20.681   8.722  49.868  1.00  0.00    -0.211 F 
HETATM   26  C21 UNL     1      20.886   6.727  50.591  1.00  0.00     0.035 C 
HETATM   27  C22 UNL     1      20.942   5.381  51.084  1.00  0.00    -0.012 C 
HETATM   28  C23 UNL     1      20.834   4.167  51.530  1.00  0.00     0.074 C 
HETATM   29  H8  UNL     1      27.111   0.991  52.127  1.00  0.00     0.317 HD
ENDROOT
BRANCH   1  30
HETATM   30  C1  UNL     1      21.889  -0.863  53.637  1.00  0.00     0.397 C 
BRANCH  30  31
HETATM   31  N1  UNL     1      20.778  -1.210  54.502  1.00  0.00     0.096 N 
HETATM   32  H1  UNL     1      21.058  -1.195  55.505  1.00  0.00     0.314 HD
HETATM   33  H2  UNL     1      20.406  -2.161  54.272  1.00  0.00     0.314 HD
ENDBRANCH  30  31
ENDBRANCH   1  30
TORSDOF 2
ENDMDL
MODEL 5
REMARK VINA RESULT:      -8.6      3.641      6.886
REMARK  2 active torsions:
REMARK  status: ('A' for Active; 'I' for Inactive)
REMARK    1  A    between atoms: N1_1  and  C1_2 
REMARK    2  A    between atoms: C1_2  and  N2_3 
ROOT
HETATM    1  N2  UNL     1      18.788  -0.938  52.954  1.00  0.00    -0.318 N 
HETATM    2  C2  UNL     1      19.961  -1.118  53.726  1.00  0.00     0.211 A 
HETATM    3  N3  UNL     1      21.035  -0.460  53.453  1.00  0.00    -0.247 NA
HETATM    4  C3  UNL     1      21.054   0.459  52.372  1.00  0.00     0.046 A 
HETATM    5  C4  UNL     1      19.950   0.678  51.593  1.00  0.00     0.053 A 
HETATM    6  C5  UNL     1      18.781  -0.040  51.885  1.00  0.00     0.024 A 
HETATM    7  C6  UNL     1      17.801   0.173  51.084  1.00  0.00     0.092 A 
HETATM    8  C7  UNL     1      17.181   0.829  49.961  1.00  0.00     0.244 A 
HETATM    9  O1  UNL     1      18.371   1.302  50.109  1.00  0.00     0.000 OA
HETATM   10  N4  UNL     1      17.535   1.815  49.013  1.00  0.00     0.099 N 
HETATM   11  C8  UNL     1      18.267   2.830  48.278  1.00  0.00     0.273 C 
HETATM   12  C9  UNL     1      18.544   4.081  49.085  1.00  0.00     0.056 C 
HETATM   13  C10 UNL     1      19.287   5.109  48.278  1.00  0.00     0.169 C 
HETATM   14  O2  UNL     1      20.584   4.729  48.085  1.00  0.00    -0.391 OA
HETATM   15  C11 UNL     1      21.265   5.598  47.217  1.00  0.00     0.172 C 
HETATM   16  C12 UNL     1      22.704   5.246  47.181  1.00  0.00     0.065 C 
HETATM   17  C13 UNL     1      23.415   5.564  48.444  1.00  0.00    -0.050 A 
HETATM   18  C14 UNL     1      23.236   6.938  48.598  1.00  0.00     0.007 A 
HETATM   19  C15 UNL     1      23.756   7.671  49.677  1.00  0.00     0.001 A 
HETATM   20  C16 UNL     1      24.492   7.014  50.653  1.00  0.00     0.001 A 
HETATM   21  C17 UNL     1      24.644   5.654  50.462  1.00  0.00     0.008 A 
HETATM   22  C18 UNL     1      24.143   4.918  49.413  1.00  0.00    -0.045 A 
HETATM   23  C19 UNL     1      24.421   3.469  49.416  1.00  0.00     0.109 C 
HETATM   24  C20 UNL     1      25.189   3.040  50.615  1.00  0.00     0.098 C 
HETATM   25  F1  UNL     1      26.433   3.256  51.014  1.00  0.00    -0.211 F 
HETATM   26  C21 UNL     1      24.615   2.275  51.539  1.00  0.00     0.035 C 
HETATM   27  C22 UNL     1      23.431   1.584  51.960  1.00  0.00    -0.012 C 
HETATM   28  C23 UNL     1      22.441   0.914  52.467  1.00  0.00     0.074 C 
HETATM   29  H8  UNL     1      16.542   1.590  48.649  1.00  0.00     0.317 HD
ENDROOT
BRANCH   1  30
HETATM   30  C1  UNL     1      17.590  -1.673  53.259  1.00  0.00     0.397 C 
BRANCH  30  31
HETATM   31  N1  UNL     1      17.845  -2.802  54.132  1.00  0.00     0.096 N 
HETATM   32  H1  UNL     1      18.463  -2.536  54.926  1.00  0.00     0.314 HD
HETATM   33  H2  UNL     1      18.294  -3.589  53.606  1.00  0.00     0.314 HD
ENDBRANCH  30  31
ENDBRANCH   1  30
TORSDOF 2
ENDMDL
MODEL 6
REMARK VINA RESULT:      -8.5      8.982     12.889
REMARK  2 active torsions:
REMARK  status: ('A' for Active; 'I' for Inactive)
REMARK    1  A    between atoms: N1_1  and  C1_2 
REMARK    2  A    between atoms: C1_2  and  N2_3 
ROOT
HETATM    1  N2  UNL     1      25.366   7.324  49.432  1.00  0.00    -0.318 N 
HETATM    2  C2  UNL     1      25.650   5.939  49.512  1.00  0.00     0.211 A 
HETATM    3  N3  UNL     1      26.793   5.479  49.130  1.00  0.00    -0.247 NA
HETATM    4  C3  UNL     1      27.784   6.358  48.624  1.00  0.00     0.046 A 
HETATM    5  C4  UNL     1      27.568   7.707  48.525  1.00  0.00     0.053 A 
HETATM    6  C5  UNL     1      26.326   8.210  48.936  1.00  0.00     0.024 A 
HETATM    7  C6  UNL     1      26.170   9.474  48.768  1.00  0.00     0.092 A 
HETATM    8  C7  UNL     1      26.630  10.781  48.377  1.00  0.00     0.244 A 
HETATM    9  O1  UNL     1      27.593   9.941  48.213  1.00  0.00     0.000 OA
HETATM   10  N4  UNL     1      27.820  11.353  47.872  1.00  0.00     0.099 N 
HETATM   11  C8  UNL     1      29.181  11.527  47.400  1.00  0.00     0.273 C 
HETATM   12  C9  UNL     1      30.227  11.281  48.467  1.00  0.00     0.056 C 
HETATM   13  C10 UNL     1      31.619  11.490  47.937  1.00  0.00     0.169 C 
HETATM   14  O2  UNL     1      31.976  10.473  47.098  1.00  0.00    -0.391 OA
HETATM   15  C11 UNL     1      33.214  10.711  46.477  1.00  0.00     0.172 C 
HETATM   16  C12 UNL     1      33.635   9.509  45.721  1.00  0.00     0.065 C 
HETATM   17  C13 UNL     1      34.020   8.374  46.595  1.00  0.00    -0.050 A 
HETATM   18  C14 UNL     1      35.068   8.878  47.365  1.00  0.00     0.007 A 
HETATM   19  C15 UNL     1      35.745   8.126  48.338  1.00  0.00     0.001 A 
HETATM   20  C16 UNL     1      35.369   6.810  48.563  1.00  0.00     0.001 A 
HETATM   21  C17 UNL     1      34.327   6.351  47.780  1.00  0.00     0.008 A 
HETATM   22  C18 UNL     1      33.651   7.070  46.822  1.00  0.00    -0.045 A 
HETATM   23  C19 UNL     1      32.560   6.380  46.109  1.00  0.00     0.109 C 
HETATM   24  C20 UNL     1      32.352   4.990  46.597  1.00  0.00     0.098 C 
HETATM   25  F1  UNL     1      33.077   3.886  46.509  1.00  0.00    -0.211 F 
HETATM   26  C21 UNL     1      31.246   4.673  47.263  1.00  0.00     0.035 C 
HETATM   27  C22 UNL     1      29.993   5.127  47.797  1.00  0.00    -0.012 C 
HETATM   28  C23 UNL     1      28.839   5.389  48.330  1.00  0.00     0.074 C 
HETATM   29  H8  UNL     1      27.204  12.243  47.883  1.00  0.00     0.317 HD
ENDROOT
BRANCH   1  30
HETATM   30  C1  UNL     1      24.093   7.837  49.857  1.00  0.00     0.397 C 
BRANCH  30  31
HETATM   31  N1  UNL     1      23.951   7.825  51.300  1.00  0.00     0.096 N 
HETATM   32  H1  UNL     1      24.067   6.865  51.686  1.00  0.00     0.314 HD
HETATM   33  H2  UNL     1      23.012   8.190  51.587  1.00  0.00     0.314 HD
ENDBRANCH  30  31
ENDBRANCH   1  30
TORSDOF 2
ENDMDL
MODEL 7
REMARK VINA RESULT:      -8.2      3.316      6.055
REMARK  2 active torsions:
REMARK  status: ('A' for Active; 'I' for Inactive)
REMARK    1  A    between atoms: N1_1  and  C1_2 
REMARK    2  A    between atoms: C1_2  and  N2_3 
ROOT
HETATM    1  N2  UNL     1      23.465  -0.784  54.284  1.00  0.00    -0.318 N 
HETATM    2  C2  UNL     1      22.616  -1.691  54.962  1.00  0.00     0.211 A 
HETATM    3  N3  UNL     1      21.359  -1.751  54.680  1.00  0.00    -0.247 NA
HETATM    4  C3  UNL     1      20.810  -0.906  53.682  1.00  0.00     0.046 A 
HETATM    5  C4  UNL     1      21.583  -0.011  52.990  1.00  0.00     0.053 A 
HETATM    6  C5  UNL     1      22.949   0.059  53.296  1.00  0.00     0.024 A 
HETATM    7  C6  UNL     1      23.604   0.954  52.650  1.00  0.00     0.092 A 
HETATM    8  C7  UNL     1      23.716   2.004  51.670  1.00  0.00     0.244 A 
HETATM    9  O1  UNL     1      22.507   1.558  51.660  1.00  0.00     0.000 OA
HETATM   10  N4  UNL     1      22.868   2.648  50.742  1.00  0.00     0.099 N 
HETATM   11  C8  UNL     1      21.712   3.018  49.947  1.00  0.00     0.273 C 
HETATM   12  C9  UNL     1      21.261   1.932  48.994  1.00  0.00     0.056 C 
HETATM   13  C10 UNL     1      20.073   2.366  48.180  1.00  0.00     0.169 C 
HETATM   14  O2  UNL     1      18.946   2.408  48.951  1.00  0.00    -0.391 OA
HETATM   15  C11 UNL     1      17.850   2.945  48.255  1.00  0.00     0.172 C 
HETATM   16  C12 UNL     1      16.622   2.806  49.070  1.00  0.00     0.065 C 
HETATM   17  C13 UNL     1      16.160   1.402  49.196  1.00  0.00    -0.050 A 
HETATM   18  C14 UNL     1      15.940   0.996  47.880  1.00  0.00     0.007 A 
HETATM   19  C15 UNL     1      15.485  -0.285  47.530  1.00  0.00     0.001 A 
HETATM   20  C16 UNL     1      15.233  -1.213  48.530  1.00  0.00     0.001 A 
HETATM   21  C17 UNL     1      15.464  -0.770  49.818  1.00  0.00     0.008 A 
HETATM   22  C18 UNL     1      15.909   0.479  50.183  1.00  0.00    -0.045 A 
HETATM   23  C19 UNL     1      16.096   0.732  51.624  1.00  0.00     0.109 C 
HETATM   24  C20 UNL     1      15.796  -0.465  52.454  1.00  0.00     0.098 C 
HETATM   25  F1  UNL     1      14.673  -1.107  52.737  1.00  0.00    -0.211 F 
HETATM   26  C21 UNL     1      16.773  -1.095  53.098  1.00  0.00     0.035 C 
HETATM   27  C22 UNL     1      18.176  -1.153  53.393  1.00  0.00    -0.012 C 
HETATM   28  C23 UNL     1      19.412  -1.331  53.748  1.00  0.00     0.074 C 
HETATM   29  H8  UNL     1      23.771   3.217  50.560  1.00  0.00     0.317 HD
ENDROOT
BRANCH   1  30
HETATM   30  C1  UNL     1      24.866  -0.718  54.598  1.00  0.00     0.397 C 
BRANCH  30  31
HETATM   31  N1  UNL     1      25.174  -1.340  55.871  1.00  0.00     0.096 N 
HETATM   32  H1  UNL     1      24.775  -2.300  55.931  1.00  0.00     0.314 HD
HETATM   33  H2  UNL     1      24.800  -0.770  56.667  1.00  0.00     0.314 HD
ENDBRANCH  30  31
ENDBRANCH   1  30
TORSDOF 2
ENDMDL
MODEL 8
REMARK VINA RESULT:      -8.1      4.414      8.095
REMARK  2 active torsions:
REMARK  status: ('A' for Active; 'I' for Inactive)
REMARK    1  A    between atoms: N1_1  and  C1_2 
REMARK    2  A    between atoms: C1_2  and  N2_3 
ROOT
HETATM    1  N2  UNL     1      16.225  -1.455  52.207  1.00  0.00    -0.318 N 
HETATM    2  C2  UNL     1      16.996  -1.960  53.281  1.00  0.00     0.211 A 
HETATM    3  N3  UNL     1      18.213  -1.569  53.458  1.00  0.00    -0.247 NA
HETATM    4  C3  UNL     1      18.794  -0.624  52.575  1.00  0.00     0.046 A 
HETATM    5  C4  UNL     1      18.096  -0.098  51.520  1.00  0.00     0.053 A 
HETATM    6  C5  UNL     1      16.775  -0.523  51.323  1.00  0.00     0.024 A 
HETATM    7  C6  UNL     1      16.197  -0.033  50.287  1.00  0.00     0.092 A 
HETATM    8  C7  UNL     1      16.153   0.817  49.125  1.00  0.00     0.244 A 
HETATM    9  O1  UNL     1      17.291   0.975  49.708  1.00  0.00     0.000 OA
HETATM   10  N4  UNL     1      17.010   1.739  48.483  1.00  0.00     0.099 N 
HETATM   11  C8  UNL     1      18.146   2.583  48.164  1.00  0.00     0.273 C 
HETATM   12  C9  UNL     1      18.387   3.681  49.179  1.00  0.00     0.056 C 
HETATM   13  C10 UNL     1      19.561   4.540  48.799  1.00  0.00     0.169 C 
HETATM   14  O2  UNL     1      20.734   3.866  48.982  1.00  0.00    -0.391 OA
HETATM   15  C11 UNL     1      21.839   4.590  48.502  1.00  0.00     0.172 C 
HETATM   16  C12 UNL     1      23.094   3.899  48.881  1.00  0.00     0.065 C 
HETATM   17  C13 UNL     1      23.379   3.962  50.335  1.00  0.00    -0.050 A 
HETATM   18  C14 UNL     1      23.453   5.327  50.609  1.00  0.00     0.007 A 
HETATM   19  C15 UNL     1      23.715   5.848  51.886  1.00  0.00     0.001 A 
HETATM   20  C16 UNL     1      23.915   4.978  52.947  1.00  0.00     0.001 A 
HETATM   21  C17 UNL     1      23.833   3.635  52.633  1.00  0.00     0.008 A 
HETATM   22  C18 UNL     1      23.577   3.104  51.390  1.00  0.00    -0.045 A 
HETATM   23  C19 UNL     1      23.525   1.633  51.285  1.00  0.00     0.109 C 
HETATM   24  C20 UNL     1      23.727   0.963  52.597  1.00  0.00     0.098 C 
HETATM   25  F1  UNL     1      24.775   0.845  53.398  1.00  0.00    -0.211 F 
HETATM   26  C21 UNL     1      22.724   0.311  53.177  1.00  0.00     0.035 C 
HETATM   27  C22 UNL     1      21.349  -0.092  53.100  1.00  0.00    -0.012 C 
HETATM   28  C23 UNL     1      20.128  -0.528  53.168  1.00  0.00     0.074 C 
HETATM   29  H8  UNL     1      16.177   1.783  47.793  1.00  0.00     0.317 HD
ENDROOT
BRANCH   1  30
HETATM   30  C1  UNL     1      14.869  -1.890  52.010  1.00  0.00     0.397 C 
BRANCH  30  31
HETATM   31  N1  UNL     1      13.996  -1.474  53.090  1.00  0.00     0.096 N 
HETATM   32  H1  UNL     1      14.503  -0.884  53.782  1.00  0.00     0.314 HD
HETATM   33  H2  UNL     1      13.593  -2.303  53.587  1.00  0.00     0.314 HD
ENDBRANCH  30  31
ENDBRANCH   1  30
TORSDOF 2
ENDMDL
MODEL 9
REMARK VINA RESULT:      -8.0      3.141      5.572
REMARK  2 active torsions:
REMARK  status: ('A' for Active; 'I' for Inactive)
REMARK    1  A    between atoms: N1_1  and  C1_2 
REMARK    2  A    between atoms: C1_2  and  N2_3 
ROOT
HETATM    1  N2  UNL     1      24.814   0.962  53.539  1.00  0.00    -0.318 N 
HETATM    2  C2  UNL     1      24.460  -0.349  53.936  1.00  0.00     0.211 A 
HETATM    3  N3  UNL     1      23.250  -0.773  53.802  1.00  0.00    -0.247 NA
HETATM    4  C3  UNL     1      22.254   0.073  53.252  1.00  0.00     0.046 A 
HETATM    5  C4  UNL     1      22.537   1.350  52.846  1.00  0.00     0.053 A 
HETATM    6  C5  UNL     1      23.851   1.815  52.993  1.00  0.00     0.024 A 
HETATM    7  C6  UNL     1      24.036   3.037  52.644  1.00  0.00     0.092 A 
HETATM    8  C7  UNL     1      23.594   4.298  52.106  1.00  0.00     0.244 A 
HETATM    9  O1  UNL     1      22.607   3.469  52.077  1.00  0.00     0.000 OA
HETATM   10  N4  UNL     1      22.398   4.838  51.582  1.00  0.00     0.099 N 
HETATM   11  C8  UNL     1      21.031   4.984  51.118  1.00  0.00     0.273 C 
HETATM   12  C9  UNL     1      20.714   4.148  49.896  1.00  0.00     0.056 C 
HETATM   13  C10 UNL     1      19.294   4.344  49.442  1.00  0.00     0.169 C 
HETATM   14  O2  UNL     1      18.422   3.742  50.303  1.00  0.00    -0.391 OA
HETATM   15  C11 UNL     1      17.084   4.028  49.984  1.00  0.00     0.172 C 
HETATM   16  C12 UNL     1      16.182   3.215  50.832  1.00  0.00     0.065 C 
HETATM   17  C13 UNL     1      16.206   1.770  50.493  1.00  0.00    -0.050 A 
HETATM   18  C14 UNL     1      15.814   1.728  49.156  1.00  0.00     0.007 A 
HETATM   19  C15 UNL     1      15.694   0.538  48.421  1.00  0.00     0.001 A 
HETATM   20  C16 UNL     1      15.975  -0.673  49.037  1.00  0.00     0.001 A 
HETATM   21  C17 UNL     1      16.359  -0.585  50.361  1.00  0.00     0.008 A 
HETATM   22  C18 UNL     1      16.483   0.569  51.099  1.00  0.00    -0.045 A 
HETATM   23  C19 UNL     1      16.920   0.427  52.501  1.00  0.00     0.109 C 
HETATM   24  C20 UNL     1      17.197  -0.987  52.869  1.00  0.00     0.098 C 
HETATM   25  F1  UNL     1      16.418  -2.046  53.029  1.00  0.00    -0.211 F 
HETATM   26  C21 UNL     1      18.441  -1.383  53.120  1.00  0.00     0.035 C 
HETATM   27  C22 UNL     1      19.824  -1.013  53.206  1.00  0.00    -0.012 C 
HETATM   28  C23 UNL     1      21.104  -0.828  53.323  1.00  0.00     0.074 C 
HETATM   29  H8  UNL     1      23.019   5.722  51.514  1.00  0.00     0.317 HD
ENDROOT
BRANCH   1  30
HETATM   30  C1  UNL     1      26.163   1.435  53.688  1.00  0.00     0.397 C 
BRANCH  30  31
HETATM   31  N1  UNL     1      26.755   1.020  54.945  1.00  0.00     0.096 N 
HETATM   32  H1  UNL     1      27.007   1.840  55.535  1.00  0.00     0.314 HD
HETATM   33  H2  UNL     1      27.616   0.445  54.783  1.00  0.00     0.314 HD
ENDBRANCH  30  31
ENDBRANCH   1  30
TORSDOF 2
ENDMDL
