MODEL 1
REMARK VINA RESULT:      -8.4      0.000      0.000
REMARK  4 active torsions:
REMARK  status: ('A' for Active; 'I' for Inactive)
REMARK    1  A    between atoms: C2_2  and  O1_3 
REMARK    2  A    between atoms: O1_3  and  C3_4 
REMARK    3  A    between atoms: C8_11  and  N3_12 
REMARK    4  A    between atoms: N3_12  and  C9_13 
ROOT
HETATM    1  C3  UNL     1      21.497   0.991  50.544  1.00  0.00     0.107 A 
HETATM    2  C4  UNL     1      21.403   0.304  51.672  1.00  0.00     0.073 A 
HETATM    3  C5  UNL     1      22.455   0.266  52.681  1.00  0.00     0.086 A 
HETATM    4  N1  UNL     1      22.372  -0.402  53.783  1.00  0.00    -0.173 NA
HETATM    5  C6  UNL     1      21.184  -1.129  54.005  1.00  0.00     0.206 C 
HETATM    6  N2  UNL     1      20.197  -1.724  54.168  1.00  0.00    -0.170 NA
HETATM    7  C7  UNL     1      23.681   1.022  52.444  1.00  0.00     0.045 A 
HETATM    8  C8  UNL     1      24.709   1.089  53.244  1.00  0.00     0.105 C 
HETATM    9  C15 UNL     1      23.726   1.759  51.185  1.00  0.00     0.118 A 
HETATM   10  C16 UNL     1      22.737   1.757  50.305  1.00  0.00     0.136 A 
HETATM   11  O2  UNL     1      22.830   2.471  49.128  1.00  0.00    -0.344 OA
HETATM   12  C17 UNL     1      23.532   3.699  49.012  1.00  0.00     0.202 C 
HETATM   13  C18 UNL     1      24.626   3.743  50.042  1.00  0.00     0.202 C 
HETATM   14  O3  UNL     1      24.778   2.533  50.760  1.00  0.00    -0.345 OA
ENDROOT
BRANCH   1  15
HETATM   15  O1  UNL     1      20.423   0.945  49.667  1.00  0.00    -0.348 OA
BRANCH  15  16
HETATM   16  C2  UNL     1      19.210   1.628  49.906  1.00  0.00     0.171 C 
HETATM   17  C1  UNL     1      18.092   0.610  50.134  1.00  0.00     0.034 C 
ENDBRANCH  15  16
ENDBRANCH   1  15
BRANCH   8  18
HETATM   18  N3  UNL     1      25.938   1.791  53.105  1.00  0.00    -0.365 N 
HETATM   19  H8  UNL     1      25.993   2.805  52.869  1.00  0.00     0.165 HD
BRANCH  18  20
HETATM   20  C9  UNL     1      27.139   1.085  53.295  1.00  0.00     0.033 A 
HETATM   21  C10 UNL     1      28.303   1.713  53.715  1.00  0.00     0.032 A 
HETATM   22  C11 UNL     1      29.480   0.985  53.896  1.00  0.00     0.046 A 
HETATM   23  C12 UNL     1      29.537  -0.386  53.664  1.00  0.00     0.138 A 
HETATM   24  F1  UNL     1      30.683  -1.054  53.847  1.00  0.00    -0.204 F 
HETATM   25  C13 UNL     1      28.375  -1.010  53.244  1.00  0.00     0.074 A 
HETATM   26 CL1  UNL     1      28.386  -2.752  52.934  1.00  0.00    -0.081 Cl
HETATM   27  C14 UNL     1      27.235  -0.280  53.075  1.00  0.00     0.056 A 
ENDBRANCH  18  20
ENDBRANCH   8  18
TORSDOF 4
ENDMDL
MODEL 2
REMARK VINA RESULT:      -8.3      4.093      7.153
REMARK  4 active torsions:
REMARK  status: ('A' for Active; 'I' for Inactive)
REMARK    1  A    between atoms: C2_2  and  O1_3 
REMARK    2  A    between atoms: O1_3  and  C3_4 
REMARK    3  A    between atoms: C8_11  and  N3_12 
REMARK    4  A    between atoms: N3_12  and  C9_13 
ROOT
HETATM    1  C3  UNL     1      26.330   3.488  50.023  1.00  0.00     0.107 A 
HETATM    2  C4  UNL     1      25.139   3.756  49.511  1.00  0.00     0.073 A 
HETATM    3  C5  UNL     1      23.887   3.301  50.105  1.00  0.00     0.086 A 
HETATM    4  N1  UNL     1      22.721   3.558  49.612  1.00  0.00    -0.173 NA
HETATM    5  C6  UNL     1      22.679   4.327  48.430  1.00  0.00     0.206 C 
HETATM    6  N2  UNL     1      22.666   4.961  47.454  1.00  0.00    -0.170 NA
HETATM    7  C7  UNL     1      23.939   2.507  51.329  1.00  0.00     0.045 A 
HETATM    8  C8  UNL     1      22.915   2.028  51.978  1.00  0.00     0.105 C 
HETATM    9  C15 UNL     1      25.279   2.245  51.844  1.00  0.00     0.118 A 
HETATM   10  C16 UNL     1      26.383   2.685  51.261  1.00  0.00     0.136 A 
HETATM   11  O2  UNL     1      27.627   2.408  51.791  1.00  0.00    -0.344 OA
HETATM   12  C17 UNL     1      27.873   2.281  53.183  1.00  0.00     0.202 C 
HETATM   13  C18 UNL     1      26.614   1.834  53.870  1.00  0.00     0.202 C 
HETATM   14  O3  UNL     1      25.561   1.521  52.978  1.00  0.00    -0.345 OA
ENDROOT
BRANCH   1  15
HETATM   15  O1  UNL     1      27.445   3.981  49.361  1.00  0.00    -0.348 OA
BRANCH  15  16
HETATM   16  C2  UNL     1      27.413   5.159  48.581  1.00  0.00     0.171 C 
HETATM   17  C1  UNL     1      28.842   5.565  48.219  1.00  0.00     0.034 C 
ENDBRANCH  15  16
ENDBRANCH   1  15
BRANCH   8  18
HETATM   18  N3  UNL     1      22.862   1.250  53.166  1.00  0.00    -0.365 N 
HETATM   19  H8  UNL     1      23.569   1.324  53.929  1.00  0.00     0.165 HD
BRANCH  18  20
HETATM   20  C9  UNL     1      21.806   0.335  53.324  1.00  0.00     0.033 A 
HETATM   21  C10 UNL     1      21.897  -0.755  54.177  1.00  0.00     0.032 A 
HETATM   22  C11 UNL     1      20.830  -1.645  54.312  1.00  0.00     0.046 A 
HETATM   23  C12 UNL     1      19.643  -1.479  53.606  1.00  0.00     0.138 A 
HETATM   24  F1  UNL     1      18.640  -2.352  53.760  1.00  0.00    -0.204 F 
HETATM   25  C13 UNL     1      19.554  -0.392  52.756  1.00  0.00     0.074 A 
HETATM   26 CL1  UNL     1      18.069  -0.128  51.830  1.00  0.00    -0.081 Cl
HETATM   27  C14 UNL     1      20.608   0.467  52.638  1.00  0.00     0.056 A 
ENDBRANCH  18  20
ENDBRANCH   8  18
TORSDOF 4
ENDMDL
MODEL 3
REMARK VINA RESULT:      -8.3      2.473      4.081
REMARK  4 active torsions:
REMARK  status: ('A' for Active; 'I' for Inactive)
REMARK    1  A    between atoms: C2_2  and  O1_3 
REMARK    2  A    between atoms: O1_3  and  C3_4 
REMARK    3  A    between atoms: C8_11  and  N3_12 
REMARK    4  A    between atoms: N3_12  and  C9_13 
ROOT
HETATM    1  C3  UNL     1      20.866   2.116  52.638  1.00  0.00     0.107 A 
HETATM    2  C4  UNL     1      21.749   2.825  51.953  1.00  0.00     0.073 A 
HETATM    3  C5  UNL     1      23.154   2.453  51.823  1.00  0.00     0.086 A 
HETATM    4  N1  UNL     1      24.021   3.138  51.156  1.00  0.00    -0.173 NA
HETATM    5  C6  UNL     1      23.563   4.312  50.524  1.00  0.00     0.206 C 
HETATM    6  N2  UNL     1      23.166   5.278  50.010  1.00  0.00    -0.170 NA
HETATM    7  C7  UNL     1      23.619   1.235  52.481  1.00  0.00     0.045 A 
HETATM    8  C8  UNL     1      24.837   0.769  52.460  1.00  0.00     0.105 C 
HETATM    9  C15 UNL     1      22.600   0.497  53.220  1.00  0.00     0.118 A 
HETATM   10  C16 UNL     1      21.337   0.884  53.303  1.00  0.00     0.136 A 
HETATM   11  O2  UNL     1      20.413   0.149  54.017  1.00  0.00    -0.344 OA
HETATM   12  C17 UNL     1      20.458  -1.265  54.130  1.00  0.00     0.202 C 
HETATM   13  C18 UNL     1      21.881  -1.728  53.984  1.00  0.00     0.202 C 
HETATM   14  O3  UNL     1      22.818  -0.670  53.911  1.00  0.00    -0.345 OA
ENDROOT
BRANCH   1  15
HETATM   15  O1  UNL     1      19.559   2.579  52.683  1.00  0.00    -0.348 OA
BRANCH  15  16
HETATM   16  C2  UNL     1      18.709   2.580  51.555  1.00  0.00     0.171 C 
HETATM   17  C1  UNL     1      18.262   1.148  51.256  1.00  0.00     0.034 C 
ENDBRANCH  15  16
ENDBRANCH   1  15
BRANCH   8  18
HETATM   18  N3  UNL     1      25.386  -0.395  53.063  1.00  0.00    -0.365 N 
HETATM   19  H8  UNL     1      24.807  -1.208  53.367  1.00  0.00     0.165 HD
BRANCH  18  20
HETATM   20  C9  UNL     1      26.777  -0.458  53.260  1.00  0.00     0.033 A 
HETATM   21  C10 UNL     1      27.514  -1.590  52.944  1.00  0.00     0.032 A 
HETATM   22  C11 UNL     1      28.894  -1.621  53.151  1.00  0.00     0.046 A 
HETATM   23  C12 UNL     1      29.582  -0.532  53.678  1.00  0.00     0.138 A 
HETATM   24  F1  UNL     1      30.907  -0.596  53.863  1.00  0.00    -0.204 F 
HETATM   25  C13 UNL     1      28.845   0.595  53.992  1.00  0.00     0.074 A 
HETATM   26 CL1  UNL     1      29.664   2.013  54.665  1.00  0.00    -0.081 Cl
HETATM   27  C14 UNL     1      27.496   0.606  53.782  1.00  0.00     0.056 A 
ENDBRANCH  18  20
ENDBRANCH   8  18
TORSDOF 4
ENDMDL
MODEL 4
REMARK VINA RESULT:      -8.3      2.425      3.919
REMARK  4 active torsions:
REMARK  status: ('A' for Active; 'I' for Inactive)
REMARK    1  A    between atoms: C2_2  and  O1_3 
REMARK    2  A    between atoms: O1_3  and  C3_4 
REMARK    3  A    between atoms: C8_11  and  N3_12 
REMARK    4  A    between atoms: N3_12  and  C9_13 
ROOT
HETATM    1  C3  UNL     1      20.409   0.315  51.472  1.00  0.00     0.107 A 
HETATM    2  C4  UNL     1      21.034   0.990  50.520  1.00  0.00     0.073 A 
HETATM    3  C5  UNL     1      22.418   1.438  50.627  1.00  0.00     0.086 A 
HETATM    4  N1  UNL     1      23.035   2.097  49.704  1.00  0.00    -0.173 NA
HETATM    5  C6  UNL     1      22.309   2.390  48.530  1.00  0.00     0.206 C 
HETATM    6  N2  UNL     1      21.693   2.622  47.570  1.00  0.00    -0.170 NA
HETATM    7  C7  UNL     1      23.162   1.131  51.846  1.00  0.00     0.045 A 
HETATM    8  C8  UNL     1      24.399   1.461  52.093  1.00  0.00     0.105 C 
HETATM    9  C15 UNL     1      22.420   0.385  52.857  1.00  0.00     0.118 A 
HETATM   10  C16 UNL     1      21.162   0.004  52.704  1.00  0.00     0.136 A 
HETATM   11  O2  UNL     1      20.506  -0.700  53.694  1.00  0.00    -0.344 OA
HETATM   12  C17 UNL     1      21.153  -1.621  54.558  1.00  0.00     0.202 C 
HETATM   13  C18 UNL     1      22.599  -1.235  54.700  1.00  0.00     0.202 C 
HETATM   14  O3  UNL     1      22.922  -0.008  54.074  1.00  0.00    -0.345 OA
ENDROOT
BRANCH   1  15
HETATM   15  O1  UNL     1      19.091  -0.054  51.245  1.00  0.00    -0.348 OA
BRANCH  15  16
HETATM   16  C2  UNL     1      18.216   0.698  50.431  1.00  0.00     0.171 C 
HETATM   17  C1  UNL     1      16.970  -0.134  50.123  1.00  0.00     0.034 C 
ENDBRANCH  15  16
ENDBRANCH   1  15
BRANCH   8  18
HETATM   18  N3  UNL     1      25.204   1.212  53.238  1.00  0.00    -0.365 N 
HETATM   19  H8  UNL     1      25.084   1.718  54.142  1.00  0.00     0.165 HD
BRANCH  18  20
HETATM   20  C9  UNL     1      26.212   0.235  53.151  1.00  0.00     0.033 A 
HETATM   21  C10 UNL     1      25.935  -1.078  52.797  1.00  0.00     0.032 A 
HETATM   22  C11 UNL     1      26.958  -2.025  52.719  1.00  0.00     0.046 A 
HETATM   23  C12 UNL     1      28.283  -1.697  52.991  1.00  0.00     0.138 A 
HETATM   24  F1  UNL     1      29.239  -2.631  52.906  1.00  0.00    -0.204 F 
HETATM   25  C13 UNL     1      28.556  -0.388  53.345  1.00  0.00     0.074 A 
HETATM   26 CL1  UNL     1      30.223   0.088  53.702  1.00  0.00    -0.081 Cl
HETATM   27  C14 UNL     1      27.543   0.523  53.415  1.00  0.00     0.056 A 
ENDBRANCH  18  20
ENDBRANCH   8  18
TORSDOF 4
ENDMDL
MODEL 5
REMARK VINA RESULT:      -8.2      2.087      3.647
REMARK  4 active torsions:
REMARK  status: ('A' for Active; 'I' for Inactive)
REMARK    1  A    between atoms: C2_2  and  O1_3 
REMARK    2  A    between atoms: O1_3  and  C3_4 
REMARK    3  A    between atoms: C8_11  and  N3_12 
REMARK    4  A    between atoms: N3_12  and  C9_13 
ROOT
HETATM    1  C3  UNL     1      20.818   0.566  51.309  1.00  0.00     0.107 A 
HETATM    2  C4  UNL     1      21.547   1.316  50.498  1.00  0.00     0.073 A 
HETATM    3  C5  UNL     1      22.905   1.751  50.808  1.00  0.00     0.086 A 
HETATM    4  N1  UNL     1      23.623   2.482  50.024  1.00  0.00    -0.173 NA
HETATM    5  C6  UNL     1      23.042   2.873  48.799  1.00  0.00     0.206 C 
HETATM    6  N2  UNL     1      22.545   3.185  47.794  1.00  0.00    -0.170 NA
HETATM    7  C7  UNL     1      23.499   1.341  52.078  1.00  0.00     0.045 A 
HETATM    8  C8  UNL     1      24.695   1.646  52.499  1.00  0.00     0.105 C 
HETATM    9  C15 UNL     1      22.646   0.516  52.928  1.00  0.00     0.118 A 
HETATM   10  C16 UNL     1      21.419   0.152  52.593  1.00  0.00     0.136 A 
HETATM   11  O2  UNL     1      20.654  -0.630  53.434  1.00  0.00    -0.344 OA
HETATM   12  C17 UNL     1      21.200  -1.621  54.291  1.00  0.00     0.202 C 
HETATM   13  C18 UNL     1      22.614  -1.252  54.638  1.00  0.00     0.202 C 
HETATM   14  O3  UNL     1      23.002   0.023  54.159  1.00  0.00    -0.345 OA
ENDROOT
BRANCH   1  15
HETATM   15  O1  UNL     1      19.539   0.220  50.895  1.00  0.00    -0.348 OA
BRANCH  15  16
HETATM   16  C2  UNL     1      18.383   0.903  51.333  1.00  0.00     0.171 C 
HETATM   17  C1  UNL     1      17.420  -0.095  51.979  1.00  0.00     0.034 C 
ENDBRANCH  15  16
ENDBRANCH   1  15
BRANCH   8  18
HETATM   18  N3  UNL     1      25.358   1.301  53.708  1.00  0.00    -0.365 N 
HETATM   19  H8  UNL     1      24.901   1.350  54.645  1.00  0.00     0.165 HD
BRANCH  18  20
HETATM   20  C9  UNL     1      26.695   0.871  53.642  1.00  0.00     0.033 A 
HETATM   21  C10 UNL     1      27.759   1.747  53.796  1.00  0.00     0.032 A 
HETATM   22  C11 UNL     1      29.076   1.288  53.725  1.00  0.00     0.046 A 
HETATM   23  C12 UNL     1      29.374  -0.052  53.498  1.00  0.00     0.138 A 
HETATM   24  F1  UNL     1      30.649  -0.457  53.436  1.00  0.00    -0.204 F 
HETATM   25  C13 UNL     1      28.311  -0.924  53.344  1.00  0.00     0.074 A 
HETATM   26 CL1  UNL     1      28.628  -2.641  53.054  1.00  0.00    -0.081 Cl
HETATM   27  C14 UNL     1      27.032  -0.456  53.418  1.00  0.00     0.056 A 
ENDBRANCH  18  20
ENDBRANCH   8  18
TORSDOF 4
ENDMDL
MODEL 6
REMARK VINA RESULT:      -8.1      3.948      5.952
REMARK  4 active torsions:
REMARK  status: ('A' for Active; 'I' for Inactive)
REMARK    1  A    between atoms: C2_2  and  O1_3 
REMARK    2  A    between atoms: O1_3  and  C3_4 
REMARK    3  A    between atoms: C8_11  and  N3_12 
REMARK    4  A    between atoms: N3_12  and  C9_13 
ROOT
HETATM    1  C3  UNL     1      23.238  -0.222  52.961  1.00  0.00     0.107 A 
HETATM    2  C4  UNL     1      24.479   0.038  53.340  1.00  0.00     0.073 A 
HETATM    3  C5  UNL     1      25.306   1.074  52.731  1.00  0.00     0.086 A 
HETATM    4  N1  UNL     1      26.517   1.335  53.094  1.00  0.00    -0.173 NA
HETATM    5  C6  UNL     1      27.053   0.560  54.144  1.00  0.00     0.206 C 
HETATM    6  N2  UNL     1      27.478  -0.090  55.011  1.00  0.00    -0.170 NA
HETATM    7  C7  UNL     1      24.743   1.872  51.645  1.00  0.00     0.045 A 
HETATM    8  C8  UNL     1      25.350   2.829  51.001  1.00  0.00     0.105 C 
HETATM    9  C15 UNL     1      23.371   1.538  51.273  1.00  0.00     0.118 A 
HETATM   10  C16 UNL     1      22.668   0.584  51.863  1.00  0.00     0.136 A 
HETATM   11  O2  UNL     1      21.374   0.309  51.472  1.00  0.00    -0.344 OA
HETATM   12  C17 UNL     1      20.476   1.296  50.989  1.00  0.00     0.202 C 
HETATM   13  C18 UNL     1      21.261   2.415  50.363  1.00  0.00     0.202 C 
HETATM   14  O3  UNL     1      22.650   2.158  50.282  1.00  0.00    -0.345 OA
ENDROOT
BRANCH   1  15
HETATM   15  O1  UNL     1      22.558  -1.235  53.623  1.00  0.00    -0.348 OA
BRANCH  15  16
HETATM   16  C2  UNL     1      21.965  -1.055  54.892  1.00  0.00     0.171 C 
HETATM   17  C1  UNL     1      20.967   0.102  54.826  1.00  0.00     0.034 C 
ENDBRANCH  15  16
ENDBRANCH   1  15
BRANCH   8  18
HETATM   18  N3  UNL     1      24.893   3.656  49.939  1.00  0.00    -0.365 N 
HETATM   19  H8  UNL     1      23.915   3.631  49.576  1.00  0.00     0.165 HD
BRANCH  18  20
HETATM   20  C9  UNL     1      25.799   4.554  49.348  1.00  0.00     0.033 A 
HETATM   21  C10 UNL     1      27.127   4.218  49.124  1.00  0.00     0.032 A 
HETATM   22  C11 UNL     1      28.002   5.132  48.535  1.00  0.00     0.046 A 
HETATM   23  C12 UNL     1      27.587   6.404  48.151  1.00  0.00     0.138 A 
HETATM   24  F1  UNL     1      28.454   7.255  47.589  1.00  0.00    -0.204 F 
HETATM   25  C13 UNL     1      26.263   6.736  48.376  1.00  0.00     0.074 A 
HETATM   26 CL1  UNL     1      25.676   8.339  47.910  1.00  0.00    -0.081 Cl
HETATM   27  C14 UNL     1      25.423   5.829  48.953  1.00  0.00     0.056 A 
ENDBRANCH  18  20
ENDBRANCH   8  18
TORSDOF 4
ENDMDL
MODEL 7
REMARK VINA RESULT:      -8.1      3.907      5.868
REMARK  4 active torsions:
REMARK  status: ('A' for Active; 'I' for Inactive)
REMARK    1  A    between atoms: C2_2  and  O1_3 
REMARK    2  A    between atoms: O1_3  and  C3_4 
REMARK    3  A    between atoms: C8_11  and  N3_12 
REMARK    4  A    between atoms: N3_12  and  C9_13 
ROOT
HETATM    1  C3  UNL     1      23.546   0.781  52.984  1.00  0.00     0.107 A 
HETATM    2  C4  UNL     1      24.855   0.583  52.988  1.00  0.00     0.073 A 
HETATM    3  C5  UNL     1      25.782   1.315  52.132  1.00  0.00     0.086 A 
HETATM    4  N1  UNL     1      27.059   1.129  52.129  1.00  0.00    -0.173 NA
HETATM    5  C6  UNL     1      27.568   0.156  53.014  1.00  0.00     0.206 C 
HETATM    6  N2  UNL     1      27.968  -0.652  53.751  1.00  0.00    -0.170 NA
HETATM    7  C7  UNL     1      25.246   2.321  51.219  1.00  0.00     0.045 A 
HETATM    8  C8  UNL     1      25.940   3.056  50.394  1.00  0.00     0.105 C 
HETATM    9  C15 UNL     1      23.798   2.494  51.261  1.00  0.00     0.118 A 
HETATM   10  C16 UNL     1      23.005   1.798  52.061  1.00  0.00     0.136 A 
HETATM   11  O2  UNL     1      21.640   2.001  52.061  1.00  0.00    -0.344 OA
HETATM   12  C17 UNL     1      21.036   3.261  51.813  1.00  0.00     0.202 C 
HETATM   13  C18 UNL     1      21.948   4.086  50.950  1.00  0.00     0.202 C 
HETATM   14  O3  UNL     1      23.086   3.380  50.490  1.00  0.00    -0.345 OA
ENDROOT
BRANCH   1  15
HETATM   15  O1  UNL     1      22.774   0.018  53.849  1.00  0.00    -0.348 OA
BRANCH  15  16
HETATM   16  C2  UNL     1      22.233  -1.236  53.488  1.00  0.00     0.171 C 
HETATM   17  C1  UNL     1      21.048  -1.558  54.399  1.00  0.00     0.034 C 
ENDBRANCH  15  16
ENDBRANCH   1  15
BRANCH   8  18
HETATM   18  N3  UNL     1      25.516   4.052  49.473  1.00  0.00    -0.365 N 
HETATM   19  H8  UNL     1      24.550   4.096  49.083  1.00  0.00     0.165 HD
BRANCH  18  20
HETATM   20  C9  UNL     1      26.442   5.029  49.067  1.00  0.00     0.033 A 
HETATM   21  C10 UNL     1      26.117   6.377  49.019  1.00  0.00     0.032 A 
HETATM   22  C11 UNL     1      27.059   7.323  48.612  1.00  0.00     0.046 A 
HETATM   23  C12 UNL     1      28.350   6.959  48.239  1.00  0.00     0.138 A 
HETATM   24  F1  UNL     1      29.229   7.893  47.854  1.00  0.00    -0.204 F 
HETATM   25  C13 UNL     1      28.672   5.615  48.287  1.00  0.00     0.074 A 
HETATM   26 CL1  UNL     1      30.298   5.091  47.826  1.00  0.00    -0.081 Cl
HETATM   27  C14 UNL     1      27.737   4.706  48.689  1.00  0.00     0.056 A 
ENDBRANCH  18  20
ENDBRANCH   8  18
TORSDOF 4
ENDMDL
MODEL 8
REMARK VINA RESULT:      -7.8      4.303      8.091
REMARK  4 active torsions:
REMARK  status: ('A' for Active; 'I' for Inactive)
REMARK    1  A    between atoms: C2_2  and  O1_3 
REMARK    2  A    between atoms: O1_3  and  C3_4 
REMARK    3  A    between atoms: C8_11  and  N3_12 
REMARK    4  A    between atoms: N3_12  and  C9_13 
ROOT
HETATM    1  C3  UNL     1      26.463   0.334  52.611  1.00  0.00     0.107 A 
HETATM    2  C4  UNL     1      26.216   1.316  51.758  1.00  0.00     0.073 A 
HETATM    3  C5  UNL     1      24.888   1.877  51.539  1.00  0.00     0.086 A 
HETATM    4  N1  UNL     1      24.638   2.834  50.709  1.00  0.00    -0.173 NA
HETATM    5  C6  UNL     1      25.729   3.355  49.982  1.00  0.00     0.206 C 
HETATM    6  N2  UNL     1      26.642   3.770  49.392  1.00  0.00    -0.170 NA
HETATM    7  C7  UNL     1      23.764   1.333  52.296  1.00  0.00     0.045 A 
HETATM    8  C8  UNL     1      22.522   1.723  52.214  1.00  0.00     0.105 C 
HETATM    9  C15 UNL     1      24.099   0.253  53.219  1.00  0.00     0.118 A 
HETATM   10  C16 UNL     1      25.327  -0.216  53.376  1.00  0.00     0.136 A 
HETATM   11  O2  UNL     1      25.589  -1.239  54.264  1.00  0.00    -0.344 OA
HETATM   12  C17 UNL     1      24.879  -1.422  55.479  1.00  0.00     0.202 C 
HETATM   13  C18 UNL     1      23.498  -0.845  55.337  1.00  0.00     0.202 C 
HETATM   14  O3  UNL     1      23.201  -0.401  54.027  1.00  0.00    -0.345 OA
ENDROOT
BRANCH   1  15
HETATM   15  O1  UNL     1      27.773  -0.109  52.726  1.00  0.00    -0.348 OA
BRANCH  15  16
HETATM   16  C2  UNL     1      28.612   0.255  53.803  1.00  0.00     0.171 C 
HETATM   17  C1  UNL     1      29.810  -0.693  53.855  1.00  0.00     0.034 C 
ENDBRANCH  15  16
ENDBRANCH   1  15
BRANCH   8  18
HETATM   18  N3  UNL     1      21.367   1.260  52.901  1.00  0.00    -0.365 N 
HETATM   19  H8  UNL     1      21.301   1.214  53.941  1.00  0.00     0.165 HD
BRANCH  18  20
HETATM   20  C9  UNL     1      20.256   0.846  52.145  1.00  0.00     0.033 A 
HETATM   21  C10 UNL     1      20.041   1.291  50.848  1.00  0.00     0.032 A 
HETATM   22  C11 UNL     1      18.929   0.861  50.123  1.00  0.00     0.046 A 
HETATM   23  C12 UNL     1      17.998  -0.021  50.663  1.00  0.00     0.138 A 
HETATM   24  F1  UNL     1      16.942  -0.413  49.938  1.00  0.00    -0.204 F 
HETATM   25  C13 UNL     1      18.214  -0.463  51.956  1.00  0.00     0.074 A 
HETATM   26 CL1  UNL     1      17.064  -1.586  52.696  1.00  0.00    -0.081 Cl
HETATM   27  C14 UNL     1      19.308  -0.031  52.648  1.00  0.00     0.056 A 
ENDBRANCH  18  20
ENDBRANCH   8  18
TORSDOF 4
ENDMDL
MODEL 9
REMARK VINA RESULT:      -7.8      4.379      6.288
REMARK  4 active torsions:
REMARK  status: ('A' for Active; 'I' for Inactive)
REMARK    1  A    between atoms: C2_2  and  O1_3 
REMARK    2  A    between atoms: O1_3  and  C3_4 
REMARK    3  A    between atoms: C8_11  and  N3_12 
REMARK    4  A    between atoms: N3_12  and  C9_13 
ROOT
HETATM    1  C3  UNL     1      23.379   1.107  52.623  1.00  0.00     0.107 A 
HETATM    2  C4  UNL     1      22.696   1.445  51.541  1.00  0.00     0.073 A 
HETATM    3  C5  UNL     1      23.268   2.200  50.431  1.00  0.00     0.086 A 
HETATM    4  N1  UNL     1      22.609   2.534  49.373  1.00  0.00    -0.173 NA
HETATM    5  C6  UNL     1      21.258   2.134  49.304  1.00  0.00     0.206 C 
HETATM    6  N2  UNL     1      20.145   1.795  49.267  1.00  0.00    -0.170 NA
HETATM    7  C7  UNL     1      24.667   2.610  50.511  1.00  0.00     0.045 A 
HETATM    8  C8  UNL     1      25.321   3.287  49.607  1.00  0.00     0.105 C 
HETATM    9  C15 UNL     1      25.366   2.209  51.727  1.00  0.00     0.118 A 
HETATM   10  C16 UNL     1      24.794   1.521  52.703  1.00  0.00     0.136 A 
HETATM   11  O2  UNL     1      25.502   1.167  53.833  1.00  0.00    -0.344 OA
HETATM   12  C17 UNL     1      26.889   0.867  53.825  1.00  0.00     0.202 C 
HETATM   13  C18 UNL     1      27.547   1.597  52.688  1.00  0.00     0.202 C 
HETATM   14  O3  UNL     1      26.681   2.488  52.009  1.00  0.00    -0.345 OA
ENDROOT
BRANCH   1  15
HETATM   15  O1  UNL     1      22.718   0.386  53.607  1.00  0.00    -0.348 OA
BRANCH  15  16
HETATM   16  C2  UNL     1      22.435  -0.993  53.484  1.00  0.00     0.171 C 
HETATM   17  C1  UNL     1      21.488  -1.417  54.608  1.00  0.00     0.034 C 
ENDBRANCH  15  16
ENDBRANCH   1  15
BRANCH   8  18
HETATM   18  N3  UNL     1      26.671   3.732  49.591  1.00  0.00    -0.365 N 
HETATM   19  H8  UNL     1      27.454   3.196  50.025  1.00  0.00     0.165 HD
BRANCH  18  20
HETATM   20  C9  UNL     1      26.969   4.952  48.960  1.00  0.00     0.033 A 
HETATM   21  C10 UNL     1      26.005   5.927  48.750  1.00  0.00     0.032 A 
HETATM   22  C11 UNL     1      26.332   7.129  48.120  1.00  0.00     0.046 A 
HETATM   23  C12 UNL     1      27.625   7.398  47.680  1.00  0.00     0.138 A 
HETATM   24  F1  UNL     1      27.904   8.561  47.079  1.00  0.00    -0.204 F 
HETATM   25  C13 UNL     1      28.584   6.424  47.889  1.00  0.00     0.074 A 
HETATM   26 CL1  UNL     1      30.246   6.708  47.351  1.00  0.00    -0.081 Cl
HETATM   27  C14 UNL     1      28.244   5.256  48.507  1.00  0.00     0.056 A 
ENDBRANCH  18  20
ENDBRANCH   8  18
TORSDOF 4
ENDMDL
