MODEL 1
REMARK VINA RESULT:      -8.8      0.000      0.000
REMARK  5 active torsions:
REMARK  status: ('A' for Active; 'I' for Inactive)
REMARK    1  A    between atoms: C3_5  and  C4_6 
REMARK    2  A    between atoms: C13_18  and  N3_19 
REMARK    3  A    between atoms: N3_19  and  C14_20 
REMARK    4  A    between atoms: C14_20  and  C15_21 
REMARK    5  A    between atoms: C15_21  and  C16_22 
ROOT
HETATM    1  C1  UNL     1      23.228   1.383  51.223  1.00  0.00     0.161 C 
HETATM    2  N1  UNL     1      23.885   0.651  52.318  1.00  0.00    -0.301 N 
HETATM    3  C2  UNL     1      25.246   0.633  52.387  1.00  0.00     0.260 A 
HETATM    4  O1  UNL     1      25.956   1.239  51.521  1.00  0.00    -0.267 OA
HETATM    5  C3  UNL     1      25.838  -0.064  53.425  1.00  0.00     0.047 A 
HETATM    6  C10 UNL     1      25.075  -0.715  54.358  1.00  0.00     0.034 A 
HETATM    7  C11 UNL     1      23.716  -0.682  54.266  1.00  0.00     0.030 A 
HETATM    8  C12 UNL     1      22.862  -1.305  55.153  1.00  0.00     0.151 A 
HETATM    9  N2  UNL     1      21.526  -1.236  55.009  1.00  0.00    -0.074 NA
HETATM   10  C13 UNL     1      20.959  -0.550  53.984  1.00  0.00     0.724 A 
HETATM   11  N4  UNL     1      21.778   0.064  53.112  1.00  0.00    -0.044 NA
HETATM   12  C19 UNL     1      23.118   0.008  53.234  1.00  0.00     0.163 A 
ENDROOT
BRANCH   5  13
HETATM   13  C4  UNL     1      27.298  -0.057  53.464  1.00  0.00     0.023 A 
HETATM   14  C5  UNL     1      28.036   1.039  53.873  1.00  0.00     0.046 A 
HETATM   15 CL1  UNL     1      27.193   2.488  54.370  1.00  0.00    -0.083 Cl
HETATM   16  C6  UNL     1      29.414   0.916  53.862  1.00  0.00     0.025 A 
HETATM   17  C7  UNL     1      30.068  -0.236  53.468  1.00  0.00     0.003 A 
HETATM   18  C8  UNL     1      29.327  -1.331  53.058  1.00  0.00     0.025 A 
HETATM   19  C9  UNL     1      27.945  -1.222  53.063  1.00  0.00     0.046 A 
HETATM   20 CL2  UNL     1      27.040  -2.628  52.540  1.00  0.00    -0.083 Cl
ENDBRANCH   5  13
BRANCH  10  21
HETATM   21  N3  UNL     1      19.554  -0.487  53.848  1.00  0.00    -0.222 N 
HETATM   22  H9  UNL     1      19.068   0.425  53.991  1.00  0.00     0.177 HD
BRANCH  21  23
HETATM   23  C14 UNL     1      18.786  -1.669  53.513  1.00  0.00     0.142 C 
BRANCH  23  24
HETATM   24  C15 UNL     1      17.375  -1.370  53.098  1.00  0.00     0.057 C 
BRANCH  24  25
HETATM   25  C16 UNL     1      17.417  -0.365  51.977  1.00  0.00    -0.042 A 
HETATM   26  C17 UNL     1      17.033   0.808  51.389  1.00  0.00     0.020 A 
HETATM   27  C18 UNL     1      17.972   0.031  50.644  1.00  0.00     0.222 A 
HETATM   28  F1  UNL     1      19.340   0.254  50.682  1.00  0.00    -0.240 F 
ENDBRANCH  24  25
ENDBRANCH  23  24
ENDBRANCH  21  23
ENDBRANCH  10  21
TORSDOF 5
ENDMDL
MODEL 2
REMARK VINA RESULT:      -8.8      1.490      3.122
REMARK  5 active torsions:
REMARK  status: ('A' for Active; 'I' for Inactive)
REMARK    1  A    between atoms: C3_5  and  C4_6 
REMARK    2  A    between atoms: C13_18  and  N3_19 
REMARK    3  A    between atoms: N3_19  and  C14_20 
REMARK    4  A    between atoms: C14_20  and  C15_21 
REMARK    5  A    between atoms: C15_21  and  C16_22 
ROOT
HETATM    1  C1  UNL     1      22.622  -0.979  54.862  1.00  0.00     0.161 C 
HETATM    2  N1  UNL     1      23.521  -0.345  53.885  1.00  0.00    -0.301 N 
HETATM    3  C2  UNL     1      24.868  -0.500  54.018  1.00  0.00     0.260 A 
HETATM    4  O1  UNL     1      25.360  -1.183  54.973  1.00  0.00    -0.267 OA
HETATM    5  C3  UNL     1      25.691   0.108  53.086  1.00  0.00     0.047 A 
HETATM    6  C10 UNL     1      25.164   0.843  52.058  1.00  0.00     0.034 A 
HETATM    7  C11 UNL     1      23.813   0.983  51.948  1.00  0.00     0.030 A 
HETATM    8  C12 UNL     1      23.185   1.702  50.951  1.00  0.00     0.151 A 
HETATM    9  N2  UNL     1      21.844   1.803  50.894  1.00  0.00    -0.074 NA
HETATM   10  C13 UNL     1      21.050   1.202  51.816  1.00  0.00     0.724 A 
HETATM   11  N4  UNL     1      21.647   0.497  52.793  1.00  0.00    -0.044 NA
HETATM   12  C19 UNL     1      22.986   0.382  52.872  1.00  0.00     0.163 A 
ENDROOT
BRANCH   5  13
HETATM   13  C4  UNL     1      27.128  -0.083  53.265  1.00  0.00     0.023 A 
HETATM   14  C5  UNL     1      27.781  -1.253  52.922  1.00  0.00     0.046 A 
HETATM   15 CL1  UNL     1      26.853  -2.570  52.242  1.00  0.00    -0.083 Cl
HETATM   16  C6  UNL     1      29.146  -1.307  53.142  1.00  0.00     0.025 A 
HETATM   17  C7  UNL     1      29.867  -0.258  53.680  1.00  0.00     0.003 A 
HETATM   18  C8  UNL     1      29.212   0.912  54.023  1.00  0.00     0.025 A 
HETATM   19  C9  UNL     1      27.844   0.980  53.808  1.00  0.00     0.046 A 
HETATM   20 CL2  UNL     1      27.048   2.476  54.253  1.00  0.00    -0.083 Cl
ENDBRANCH   5  13
BRANCH  10  21
HETATM   21  N3  UNL     1      19.644   1.318  51.742  1.00  0.00    -0.222 N 
HETATM   22  H9  UNL     1      19.155   2.005  52.357  1.00  0.00     0.177 HD
BRANCH  21  23
HETATM   23  C14 UNL     1      18.877   0.498  50.826  1.00  0.00     0.142 C 
BRANCH  23  24
HETATM   24  C15 UNL     1      17.457   0.281  51.259  1.00  0.00     0.057 C 
BRANCH  24  25
HETATM   25  C16 UNL     1      17.441  -0.819  52.288  1.00  0.00    -0.042 A 
HETATM   26  C17 UNL     1      16.988  -2.014  52.774  1.00  0.00     0.020 A 
HETATM   27  C18 UNL     1      17.974  -1.362  53.577  1.00  0.00     0.222 A 
HETATM   28  F1  UNL     1      19.326  -1.662  53.510  1.00  0.00    -0.240 F 
ENDBRANCH  24  25
ENDBRANCH  23  24
ENDBRANCH  21  23
ENDBRANCH  10  21
TORSDOF 5
ENDMDL
MODEL 3
REMARK VINA RESULT:      -8.6      1.434      1.866
REMARK  5 active torsions:
REMARK  status: ('A' for Active; 'I' for Inactive)
REMARK    1  A    between atoms: C3_5  and  C4_6 
REMARK    2  A    between atoms: C13_18  and  N3_19 
REMARK    3  A    between atoms: N3_19  and  C14_20 
REMARK    4  A    between atoms: C14_20  and  C15_21 
REMARK    5  A    between atoms: C15_21  and  C16_22 
ROOT
HETATM    1  C1  UNL     1      24.251   2.640  50.475  1.00  0.00     0.161 C 
HETATM    2  N1  UNL     1      24.504   1.722  51.597  1.00  0.00    -0.301 N 
HETATM    3  C2  UNL     1      25.776   1.301  51.842  1.00  0.00     0.260 A 
HETATM    4  O1  UNL     1      26.748   1.689  51.117  1.00  0.00    -0.267 OA
HETATM    5  C3  UNL     1      25.986   0.438  52.903  1.00  0.00     0.047 A 
HETATM    6  C10 UNL     1      24.942   0.021  53.685  1.00  0.00     0.034 A 
HETATM    7  C11 UNL     1      23.679   0.457  53.419  1.00  0.00     0.030 A 
HETATM    8  C12 UNL     1      22.562   0.095  54.145  1.00  0.00     0.151 A 
HETATM    9  N2  UNL     1      21.338   0.559  53.833  1.00  0.00    -0.074 NA
HETATM   10  C13 UNL     1      21.148   1.405  52.788  1.00  0.00     0.724 A 
HETATM   11  N4  UNL     1      22.226   1.767  52.071  1.00  0.00    -0.044 NA
HETATM   12  C19 UNL     1      23.460   1.316  52.363  1.00  0.00     0.163 A 
ENDROOT
BRANCH   5  13
HETATM   13  C4  UNL     1      27.364   0.012  53.133  1.00  0.00     0.023 A 
HETATM   14  C5  UNL     1      28.334   0.846  53.656  1.00  0.00     0.046 A 
HETATM   15 CL1  UNL     1      27.901   2.490  54.067  1.00  0.00    -0.083 Cl
HETATM   16  C6  UNL     1      29.602   0.320  53.824  1.00  0.00     0.025 A 
HETATM   17  C7  UNL     1      29.931  -0.982  53.495  1.00  0.00     0.003 A 
HETATM   18  C8  UNL     1      28.958  -1.816  52.970  1.00  0.00     0.025 A 
HETATM   19  C9  UNL     1      27.683  -1.301  52.797  1.00  0.00     0.046 A 
HETATM   20 CL2  UNL     1      26.478  -2.385  52.132  1.00  0.00    -0.083 Cl
ENDBRANCH   5  13
BRANCH  10  21
HETATM   21  N3  UNL     1      19.857   1.884  52.474  1.00  0.00    -0.222 N 
HETATM   22  H9  UNL     1      19.383   2.543  53.128  1.00  0.00     0.177 HD
BRANCH  21  23
HETATM   23  C14 UNL     1      19.186   1.470  51.257  1.00  0.00     0.142 C 
BRANCH  23  24
HETATM   24  C15 UNL     1      19.084  -0.019  51.105  1.00  0.00     0.057 C 
BRANCH  24  25
HETATM   25  C16 UNL     1      18.033  -0.519  52.061  1.00  0.00    -0.042 A 
HETATM   26  C17 UNL     1      16.734  -0.653  52.470  1.00  0.00     0.020 A 
HETATM   27  C18 UNL     1      17.706  -1.276  53.311  1.00  0.00     0.222 A 
HETATM   28  F1  UNL     1      18.037  -2.620  53.222  1.00  0.00    -0.240 F 
ENDBRANCH  24  25
ENDBRANCH  23  24
ENDBRANCH  21  23
ENDBRANCH  10  21
TORSDOF 5
ENDMDL
MODEL 4
REMARK VINA RESULT:      -8.6      1.739      2.955
REMARK  5 active torsions:
REMARK  status: ('A' for Active; 'I' for Inactive)
REMARK    1  A    between atoms: C3_5  and  C4_6 
REMARK    2  A    between atoms: C13_18  and  N3_19 
REMARK    3  A    between atoms: N3_19  and  C14_20 
REMARK    4  A    between atoms: C14_20  and  C15_21 
REMARK    5  A    between atoms: C15_21  and  C16_22 
ROOT
HETATM    1  C1  UNL     1      22.771  -0.269  54.253  1.00  0.00     0.161 C 
HETATM    2  N1  UNL     1      23.850   0.245  53.395  1.00  0.00    -0.301 N 
HETATM    3  C2  UNL     1      25.138  -0.116  53.654  1.00  0.00     0.260 A 
HETATM    4  O1  UNL     1      25.423  -0.890  54.624  1.00  0.00    -0.267 OA
HETATM    5  C3  UNL     1      26.134   0.382  52.832  1.00  0.00     0.047 A 
HETATM    6  C10 UNL     1      25.830   1.214  51.787  1.00  0.00     0.034 A 
HETATM    7  C11 UNL     1      24.533   1.559  51.550  1.00  0.00     0.030 A 
HETATM    8  C12 UNL     1      24.125   2.390  50.526  1.00  0.00     0.151 A 
HETATM    9  N2  UNL     1      22.828   2.695  50.342  1.00  0.00    -0.074 NA
HETATM   10  C13 UNL     1      21.862   2.200  51.157  1.00  0.00     0.724 A 
HETATM   11  N4  UNL     1      22.244   1.389  52.160  1.00  0.00    -0.044 NA
HETATM   12  C19 UNL     1      23.535   1.069  52.364  1.00  0.00     0.163 A 
ENDROOT
BRANCH   5  13
HETATM   13  C4  UNL     1      27.500  -0.030  53.142  1.00  0.00     0.023 A 
HETATM   14  C5  UNL     1      28.434   0.821  53.705  1.00  0.00     0.046 A 
HETATM   15 CL1  UNL     1      27.967   2.467  54.068  1.00  0.00    -0.083 Cl
HETATM   16  C6  UNL     1      29.695   0.307  53.949  1.00  0.00     0.025 A 
HETATM   17  C7  UNL     1      30.051  -0.996  53.658  1.00  0.00     0.003 A 
HETATM   18  C8  UNL     1      29.115  -1.846  53.094  1.00  0.00     0.025 A 
HETATM   19  C9  UNL     1      27.847  -1.344  52.843  1.00  0.00     0.046 A 
HETATM   20 CL2  UNL     1      26.688  -2.448  52.130  1.00  0.00    -0.083 Cl
ENDBRANCH   5  13
BRANCH  10  21
HETATM   21  N3  UNL     1      20.504   2.530  50.951  1.00  0.00    -0.222 N 
HETATM   22  H9  UNL     1      20.252   3.210  50.202  1.00  0.00     0.177 HD
BRANCH  21  23
HETATM   23  C14 UNL     1      19.462   1.936  51.766  1.00  0.00     0.142 C 
BRANCH  23  24
HETATM   24  C15 UNL     1      18.877   0.688  51.174  1.00  0.00     0.057 C 
BRANCH  24  25
HETATM   25  C16 UNL     1      18.694  -0.317  52.281  1.00  0.00    -0.042 A 
HETATM   26  C17 UNL     1      19.112  -0.958  53.415  1.00  0.00     0.020 A 
HETATM   27  C18 UNL     1      17.839  -1.370  52.914  1.00  0.00     0.222 A 
HETATM   28  F1  UNL     1      16.637  -0.866  53.389  1.00  0.00    -0.240 F 
ENDBRANCH  24  25
ENDBRANCH  23  24
ENDBRANCH  21  23
ENDBRANCH  10  21
TORSDOF 5
ENDMDL
MODEL 5
REMARK VINA RESULT:      -8.3      4.290      8.248
REMARK  5 active torsions:
REMARK  status: ('A' for Active; 'I' for Inactive)
REMARK    1  A    between atoms: C3_5  and  C4_6 
REMARK    2  A    between atoms: C13_18  and  N3_19 
REMARK    3  A    between atoms: N3_19  and  C14_20 
REMARK    4  A    between atoms: C14_20  and  C15_21 
REMARK    5  A    between atoms: C15_21  and  C16_22 
ROOT
HETATM    1  C1  UNL     1      26.572   3.225  49.427  1.00  0.00     0.161 C 
HETATM    2  N1  UNL     1      25.530   3.047  50.451  1.00  0.00    -0.301 N 
HETATM    3  C2  UNL     1      24.226   3.265  50.121  1.00  0.00     0.260 A 
HETATM    4  O1  UNL     1      23.895   3.618  48.943  1.00  0.00    -0.267 OA
HETATM    5  C3  UNL     1      23.266   3.092  51.102  1.00  0.00     0.047 A 
HETATM    6  C10 UNL     1      23.620   2.711  52.369  1.00  0.00     0.034 A 
HETATM    7  C11 UNL     1      24.931   2.500  52.673  1.00  0.00     0.030 A 
HETATM    8  C12 UNL     1      25.389   2.116  53.917  1.00  0.00     0.151 A 
HETATM    9  N2  UNL     1      26.699   1.922  54.157  1.00  0.00    -0.074 NA
HETATM   10  C13 UNL     1      27.629   2.097  53.184  1.00  0.00     0.724 A 
HETATM   11  N4  UNL     1      27.199   2.471  51.966  1.00  0.00    -0.044 NA
HETATM   12  C19 UNL     1      25.894   2.671  51.702  1.00  0.00     0.163 A 
ENDROOT
BRANCH   5  13
HETATM   13  C4  UNL     1      21.881   3.334  50.708  1.00  0.00     0.023 A 
HETATM   14  C5  UNL     1      21.041   2.334  50.252  1.00  0.00     0.046 A 
HETATM   15 CL1  UNL     1      21.657   0.701  50.140  1.00  0.00    -0.083 Cl
HETATM   16  C6  UNL     1      19.751   2.695  49.909  1.00  0.00     0.025 A 
HETATM   17  C7  UNL     1      19.277   3.990  50.004  1.00  0.00     0.003 A 
HETATM   18  C8  UNL     1      20.119   4.990  50.460  1.00  0.00     0.025 A 
HETATM   19  C9  UNL     1      21.416   4.642  50.806  1.00  0.00     0.046 A 
HETATM   20 CL2  UNL     1      22.453   5.932  51.381  1.00  0.00    -0.083 Cl
ENDBRANCH   5  13
BRANCH  10  21
HETATM   21  N3  UNL     1      29.000   1.890  53.451  1.00  0.00    -0.222 N 
HETATM   22  H9  UNL     1      29.705   2.538  53.039  1.00  0.00     0.177 HD
BRANCH  21  23
HETATM   23  C14 UNL     1      29.436   0.790  54.289  1.00  0.00     0.142 C 
BRANCH  23  24
HETATM   24  C15 UNL     1      30.083  -0.327  53.524  1.00  0.00     0.057 C 
BRANCH  24  25
HETATM   25  C16 UNL     1      29.029  -1.358  53.214  1.00  0.00    -0.042 A 
HETATM   26  C17 UNL     1      28.589  -2.650  53.127  1.00  0.00     0.020 A 
HETATM   27  C18 UNL     1      27.636  -1.653  52.753  1.00  0.00     0.222 A 
HETATM   28  F1  UNL     1      26.673  -1.161  53.621  1.00  0.00    -0.240 F 
ENDBRANCH  24  25
ENDBRANCH  23  24
ENDBRANCH  21  23
ENDBRANCH  10  21
TORSDOF 5
ENDMDL
MODEL 6
REMARK VINA RESULT:      -8.2      2.575      3.823
REMARK  5 active torsions:
REMARK  status: ('A' for Active; 'I' for Inactive)
REMARK    1  A    between atoms: C3_5  and  C4_6 
REMARK    2  A    between atoms: C13_18  and  N3_19 
REMARK    3  A    between atoms: N3_19  and  C14_20 
REMARK    4  A    between atoms: C14_20  and  C15_21 
REMARK    5  A    between atoms: C15_21  and  C16_22 
ROOT
HETATM    1  C1  UNL     1      24.497   2.754  50.344  1.00  0.00     0.161 C 
HETATM    2  N1  UNL     1      24.660   1.804  51.456  1.00  0.00    -0.301 N 
HETATM    3  C2  UNL     1      25.903   1.333  51.755  1.00  0.00     0.260 A 
HETATM    4  O1  UNL     1      26.924   1.700  51.089  1.00  0.00    -0.267 OA
HETATM    5  C3  UNL     1      26.028   0.439  52.805  1.00  0.00     0.047 A 
HETATM    6  C10 UNL     1      24.931   0.043  53.523  1.00  0.00     0.034 A 
HETATM    7  C11 UNL     1      23.699   0.530  53.204  1.00  0.00     0.030 A 
HETATM    8  C12 UNL     1      22.536   0.192  53.864  1.00  0.00     0.151 A 
HETATM    9  N2  UNL     1      21.346   0.707  53.502  1.00  0.00    -0.074 NA
HETATM   10  C13 UNL     1      21.238   1.581  52.469  1.00  0.00     0.724 A 
HETATM   11  N4  UNL     1      22.364   1.920  51.816  1.00  0.00    -0.044 NA
HETATM   12  C19 UNL     1      23.565   1.419  52.159  1.00  0.00     0.163 A 
ENDROOT
BRANCH   5  13
HETATM   13  C4  UNL     1      27.377  -0.041  53.093  1.00  0.00     0.023 A 
HETATM   14  C5  UNL     1      27.798  -1.325  52.800  1.00  0.00     0.046 A 
HETATM   15 CL1  UNL     1      26.672  -2.433  52.050  1.00  0.00    -0.083 Cl
HETATM   16  C6  UNL     1      29.101  -1.656  53.125  1.00  0.00     0.025 A 
HETATM   17  C7  UNL     1      29.981  -0.770  53.717  1.00  0.00     0.003 A 
HETATM   18  C8  UNL     1      29.558   0.515  54.010  1.00  0.00     0.025 A 
HETATM   19  C9  UNL     1      28.254   0.860  53.691  1.00  0.00     0.046 A 
HETATM   20 CL2  UNL     1      27.753   2.494  54.074  1.00  0.00    -0.083 Cl
ENDBRANCH   5  13
BRANCH  10  21
HETATM   21  N3  UNL     1      19.983   2.112  52.102  1.00  0.00    -0.222 N 
HETATM   22  H9  UNL     1      19.173   2.005  52.751  1.00  0.00     0.177 HD
BRANCH  21  23
HETATM   23  C14 UNL     1      19.807   2.801  50.838  1.00  0.00     0.142 C 
BRANCH  23  24
HETATM   24  C15 UNL     1      19.552   4.272  50.988  1.00  0.00     0.057 C 
BRANCH  24  25
HETATM   25  C16 UNL     1      20.823   5.008  50.652  1.00  0.00    -0.042 A 
HETATM   26  C17 UNL     1      21.857   5.314  49.811  1.00  0.00     0.020 A 
HETATM   27  C18 UNL     1      21.877   5.983  51.073  1.00  0.00     0.222 A 
HETATM   28  F1  UNL     1      21.375   7.262  51.261  1.00  0.00    -0.240 F 
ENDBRANCH  24  25
ENDBRANCH  23  24
ENDBRANCH  21  23
ENDBRANCH  10  21
TORSDOF 5
ENDMDL
MODEL 7
REMARK VINA RESULT:      -8.1      4.775      8.407
REMARK  5 active torsions:
REMARK  status: ('A' for Active; 'I' for Inactive)
REMARK    1  A    between atoms: C3_5  and  C4_6 
REMARK    2  A    between atoms: C13_18  and  N3_19 
REMARK    3  A    between atoms: N3_19  and  C14_20 
REMARK    4  A    between atoms: C14_20  and  C15_21 
REMARK    5  A    between atoms: C15_21  and  C16_22 
ROOT
HETATM    1  C1  UNL     1      22.282   3.045  52.636  1.00  0.00     0.161 C 
HETATM    2  N1  UNL     1      23.161   3.237  51.471  1.00  0.00    -0.301 N 
HETATM    3  C2  UNL     1      22.629   3.688  50.301  1.00  0.00     0.260 A 
HETATM    4  O1  UNL     1      21.387   3.946  50.198  1.00  0.00    -0.267 OA
HETATM    5  C3  UNL     1      23.478   3.859  49.221  1.00  0.00     0.047 A 
HETATM    6  C10 UNL     1      24.815   3.584  49.329  1.00  0.00     0.034 A 
HETATM    7  C11 UNL     1      25.321   3.133  50.511  1.00  0.00     0.030 A 
HETATM    8  C12 UNL     1      26.651   2.827  50.721  1.00  0.00     0.151 A 
HETATM    9  N2  UNL     1      27.091   2.385  51.913  1.00  0.00    -0.074 NA
HETATM   10  C13 UNL     1      26.247   2.221  52.964  1.00  0.00     0.724 A 
HETATM   11  N4  UNL     1      24.948   2.516  52.775  1.00  0.00    -0.044 NA
HETATM   12  C19 UNL     1      24.483   2.959  51.592  1.00  0.00     0.163 A 
ENDROOT
BRANCH   5  13
HETATM   13  C4  UNL     1      22.869   4.346  47.986  1.00  0.00     0.023 A 
HETATM   14  C5  UNL     1      22.825   5.685  47.643  1.00  0.00     0.046 A 
HETATM   15 CL1  UNL     1      23.530   6.858  48.732  1.00  0.00    -0.083 Cl
HETATM   16  C6  UNL     1      22.219   6.015  46.445  1.00  0.00     0.025 A 
HETATM   17  C7  UNL     1      21.667   5.076  45.593  1.00  0.00     0.003 A 
HETATM   18  C8  UNL     1      21.712   3.736  45.937  1.00  0.00     0.025 A 
HETATM   19  C9  UNL     1      22.316   3.392  47.136  1.00  0.00     0.046 A 
HETATM   20 CL2  UNL     1      22.355   1.687  47.540  1.00  0.00    -0.083 Cl
ENDBRANCH   5  13
BRANCH  10  21
HETATM   21  N3  UNL     1      26.726   1.757  54.209  1.00  0.00    -0.222 N 
HETATM   22  H9  UNL     1      27.268   2.405  54.821  1.00  0.00     0.177 HD
BRANCH  21  23
HETATM   23  C14 UNL     1      26.472   0.398  54.643  1.00  0.00     0.142 C 
BRANCH  23  24
HETATM   24  C15 UNL     1      26.785  -0.634  53.599  1.00  0.00     0.057 C 
BRANCH  24  25
HETATM   25  C16 UNL     1      28.278  -0.829  53.562  1.00  0.00    -0.042 A 
HETATM   26  C17 UNL     1      29.555  -0.462  53.888  1.00  0.00     0.020 A 
HETATM   27  C18 UNL     1      29.443  -1.645  53.094  1.00  0.00     0.222 A 
HETATM   28  F1  UNL     1      29.449  -2.923  53.632  1.00  0.00    -0.240 F 
ENDBRANCH  24  25
ENDBRANCH  23  24
ENDBRANCH  21  23
ENDBRANCH  10  21
TORSDOF 5
ENDMDL
MODEL 8
REMARK VINA RESULT:      -8.1      7.511     10.791
REMARK  5 active torsions:
REMARK  status: ('A' for Active; 'I' for Inactive)
REMARK    1  A    between atoms: C3_5  and  C4_6 
REMARK    2  A    between atoms: C13_18  and  N3_19 
REMARK    3  A    between atoms: N3_19  and  C14_20 
REMARK    4  A    between atoms: C14_20  and  C15_21 
REMARK    5  A    between atoms: C15_21  and  C16_22 
ROOT
HETATM    1  C1  UNL     1      24.252   7.592  50.631  1.00  0.00     0.161 C 
HETATM    2  N1  UNL     1      24.724   6.242  50.286  1.00  0.00    -0.301 N 
HETATM    3  C2  UNL     1      23.970   5.162  50.637  1.00  0.00     0.260 A 
HETATM    4  O1  UNL     1      22.867   5.303  51.255  1.00  0.00    -0.267 OA
HETATM    5  C3  UNL     1      24.437   3.903  50.302  1.00  0.00     0.047 A 
HETATM    6  C10 UNL     1      25.624   3.750  49.635  1.00  0.00     0.034 A 
HETATM    7  C11 UNL     1      26.359   4.846  49.297  1.00  0.00     0.030 A 
HETATM    8  C12 UNL     1      27.565   4.797  48.627  1.00  0.00     0.151 A 
HETATM    9  N2  UNL     1      28.245   5.916  48.320  1.00  0.00    -0.074 NA
HETATM   10  C13 UNL     1      27.775   7.145  48.656  1.00  0.00     0.724 A 
HETATM   11  N4  UNL     1      26.601   7.209  49.308  1.00  0.00    -0.044 NA
HETATM   12  C19 UNL     1      25.902   6.103  49.627  1.00  0.00     0.163 A 
ENDROOT
BRANCH   5  13
HETATM   13  C4  UNL     1      23.600   2.773  50.694  1.00  0.00     0.023 A 
HETATM   14  C5  UNL     1      23.669   2.181  51.942  1.00  0.00     0.046 A 
HETATM   15 CL1  UNL     1      24.807   2.808  53.112  1.00  0.00    -0.083 Cl
HETATM   16  C6  UNL     1      22.821   1.116  52.188  1.00  0.00     0.025 A 
HETATM   17  C7  UNL     1      21.925   0.631  51.253  1.00  0.00     0.003 A 
HETATM   18  C8  UNL     1      21.858   1.224  50.005  1.00  0.00     0.025 A 
HETATM   19  C9  UNL     1      22.703   2.292  49.744  1.00  0.00     0.046 A 
HETATM   20 CL2  UNL     1      22.590   3.019  48.154  1.00  0.00    -0.083 Cl
ENDBRANCH   5  13
BRANCH  10  21
HETATM   21  N3  UNL     1      28.501   8.310  48.326  1.00  0.00    -0.222 N 
HETATM   22  H9  UNL     1      28.803   8.462  47.339  1.00  0.00     0.177 HD
BRANCH  21  23
HETATM   23  C14 UNL     1      28.831   9.293  49.339  1.00  0.00     0.142 C 
BRANCH  23  24
HETATM   24  C15 UNL     1      30.305   9.528  49.490  1.00  0.00     0.057 C 
BRANCH  24  25
HETATM   25  C16 UNL     1      30.614  10.917  48.999  1.00  0.00    -0.042 A 
HETATM   26  C17 UNL     1      30.626  12.277  49.143  1.00  0.00     0.020 A 
HETATM   27  C18 UNL     1      31.172  11.788  47.916  1.00  0.00     0.222 A 
HETATM   28  F1  UNL     1      32.529  11.588  47.717  1.00  0.00    -0.240 F 
ENDBRANCH  24  25
ENDBRANCH  23  24
ENDBRANCH  21  23
ENDBRANCH  10  21
TORSDOF 5
ENDMDL
MODEL 9
REMARK VINA RESULT:      -8.0      6.304      9.876
REMARK  5 active torsions:
REMARK  status: ('A' for Active; 'I' for Inactive)
REMARK    1  A    between atoms: C3_5  and  C4_6 
REMARK    2  A    between atoms: C13_18  and  N3_19 
REMARK    3  A    between atoms: N3_19  and  C14_20 
REMARK    4  A    between atoms: C14_20  and  C15_21 
REMARK    5  A    between atoms: C15_21  and  C16_22 
ROOT
HETATM    1  C1  UNL     1      23.755   7.084  50.861  1.00  0.00     0.161 C 
HETATM    2  N1  UNL     1      24.309   5.748  50.586  1.00  0.00    -0.301 N 
HETATM    3  C2  UNL     1      23.648   4.645  51.038  1.00  0.00     0.260 A 
HETATM    4  O1  UNL     1      22.560   4.752  51.692  1.00  0.00    -0.267 OA
HETATM    5  C3  UNL     1      24.191   3.402  50.767  1.00  0.00     0.047 A 
HETATM    6  C10 UNL     1      25.360   3.285  50.063  1.00  0.00     0.034 A 
HETATM    7  C11 UNL     1      26.001   4.404  49.623  1.00  0.00     0.030 A 
HETATM    8  C12 UNL     1      27.182   4.393  48.908  1.00  0.00     0.151 A 
HETATM    9  N2  UNL     1      27.769   5.533  48.500  1.00  0.00    -0.074 NA
HETATM   10  C13 UNL     1      27.225   6.746  48.774  1.00  0.00     0.724 A 
HETATM   11  N4  UNL     1      26.074   6.773  49.470  1.00  0.00    -0.044 NA
HETATM   12  C19 UNL     1      25.468   5.647  49.889  1.00  0.00     0.163 A 
ENDROOT
BRANCH   5  13
HETATM   13  C4  UNL     1      23.451   2.246  51.267  1.00  0.00     0.023 A 
HETATM   14  C5  UNL     1      22.473   1.601  50.532  1.00  0.00     0.046 A 
HETATM   15 CL1  UNL     1      22.099   2.188  48.927  1.00  0.00    -0.083 Cl
HETATM   16  C6  UNL     1      21.846   0.518  51.120  1.00  0.00     0.025 A 
HETATM   17  C7  UNL     1      22.153   0.064  52.389  1.00  0.00     0.003 A 
HETATM   18  C8  UNL     1      23.132   0.711  53.124  1.00  0.00     0.025 A 
HETATM   19  C9  UNL     1      23.768   1.799  52.546  1.00  0.00     0.046 A 
HETATM   20 CL2  UNL     1      25.002   2.593  53.504  1.00  0.00    -0.083 Cl
ENDBRANCH   5  13
BRANCH  10  21
HETATM   21  N3  UNL     1      27.853   7.933  48.339  1.00  0.00    -0.222 N 
HETATM   22  H9  UNL     1      27.935   8.122  47.316  1.00  0.00     0.177 HD
BRANCH  21  23
HETATM   23  C14 UNL     1      28.383   8.888  49.293  1.00  0.00     0.142 C 
BRANCH  23  24
HETATM   24  C15 UNL     1      29.763   9.370  48.954  1.00  0.00     0.057 C 
BRANCH  24  25
HETATM   25  C16 UNL     1      30.656   8.169  48.790  1.00  0.00    -0.042 A 
HETATM   26  C17 UNL     1      31.404   7.140  49.292  1.00  0.00     0.020 A 
HETATM   27  C18 UNL     1      31.369   7.231  47.866  1.00  0.00     0.222 A 
HETATM   28  F1  UNL     1      30.497   6.492  47.081  1.00  0.00    -0.240 F 
ENDBRANCH  24  25
ENDBRANCH  23  24
ENDBRANCH  21  23
ENDBRANCH  10  21
TORSDOF 5
ENDMDL
