MODEL 1
REMARK VINA RESULT:      -7.6      0.000      0.000
REMARK  5 active torsions:
REMARK  status: ('A' for Active; 'I' for Inactive)
REMARK    1  A    between atoms: C3_3  and  O1_4 
REMARK    2  A    between atoms: P1_9  and  C8_10 
REMARK    3  A    between atoms: C8_10  and  C9_11 
REMARK       I    between atoms: C9_11  and  N1_13 
REMARK    4  A    between atoms: N1_13  and  S1_14 
REMARK    5  A    between atoms: S1_14  and  C10_17 
ROOT
HETATM    1  C9  UNL     1      26.498   1.171  52.132  1.00  0.00     0.235 C 
HETATM    2  O2  UNL     1      26.431   0.005  51.669  1.00  0.00    -0.272 OA
HETATM    3  N1  UNL     1      26.080   1.209  53.484  1.00  0.00    -0.250 N 
HETATM    4  H11 UNL     1      26.061   2.078  54.066  1.00  0.00     0.181 HD
ENDROOT
BRANCH   1   5
HETATM    5  C8  UNL     1      26.919   2.450  51.530  1.00  0.00     0.147 C 
BRANCH   5   6
HETATM    6  P1  UNL     1      25.664   3.193  50.419  1.00  0.00    -0.049 P 
HETATM    7  C2  UNL     1      26.226   4.769  49.674  1.00  0.00    -0.003 A 
HETATM    8  C1  UNL     1      27.261   4.554  48.935  1.00  0.00     0.027 C 
HETATM    9  C3  UNL     1      25.488   5.981  49.985  1.00  0.00     0.078 A 
HETATM   10  C5  UNL     1      24.462   6.078  50.755  1.00  0.00     0.037 A 
HETATM   11  C6  UNL     1      23.860   4.960  51.451  1.00  0.00     0.004 A 
HETATM   12  C7  UNL     1      24.223   3.691  51.432  1.00  0.00     0.012 A 
BRANCH   9  13
HETATM   13  O1  UNL     1      26.023   7.082  49.337  1.00  0.00    -0.355 OA
HETATM   14  C4  UNL     1      25.808   8.364  49.880  1.00  0.00     0.210 C 
ENDBRANCH   9  13
ENDBRANCH   5   6
ENDBRANCH   1   5
BRANCH   3  15
HETATM   15  S1  UNL     1      25.583  -0.316  54.158  1.00  0.00     0.265 S 
HETATM   16  O3  UNL     1      26.233  -1.450  53.429  1.00  0.00    -0.200 OA
HETATM   17  O4  UNL     1      25.979  -0.344  55.597  1.00  0.00    -0.200 OA
BRANCH  15  18
HETATM   18  C10 UNL     1      23.863  -0.503  53.979  1.00  0.00     0.080 A 
HETATM   19  C11 UNL     1      23.192   0.016  52.882  1.00  0.00     0.027 A 
HETATM   20  C12 UNL     1      21.831  -0.092  52.662  1.00  0.00     0.020 A 
HETATM   21  C13 UNL     1      21.133  -0.788  53.654  1.00  0.00     0.011 A 
HETATM   22 BR1  UNL     1      19.251  -0.978  53.417  1.00  0.00    -0.051 Br
HETATM   23  C14 UNL     1      21.723  -1.338  54.779  1.00  0.00     0.020 A 
HETATM   24  C15 UNL     1      23.091  -1.176  54.908  1.00  0.00     0.027 A 
ENDBRANCH  15  18
ENDBRANCH   3  15
TORSDOF 5
ENDMDL
MODEL 2
REMARK VINA RESULT:      -7.4      4.544      8.387
REMARK  5 active torsions:
REMARK  status: ('A' for Active; 'I' for Inactive)
REMARK    1  A    between atoms: C3_3  and  O1_4 
REMARK    2  A    between atoms: P1_9  and  C8_10 
REMARK    3  A    between atoms: C8_10  and  C9_11 
REMARK       I    between atoms: C9_11  and  N1_13 
REMARK    4  A    between atoms: N1_13  and  S1_14 
REMARK    5  A    between atoms: S1_14  and  C10_17 
ROOT
HETATM    1  C9  UNL     1      24.618   3.133  51.732  1.00  0.00     0.235 C 
HETATM    2  O2  UNL     1      23.422   3.205  51.353  1.00  0.00    -0.272 OA
HETATM    3  N1  UNL     1      25.438   4.032  51.009  1.00  0.00    -0.250 N 
HETATM    4  H11 UNL     1      26.466   4.141  51.165  1.00  0.00     0.181 HD
ENDROOT
BRANCH   1   5
HETATM    5  C8  UNL     1      25.281   2.305  52.757  1.00  0.00     0.147 C 
BRANCH   5   6
HETATM    6  P1  UNL     1      26.958   1.738  52.278  1.00  0.00    -0.049 P 
HETATM    7  C2  UNL     1      27.240  -0.031  52.660  1.00  0.00    -0.003 A 
HETATM    8  C1  UNL     1      26.420  -0.757  51.981  1.00  0.00     0.027 C 
HETATM    9  C3  UNL     1      28.281  -0.372  53.615  1.00  0.00     0.078 A 
HETATM   10  C5  UNL     1      29.041   0.450  54.248  1.00  0.00     0.037 A 
HETATM   11  C6  UNL     1      28.979   1.890  54.103  1.00  0.00     0.004 A 
HETATM   12  C7  UNL     1      28.179   2.602  53.332  1.00  0.00     0.012 A 
BRANCH   9  13
HETATM   13  O1  UNL     1      28.383  -1.743  53.786  1.00  0.00    -0.355 OA
HETATM   14  C4  UNL     1      29.529  -2.406  53.304  1.00  0.00     0.210 C 
ENDBRANCH   9  13
ENDBRANCH   5   6
ENDBRANCH   1   5
BRANCH   3  15
HETATM   15  S1  UNL     1      24.623   4.986  49.804  1.00  0.00     0.265 S 
HETATM   16  O3  UNL     1      23.890   4.104  48.842  1.00  0.00    -0.200 OA
HETATM   17  O4  UNL     1      23.661   5.893  50.495  1.00  0.00    -0.200 OA
BRANCH  15  18
HETATM   18  C10 UNL     1      25.790   5.893  48.887  1.00  0.00     0.080 A 
HETATM   19  C11 UNL     1      27.124   5.515  48.843  1.00  0.00     0.027 A 
HETATM   20  C12 UNL     1      28.112   6.177  48.136  1.00  0.00     0.020 A 
HETATM   21  C13 UNL     1      27.672   7.304  47.434  1.00  0.00     0.011 A 
HETATM   22 BR1  UNL     1      28.981   8.266  46.436  1.00  0.00    -0.051 Br
HETATM   23  C14 UNL     1      26.363   7.751  47.424  1.00  0.00     0.020 A 
HETATM   24  C15 UNL     1      25.448   7.020  48.162  1.00  0.00     0.027 A 
ENDBRANCH  15  18
ENDBRANCH   3  15
TORSDOF 5
ENDMDL
MODEL 3
REMARK VINA RESULT:      -7.3      4.474      7.833
REMARK  5 active torsions:
REMARK  status: ('A' for Active; 'I' for Inactive)
REMARK    1  A    between atoms: C3_3  and  O1_4 
REMARK    2  A    between atoms: P1_9  and  C8_10 
REMARK    3  A    between atoms: C8_10  and  C9_11 
REMARK       I    between atoms: C9_11  and  N1_13 
REMARK    4  A    between atoms: N1_13  and  S1_14 
REMARK    5  A    between atoms: S1_14  and  C10_17 
ROOT
HETATM    1  C9  UNL     1      22.191   1.650  51.096  1.00  0.00     0.235 C 
HETATM    2  O2  UNL     1      22.365   2.856  50.789  1.00  0.00    -0.272 OA
HETATM    3  N1  UNL     1      23.315   1.131  51.781  1.00  0.00    -0.250 N 
HETATM    4  H11 UNL     1      23.383   0.148  52.134  1.00  0.00     0.181 HD
ENDROOT
BRANCH   1   5
HETATM    5  C8  UNL     1      21.063   0.727  50.872  1.00  0.00     0.147 C 
BRANCH   5   6
HETATM    6  P1  UNL     1      19.700   0.917  52.084  1.00  0.00    -0.049 P 
HETATM    7  C2  UNL     1      19.466  -0.573  53.122  1.00  0.00    -0.003 A 
HETATM    8  C1  UNL     1      20.528  -0.784  53.823  1.00  0.00     0.027 C 
HETATM    9  C3  UNL     1      18.202  -1.283  53.034  1.00  0.00     0.078 A 
HETATM   10  C5  UNL     1      17.203  -0.982  52.281  1.00  0.00     0.037 A 
HETATM   11  C6  UNL     1      17.180   0.148  51.376  1.00  0.00     0.004 A 
HETATM   12  C7  UNL     1      18.125   1.045  51.160  1.00  0.00     0.012 A 
BRANCH   9  13
HETATM   13  O1  UNL     1      18.172  -2.374  53.888  1.00  0.00    -0.355 OA
HETATM   14  C4  UNL     1      17.298  -3.441  53.600  1.00  0.00     0.210 C 
ENDBRANCH   9  13
ENDBRANCH   5   6
ENDBRANCH   1   5
BRANCH   3  15
HETATM   15  S1  UNL     1      24.629   2.246  52.020  1.00  0.00     0.265 S 
HETATM   16  O3  UNL     1      24.938   2.974  50.750  1.00  0.00    -0.200 OA
HETATM   17  O4  UNL     1      24.231   3.219  53.078  1.00  0.00    -0.200 OA
BRANCH  15  18
HETATM   18  C10 UNL     1      26.062   1.374  52.479  1.00  0.00     0.080 A 
HETATM   19  C11 UNL     1      26.139  -0.005  52.351  1.00  0.00     0.027 A 
HETATM   20  C12 UNL     1      27.240  -0.772  52.687  1.00  0.00     0.020 A 
HETATM   21  C13 UNL     1      28.325  -0.046  53.189  1.00  0.00     0.011 A 
HETATM   22 BR1  UNL     1      29.879  -1.038  53.673  1.00  0.00    -0.051 Br
HETATM   23  C14 UNL     1      28.333   1.329  53.350  1.00  0.00     0.020 A 
HETATM   24  C15 UNL     1      27.183   2.006  52.983  1.00  0.00     0.027 A 
ENDBRANCH  15  18
ENDBRANCH   3  15
TORSDOF 5
ENDMDL
MODEL 4
REMARK VINA RESULT:      -7.2      4.326      8.450
REMARK  5 active torsions:
REMARK  status: ('A' for Active; 'I' for Inactive)
REMARK    1  A    between atoms: C3_3  and  O1_4 
REMARK    2  A    between atoms: P1_9  and  C8_10 
REMARK    3  A    between atoms: C8_10  and  C9_11 
REMARK       I    between atoms: C9_11  and  N1_13 
REMARK    4  A    between atoms: N1_13  and  S1_14 
REMARK    5  A    between atoms: S1_14  and  C10_17 
ROOT
HETATM    1  C9  UNL     1      24.128   3.693  50.439  1.00  0.00     0.235 C 
HETATM    2  O2  UNL     1      23.331   4.657  50.564  1.00  0.00    -0.272 OA
HETATM    3  N1  UNL     1      25.312   4.091  49.774  1.00  0.00    -0.250 N 
HETATM    4  H11 UNL     1      26.112   3.450  49.568  1.00  0.00     0.181 HD
ENDROOT
BRANCH   1   5
HETATM    5  C8  UNL     1      24.039   2.279  50.850  1.00  0.00     0.147 C 
BRANCH   5   6
HETATM    6  P1  UNL     1      24.582   1.975  52.575  1.00  0.00    -0.049 P 
HETATM    7  C2  UNL     1      26.307   1.369  52.674  1.00  0.00    -0.003 A 
HETATM    8  C1  UNL     1      27.109   2.265  52.209  1.00  0.00     0.027 C 
HETATM    9  C3  UNL     1      26.542   0.045  53.226  1.00  0.00     0.078 A 
HETATM   10  C5  UNL     1      25.650  -0.776  53.656  1.00  0.00     0.037 A 
HETATM   11  C6  UNL     1      24.228  -0.503  53.659  1.00  0.00     0.004 A 
HETATM   12  C7  UNL     1      23.602   0.585  53.249  1.00  0.00     0.012 A 
BRANCH   9  13
HETATM   13  O1  UNL     1      27.892  -0.263  53.250  1.00  0.00    -0.355 OA
HETATM   14  C4  UNL     1      28.598  -0.144  54.464  1.00  0.00     0.210 C 
ENDBRANCH   9  13
ENDBRANCH   5   6
ENDBRANCH   1   5
BRANCH   3  15
HETATM   15  S1  UNL     1      25.378   5.763  49.297  1.00  0.00     0.265 S 
HETATM   16  O3  UNL     1      24.344   6.054  48.255  1.00  0.00    -0.200 OA
HETATM   17  O4  UNL     1      25.131   6.605  50.504  1.00  0.00    -0.200 OA
BRANCH  15  18
HETATM   18  C10 UNL     1      26.930   6.113  48.597  1.00  0.00     0.080 A 
HETATM   19  C11 UNL     1      27.182   7.324  47.971  1.00  0.00     0.027 A 
HETATM   20  C12 UNL     1      28.387   7.683  47.394  1.00  0.00     0.020 A 
HETATM   21  C13 UNL     1      29.388   6.709  47.479  1.00  0.00     0.011 A 
HETATM   22 BR1  UNL     1      31.077   7.135  46.706  1.00  0.00    -0.051 Br
HETATM   23  C14 UNL     1      29.222   5.476  48.085  1.00  0.00     0.020 A 
HETATM   24  C15 UNL     1      27.979   5.213  48.634  1.00  0.00     0.027 A 
ENDBRANCH  15  18
ENDBRANCH   3  15
TORSDOF 5
ENDMDL
MODEL 5
REMARK VINA RESULT:      -7.2      4.800      9.035
REMARK  5 active torsions:
REMARK  status: ('A' for Active; 'I' for Inactive)
REMARK    1  A    between atoms: C3_3  and  O1_4 
REMARK    2  A    between atoms: P1_9  and  C8_10 
REMARK    3  A    between atoms: C8_10  and  C9_11 
REMARK       I    between atoms: C9_11  and  N1_13 
REMARK    4  A    between atoms: N1_13  and  S1_14 
REMARK    5  A    between atoms: S1_14  and  C10_17 
ROOT
HETATM    1  C9  UNL     1      25.822   3.808  50.414  1.00  0.00     0.235 C 
HETATM    2  O2  UNL     1      24.707   4.339  50.643  1.00  0.00    -0.272 OA
HETATM    3  N1  UNL     1      26.637   4.652  49.621  1.00  0.00    -0.250 N 
HETATM    4  H11 UNL     1      27.608   4.410  49.317  1.00  0.00     0.181 HD
ENDROOT
BRANCH   1   5
HETATM    5  C8  UNL     1      26.399   2.511  50.815  1.00  0.00     0.147 C 
BRANCH   5   6
HETATM    6  P1  UNL     1      26.068   2.064  52.563  1.00  0.00    -0.049 P 
HETATM    7  C2  UNL     1      27.563   1.461  53.432  1.00  0.00    -0.003 A 
HETATM    8  C1  UNL     1      28.448   2.398  53.474  1.00  0.00     0.027 C 
HETATM    9  C3  UNL     1      27.567   0.097  53.931  1.00  0.00     0.078 A 
HETATM   10  C5  UNL     1      26.617  -0.763  53.820  1.00  0.00     0.037 A 
HETATM   11  C6  UNL     1      25.355  -0.499  53.162  1.00  0.00     0.004 A 
HETATM   12  C7  UNL     1      24.950   0.615  52.583  1.00  0.00     0.012 A 
BRANCH   9  13
HETATM   13  O1  UNL     1      28.756  -0.204  54.576  1.00  0.00    -0.355 OA
HETATM   14  C4  UNL     1      29.742  -0.933  53.881  1.00  0.00     0.210 C 
ENDBRANCH   9  13
ENDBRANCH   5   6
ENDBRANCH   1   5
BRANCH   3  15
HETATM   15  S1  UNL     1      25.920   6.168  49.161  1.00  0.00     0.265 S 
HETATM   16  O3  UNL     1      24.597   5.945  48.497  1.00  0.00    -0.200 OA
HETATM   17  O4  UNL     1      25.738   6.994  50.390  1.00  0.00    -0.200 OA
BRANCH  15  18
HETATM   18  C10 UNL     1      26.945   6.976  48.011  1.00  0.00     0.080 A 
HETATM   19  C11 UNL     1      26.437   7.918  47.129  1.00  0.00     0.027 A 
HETATM   20  C12 UNL     1      27.182   8.607  46.189  1.00  0.00     0.020 A 
HETATM   21  C13 UNL     1      28.544   8.288  46.176  1.00  0.00     0.011 A 
HETATM   22 BR1  UNL     1      29.634   9.201  44.906  1.00  0.00    -0.051 Br
HETATM   23  C14 UNL     1      29.133   7.362  47.019  1.00  0.00     0.020 A 
HETATM   24  C15 UNL     1      28.302   6.726  47.925  1.00  0.00     0.027 A 
ENDBRANCH  15  18
ENDBRANCH   3  15
TORSDOF 5
ENDMDL
MODEL 6
REMARK VINA RESULT:      -7.2      4.208      8.609
REMARK  5 active torsions:
REMARK  status: ('A' for Active; 'I' for Inactive)
REMARK    1  A    between atoms: C3_3  and  O1_4 
REMARK    2  A    between atoms: P1_9  and  C8_10 
REMARK    3  A    between atoms: C8_10  and  C9_11 
REMARK       I    between atoms: C9_11  and  N1_13 
REMARK    4  A    between atoms: N1_13  and  S1_14 
REMARK    5  A    between atoms: S1_14  and  C10_17 
ROOT
HETATM    1  C9  UNL     1      23.798   4.720  51.539  1.00  0.00     0.235 C 
HETATM    2  O2  UNL     1      22.929   5.514  51.099  1.00  0.00    -0.272 OA
HETATM    3  N1  UNL     1      25.023   4.869  50.845  1.00  0.00    -0.250 N 
HETATM    4  H11 UNL     1      25.883   4.312  51.051  1.00  0.00     0.181 HD
ENDROOT
BRANCH   1   5
HETATM    5  C8  UNL     1      23.758   3.706  52.608  1.00  0.00     0.147 C 
BRANCH   5   6
HETATM    6  P1  UNL     1      24.391   2.063  52.093  1.00  0.00    -0.049 P 
HETATM    7  C2  UNL     1      23.159   0.728  52.328  1.00  0.00    -0.003 A 
HETATM    8  C1  UNL     1      22.129   0.953  51.585  1.00  0.00     0.027 C 
HETATM    9  C3  UNL     1      23.473  -0.344  53.256  1.00  0.00     0.078 A 
HETATM   10  C5  UNL     1      24.544  -0.461  53.960  1.00  0.00     0.037 A 
HETATM   11  C6  UNL     1      25.639   0.486  53.935  1.00  0.00     0.004 A 
HETATM   12  C7  UNL     1      25.751   1.592  53.222  1.00  0.00     0.012 A 
BRANCH   9  13
HETATM   13  O1  UNL     1      22.455  -1.282  53.312  1.00  0.00    -0.355 OA
HETATM   14  C4  UNL     1      21.712  -1.411  54.503  1.00  0.00     0.210 C 
ENDBRANCH   9  13
ENDBRANCH   5   6
ENDBRANCH   1   5
BRANCH   3  15
HETATM   15  S1  UNL     1      25.030   6.069  49.585  1.00  0.00     0.265 S 
HETATM   16  O3  UNL     1      24.126   5.661  48.465  1.00  0.00    -0.200 OA
HETATM   17  O4  UNL     1      24.565   7.362  50.167  1.00  0.00    -0.200 OA
BRANCH  15  18
HETATM   18  C10 UNL     1      26.633   6.220  48.928  1.00  0.00     0.080 A 
HETATM   19  C11 UNL     1      27.148   7.454  48.560  1.00  0.00     0.027 A 
HETATM   20  C12 UNL     1      28.411   7.661  48.035  1.00  0.00     0.020 A 
HETATM   21  C13 UNL     1      29.179   6.501  47.887  1.00  0.00     0.011 A 
HETATM   22 BR1  UNL     1      30.932   6.711  47.169  1.00  0.00    -0.051 Br
HETATM   23  C14 UNL     1      28.743   5.233  48.228  1.00  0.00     0.020 A 
HETATM   24  C15 UNL     1      27.464   5.130  48.746  1.00  0.00     0.027 A 
ENDBRANCH  15  18
ENDBRANCH   3  15
TORSDOF 5
ENDMDL
MODEL 7
REMARK VINA RESULT:      -7.1      4.024      7.801
REMARK  5 active torsions:
REMARK  status: ('A' for Active; 'I' for Inactive)
REMARK    1  A    between atoms: C3_3  and  O1_4 
REMARK    2  A    between atoms: P1_9  and  C8_10 
REMARK    3  A    between atoms: C8_10  and  C9_11 
REMARK       I    between atoms: C9_11  and  N1_13 
REMARK    4  A    between atoms: N1_13  and  S1_14 
REMARK    5  A    between atoms: S1_14  and  C10_17 
ROOT
HETATM    1  C9  UNL     1      22.730   2.598  49.866  1.00  0.00     0.235 C 
HETATM    2  O2  UNL     1      22.714   2.769  48.621  1.00  0.00    -0.272 OA
HETATM    3  N1  UNL     1      23.028   3.804  50.543  1.00  0.00    -0.250 N 
HETATM    4  H11 UNL     1      23.087   3.891  51.584  1.00  0.00     0.181 HD
ENDROOT
BRANCH   1   5
HETATM    5  C8  UNL     1      22.501   1.404  50.701  1.00  0.00     0.147 C 
BRANCH   5   6
HETATM    6  P1  UNL     1      23.133   1.569  52.416  1.00  0.00    -0.049 P 
HETATM    7  C2  UNL     1      24.827   0.903  52.610  1.00  0.00    -0.003 A 
HETATM    8  C1  UNL     1      25.644   1.573  51.872  1.00  0.00     0.027 C 
HETATM    9  C3  UNL     1      25.027  -0.221  53.509  1.00  0.00     0.078 A 
HETATM   10  C5  UNL     1      24.121  -0.824  54.196  1.00  0.00     0.037 A 
HETATM   11  C6  UNL     1      22.718  -0.467  54.182  1.00  0.00     0.004 A 
HETATM   12  C7  UNL     1      22.125   0.498  53.504  1.00  0.00     0.012 A 
BRANCH   9  13
HETATM   13  O1  UNL     1      26.358  -0.599  53.561  1.00  0.00    -0.355 OA
HETATM   14  C4  UNL     1      26.812  -1.616  52.698  1.00  0.00     0.210 C 
ENDBRANCH   9  13
ENDBRANCH   5   6
ENDBRANCH   1   5
BRANCH   3  15
HETATM   15  S1  UNL     1      23.300   5.188  49.526  1.00  0.00     0.265 S 
HETATM   16  O3  UNL     1      22.559   5.044  48.233  1.00  0.00    -0.200 OA
HETATM   17  O4  UNL     1      22.824   6.403  50.250  1.00  0.00    -0.200 OA
BRANCH  15  18
HETATM   18  C10 UNL     1      24.991   5.311  49.141  1.00  0.00     0.080 A 
HETATM   19  C11 UNL     1      25.527   6.474  48.608  1.00  0.00     0.027 A 
HETATM   20  C12 UNL     1      26.858   6.656  48.279  1.00  0.00     0.020 A 
HETATM   21  C13 UNL     1      27.676   5.548  48.525  1.00  0.00     0.011 A 
HETATM   22 BR1  UNL     1      29.525   5.726  48.097  1.00  0.00    -0.051 Br
HETATM   23  C14 UNL     1      27.225   4.351  49.054  1.00  0.00     0.020 A 
HETATM   24  C15 UNL     1      25.875   4.269  49.350  1.00  0.00     0.027 A 
ENDBRANCH  15  18
ENDBRANCH   3  15
TORSDOF 5
ENDMDL
MODEL 8
REMARK VINA RESULT:      -7.1      3.677      4.538
REMARK  5 active torsions:
REMARK  status: ('A' for Active; 'I' for Inactive)
REMARK    1  A    between atoms: C3_3  and  O1_4 
REMARK    2  A    between atoms: P1_9  and  C8_10 
REMARK    3  A    between atoms: C8_10  and  C9_11 
REMARK       I    between atoms: C9_11  and  N1_13 
REMARK    4  A    between atoms: N1_13  and  S1_14 
REMARK    5  A    between atoms: S1_14  and  C10_17 
ROOT
HETATM    1  C9  UNL     1      22.895   3.182  50.658  1.00  0.00     0.235 C 
HETATM    2  O2  UNL     1      22.300   3.579  51.691  1.00  0.00    -0.272 OA
HETATM    3  N1  UNL     1      24.003   2.366  50.988  1.00  0.00    -0.250 N 
HETATM    4  H11 UNL     1      24.635   1.924  50.282  1.00  0.00     0.181 HD
ENDROOT
BRANCH   1   5
HETATM    5  C8  UNL     1      22.643   3.414  49.223  1.00  0.00     0.147 C 
BRANCH   5   6
HETATM    6  P1  UNL     1      23.015   5.124  48.674  1.00  0.00    -0.049 P 
HETATM    7  C2  UNL     1      24.568   5.774  49.395  1.00  0.00    -0.003 A 
HETATM    8  C1  UNL     1      25.564   5.057  48.998  1.00  0.00     0.027 C 
HETATM    9  C3  UNL     1      24.491   6.936  50.263  1.00  0.00     0.078 A 
HETATM   10  C5  UNL     1      23.425   7.572  50.601  1.00  0.00     0.037 A 
HETATM   11  C6  UNL     1      22.093   7.221  50.154  1.00  0.00     0.004 A 
HETATM   12  C7  UNL     1      21.731   6.237  49.353  1.00  0.00     0.012 A 
BRANCH   9  13
HETATM   13  O1  UNL     1      25.744   7.316  50.715  1.00  0.00    -0.355 OA
HETATM   14  C4  UNL     1      26.392   8.403  50.095  1.00  0.00     0.210 C 
ENDBRANCH   9  13
ENDBRANCH   5   6
ENDBRANCH   1   5
BRANCH   3  15
HETATM   15  S1  UNL     1      24.273   2.121  52.689  1.00  0.00     0.265 S 
HETATM   16  O3  UNL     1      24.376   3.435  53.399  1.00  0.00    -0.200 OA
HETATM   17  O4  UNL     1      23.129   1.336  53.238  1.00  0.00    -0.200 OA
BRANCH  15  18
HETATM   18  C10 UNL     1      25.778   1.284  52.929  1.00  0.00     0.080 A 
HETATM   19  C11 UNL     1      26.893   1.937  53.435  1.00  0.00     0.027 A 
HETATM   20  C12 UNL     1      28.123   1.346  53.661  1.00  0.00     0.020 A 
HETATM   21  C13 UNL     1      28.186  -0.013  53.333  1.00  0.00     0.011 A 
HETATM   22 BR1  UNL     1      29.852  -0.895  53.618  1.00  0.00    -0.051 Br
HETATM   23  C14 UNL     1      27.124  -0.739  52.824  1.00  0.00     0.020 A 
HETATM   24  C15 UNL     1      25.935  -0.057  52.635  1.00  0.00     0.027 A 
ENDBRANCH  15  18
ENDBRANCH   3  15
TORSDOF 5
ENDMDL
MODEL 9
REMARK VINA RESULT:      -7.1      3.712      4.980
REMARK  5 active torsions:
REMARK  status: ('A' for Active; 'I' for Inactive)
REMARK    1  A    between atoms: C3_3  and  O1_4 
REMARK    2  A    between atoms: P1_9  and  C8_10 
REMARK    3  A    between atoms: C8_10  and  C9_11 
REMARK       I    between atoms: C9_11  and  N1_13 
REMARK    4  A    between atoms: N1_13  and  S1_14 
REMARK    5  A    between atoms: S1_14  and  C10_17 
ROOT
HETATM    1  C9  UNL     1      24.113   4.733  50.966  1.00  0.00     0.235 C 
HETATM    2  O2  UNL     1      23.008   4.136  50.937  1.00  0.00    -0.272 OA
HETATM    3  N1  UNL     1      25.122   3.912  51.526  1.00  0.00    -0.250 N 
HETATM    4  H11 UNL     1      26.119   4.207  51.641  1.00  0.00     0.181 HD
ENDROOT
BRANCH   1   5
HETATM    5  C8  UNL     1      24.518   6.084  50.535  1.00  0.00     0.147 C 
BRANCH   5   6
HETATM    6  P1  UNL     1      25.025   6.177  48.775  1.00  0.00    -0.049 P 
HETATM    7  C2  UNL     1      26.825   5.930  48.546  1.00  0.00    -0.003 A 
HETATM    8  C1  UNL     1      27.154   4.748  48.941  1.00  0.00     0.027 C 
HETATM    9  C3  UNL     1      27.605   7.021  47.986  1.00  0.00     0.078 A 
HETATM   10  C5  UNL     1      27.164   8.177  47.633  1.00  0.00     0.037 A 
HETATM   11  C6  UNL     1      25.779   8.585  47.739  1.00  0.00     0.004 A 
HETATM   12  C7  UNL     1      24.751   7.889  48.189  1.00  0.00     0.012 A 
BRANCH   9  13
HETATM   13  O1  UNL     1      28.941   6.677  47.860  1.00  0.00    -0.355 OA
HETATM   14  C4  UNL     1      29.740   7.375  46.932  1.00  0.00     0.210 C 
ENDBRANCH   9  13
ENDBRANCH   5   6
ENDBRANCH   1   5
BRANCH   3  15
HETATM   15  S1  UNL     1      24.607   2.329  52.030  1.00  0.00     0.265 S 
HETATM   16  O3  UNL     1      23.721   2.423  53.233  1.00  0.00    -0.200 OA
HETATM   17  O4  UNL     1      23.864   1.696  50.901  1.00  0.00    -0.200 OA
BRANCH  15  18
HETATM   18  C10 UNL     1      25.991   1.377  52.480  1.00  0.00     0.080 A 
HETATM   19  C11 UNL     1      27.179   1.975  52.873  1.00  0.00     0.027 A 
HETATM   20  C12 UNL     1      28.322   1.293  53.250  1.00  0.00     0.020 A 
HETATM   21  C13 UNL     1      28.210  -0.101  53.209  1.00  0.00     0.011 A 
HETATM   22 BR1  UNL     1      29.748  -1.107  53.717  1.00  0.00    -0.051 Br
HETATM   23  C14 UNL     1      27.065  -0.777  52.829  1.00  0.00     0.020 A 
HETATM   24  C15 UNL     1      25.974  -0.005  52.471  1.00  0.00     0.027 A 
ENDBRANCH  15  18
ENDBRANCH   3  15
TORSDOF 5
ENDMDL
