MODEL 1
REMARK VINA RESULT:      -7.6      0.000      0.000
REMARK  3 active torsions:
REMARK  status: ('A' for Active; 'I' for Inactive)
REMARK    1  A    between atoms: O1_2  and  C2_3 
REMARK    2  A    between atoms: C6_9  and  N3_10 
REMARK    3  A    between atoms: N3_10  and  C7_11 
ROOT
HETATM    1  C2  UNL     1      19.227  -0.447  52.875  1.00  0.00     0.071 C 
HETATM    2  C3  UNL     1      20.014  -0.860  53.888  1.00  0.00     0.067 C 
HETATM    3  C4  UNL     1      21.489  -0.743  53.964  1.00  0.00     0.072 A 
HETATM    4  N1  UNL     1      21.985  -1.401  55.026  1.00  0.00    -0.241 NA
HETATM    5  C5  UNL     1      23.309  -1.375  55.239  1.00  0.00     0.235 A 
HETATM    6  N2  UNL     1      24.113  -0.702  54.401  1.00  0.00    -0.224 NA
HETATM    7  C6  UNL     1      23.670  -0.044  53.345  1.00  0.00     0.140 A 
HETATM    8  C13 UNL     1      22.327  -0.039  53.084  1.00  0.00     0.040 A 
HETATM    9  C14 UNL     1      21.881   0.715  51.892  1.00  0.00     0.213 C 
HETATM   10  O2  UNL     1      20.936  -0.122  51.252  1.00  0.00    -0.380 OA
HETATM   11  C15 UNL     1      19.647   0.208  51.623  1.00  0.00     0.232 C 
ENDROOT
BRANCH   7  12
HETATM   12  N3  UNL     1      24.580   0.665  52.521  1.00  0.00    -0.340 N 
HETATM   13  H6  UNL     1      24.407   1.111  51.606  1.00  0.00     0.167 HD
BRANCH  12  14
HETATM   14  C7  UNL     1      25.948   0.813  52.944  1.00  0.00     0.035 A 
HETATM   15  C8  UNL     1      26.464   2.007  53.391  1.00  0.00     0.029 A 
HETATM   16  C9  UNL     1      27.765   2.179  53.807  1.00  0.00     0.004 A 
HETATM   17  C10 UNL     1      28.641   1.099  53.786  1.00  0.00     0.019 A 
HETATM   18  C11 UNL     1      28.168  -0.119  53.344  1.00  0.00     0.013 A 
HETATM   19 BR1  UNL     1      29.343  -1.624  53.302  1.00  0.00    -0.051 Br
HETATM   20  C12 UNL     1      26.853  -0.230  52.941  1.00  0.00     0.048 A 
ENDBRANCH  12  14
ENDBRANCH   7  12
BRANCH   1  21
HETATM   21  O1  UNL     1      17.943  -0.780  53.277  1.00  0.00    -0.358 OA
HETATM   22  C1  UNL     1      16.825  -0.665  52.415  1.00  0.00     0.209 C 
ENDBRANCH   1  21
TORSDOF 3
ENDMDL
MODEL 2
REMARK VINA RESULT:      -7.6      4.626      7.087
REMARK  3 active torsions:
REMARK  status: ('A' for Active; 'I' for Inactive)
REMARK    1  A    between atoms: O1_2  and  C2_3 
REMARK    2  A    between atoms: C6_9  and  N3_10 
REMARK    3  A    between atoms: N3_10  and  C7_11 
ROOT
HETATM    1  C2  UNL     1      28.380  -0.421  53.653  1.00  0.00     0.071 C 
HETATM    2  C3  UNL     1      27.109  -0.817  53.445  1.00  0.00     0.067 C 
HETATM    3  C4  UNL     1      25.919   0.057  53.320  1.00  0.00     0.072 A 
HETATM    4  N1  UNL     1      24.780  -0.657  53.287  1.00  0.00    -0.241 NA
HETATM    5  C5  UNL     1      23.615  -0.004  53.162  1.00  0.00     0.235 A 
HETATM    6  N2  UNL     1      23.600   1.336  53.071  1.00  0.00    -0.224 NA
HETATM    7  C6  UNL     1      24.693   2.076  53.102  1.00  0.00     0.140 A 
HETATM    8  C13 UNL     1      25.907   1.458  53.228  1.00  0.00     0.040 A 
HETATM    9  C14 UNL     1      27.101   2.331  53.254  1.00  0.00     0.213 C 
HETATM   10  O2  UNL     1      27.914   1.823  54.295  1.00  0.00    -0.380 OA
HETATM   11  C15 UNL     1      28.873   0.960  53.802  1.00  0.00     0.232 C 
ENDROOT
BRANCH   7  12
HETATM   12  N3  UNL     1      24.596   3.485  52.975  1.00  0.00    -0.340 N 
HETATM   13  H6  UNL     1      24.810   4.210  53.678  1.00  0.00     0.167 HD
BRANCH  12  14
HETATM   14  C7  UNL     1      24.135   4.052  51.735  1.00  0.00     0.035 A 
HETATM   15  C8  UNL     1      24.527   3.576  50.507  1.00  0.00     0.029 A 
HETATM   16  C9  UNL     1      24.100   4.093  49.305  1.00  0.00     0.004 A 
HETATM   17  C10 UNL     1      23.217   5.167  49.295  1.00  0.00     0.019 A 
HETATM   18  C11 UNL     1      22.796   5.680  50.504  1.00  0.00     0.013 A 
HETATM   19 BR1  UNL     1      21.583   7.155  50.529  1.00  0.00    -0.051 Br
HETATM   20  C12 UNL     1      23.259   5.118  51.677  1.00  0.00     0.048 A 
ENDBRANCH  12  14
ENDBRANCH   7  12
BRANCH   1  21
HETATM   21  O1  UNL     1      29.107  -1.599  53.695  1.00  0.00    -0.358 OA
HETATM   22  C1  UNL     1      28.669  -2.784  53.052  1.00  0.00     0.209 C 
ENDBRANCH   1  21
TORSDOF 3
ENDMDL
MODEL 3
REMARK VINA RESULT:      -7.4      4.019      7.149
REMARK  3 active torsions:
REMARK  status: ('A' for Active; 'I' for Inactive)
REMARK    1  A    between atoms: O1_2  and  C2_3 
REMARK    2  A    between atoms: C6_9  and  N3_10 
REMARK    3  A    between atoms: N3_10  and  C7_11 
ROOT
HETATM    1  C2  UNL     1      28.504   0.858  53.823  1.00  0.00     0.071 C 
HETATM    2  C3  UNL     1      27.604  -0.117  54.060  1.00  0.00     0.067 C 
HETATM    3  C4  UNL     1      26.131  -0.006  53.947  1.00  0.00     0.072 A 
HETATM    4  N1  UNL     1      25.513  -1.105  54.414  1.00  0.00    -0.241 NA
HETATM    5  C5  UNL     1      24.173  -1.160  54.365  1.00  0.00     0.235 A 
HETATM    6  N2  UNL     1      23.475  -0.132  53.857  1.00  0.00    -0.224 NA
HETATM    7  C6  UNL     1      24.040   0.966  53.390  1.00  0.00     0.140 A 
HETATM    8  C13 UNL     1      25.404   1.072  53.417  1.00  0.00     0.040 A 
HETATM    9  C14 UNL     1      25.988   2.321  52.879  1.00  0.00     0.213 C 
HETATM   10  O2  UNL     1      26.990   2.694  53.805  1.00  0.00    -0.380 OA
HETATM   11  C15 UNL     1      28.233   2.244  53.402  1.00  0.00     0.232 C 
ENDROOT
BRANCH   7  12
HETATM   12  N3  UNL     1      23.235   1.999  52.845  1.00  0.00    -0.340 N 
HETATM   13  H6  UNL     1      23.136   2.975  53.167  1.00  0.00     0.167 HD
BRANCH  12  14
HETATM   14  C7  UNL     1      22.409   1.720  51.700  1.00  0.00     0.035 A 
HETATM   15  C8  UNL     1      22.857   1.859  50.408  1.00  0.00     0.029 A 
HETATM   16  C9  UNL     1      22.093   1.597  49.293  1.00  0.00     0.004 A 
HETATM   17  C10 UNL     1      20.781   1.162  49.445  1.00  0.00     0.019 A 
HETATM   18  C11 UNL     1      20.287   1.009  50.725  1.00  0.00     0.013 A 
HETATM   19 BR1  UNL     1      18.490   0.414  50.973  1.00  0.00    -0.051 Br
HETATM   20  C12 UNL     1      21.102   1.288  51.804  1.00  0.00     0.048 A 
ENDBRANCH  12  14
ENDBRANCH   7  12
BRANCH   1  21
HETATM   21  O1  UNL     1      29.731   0.262  54.068  1.00  0.00    -0.358 OA
HETATM   22  C1  UNL     1      29.995  -1.091  53.737  1.00  0.00     0.209 C 
ENDBRANCH   1  21
TORSDOF 3
ENDMDL
MODEL 4
REMARK VINA RESULT:      -7.3      3.941      6.700
REMARK  3 active torsions:
REMARK  status: ('A' for Active; 'I' for Inactive)
REMARK    1  A    between atoms: O1_2  and  C2_3 
REMARK    2  A    between atoms: C6_9  and  N3_10 
REMARK    3  A    between atoms: N3_10  and  C7_11 
ROOT
HETATM    1  C2  UNL     1      26.807   0.325  54.106  1.00  0.00     0.071 C 
HETATM    2  C3  UNL     1      25.697  -0.439  54.133  1.00  0.00     0.067 C 
HETATM    3  C4  UNL     1      24.336  -0.037  53.708  1.00  0.00     0.072 A 
HETATM    4  N1  UNL     1      23.423  -0.973  54.019  1.00  0.00    -0.241 NA
HETATM    5  C5  UNL     1      22.141  -0.758  53.683  1.00  0.00     0.235 A 
HETATM    6  N2  UNL     1      21.791   0.373  53.050  1.00  0.00    -0.224 NA
HETATM    7  C6  UNL     1      22.654   1.319  52.728  1.00  0.00     0.140 A 
HETATM    8  C13 UNL     1      23.974   1.148  53.048  1.00  0.00     0.040 A 
HETATM    9  C14 UNL     1      24.900   2.235  52.662  1.00  0.00     0.213 C 
HETATM   10  O2  UNL     1      25.739   2.427  53.786  1.00  0.00    -0.380 OA
HETATM   11  C15 UNL     1      26.919   1.724  53.653  1.00  0.00     0.232 C 
ENDROOT
BRANCH   7  12
HETATM   12  N3  UNL     1      22.211   2.474  52.036  1.00  0.00    -0.340 N 
HETATM   13  H6  UNL     1      21.905   3.380  52.427  1.00  0.00     0.167 HD
BRANCH  12  14
HETATM   14  C7  UNL     1      22.138   2.453  50.599  1.00  0.00     0.035 A 
HETATM   15  C8  UNL     1      21.866   1.310  49.884  1.00  0.00     0.029 A 
HETATM   16  C9  UNL     1      21.785   1.258  48.511  1.00  0.00     0.004 A 
HETATM   17  C10 UNL     1      21.987   2.416  47.767  1.00  0.00     0.019 A 
HETATM   18  C11 UNL     1      22.264   3.587  48.441  1.00  0.00     0.013 A 
HETATM   19 BR1  UNL     1      22.548   5.196  47.452  1.00  0.00    -0.051 Br
HETATM   20  C12 UNL     1      22.332   3.576  49.820  1.00  0.00     0.048 A 
ENDBRANCH  12  14
ENDBRANCH   7  12
BRANCH   1  21
HETATM   21  O1  UNL     1      27.806  -0.498  54.600  1.00  0.00    -0.358 OA
HETATM   22  C1  UNL     1      29.159  -0.371  54.199  1.00  0.00     0.209 C 
ENDBRANCH   1  21
TORSDOF 3
ENDMDL
MODEL 5
REMARK VINA RESULT:      -7.2      4.446      5.643
REMARK  3 active torsions:
REMARK  status: ('A' for Active; 'I' for Inactive)
REMARK    1  A    between atoms: O1_2  and  C2_3 
REMARK    2  A    between atoms: C6_9  and  N3_10 
REMARK    3  A    between atoms: N3_10  and  C7_11 
ROOT
HETATM    1  C2  UNL     1      22.471   1.016  52.871  1.00  0.00     0.071 C 
HETATM    2  C3  UNL     1      23.752   1.175  53.259  1.00  0.00     0.067 C 
HETATM    3  C4  UNL     1      24.858   1.731  52.446  1.00  0.00     0.072 A 
HETATM    4  N1  UNL     1      26.044   1.597  53.065  1.00  0.00    -0.241 NA
HETATM    5  C5  UNL     1      27.144   2.068  52.458  1.00  0.00     0.235 A 
HETATM    6  N2  UNL     1      27.049   2.660  51.256  1.00  0.00    -0.224 NA
HETATM    7  C6  UNL     1      25.906   2.811  50.612  1.00  0.00     0.140 A 
HETATM    8  C13 UNL     1      24.755   2.348  51.189  1.00  0.00     0.040 A 
HETATM    9  C14 UNL     1      23.501   2.544  50.429  1.00  0.00     0.213 C 
HETATM   10  O2  UNL     1      22.804   1.318  50.535  1.00  0.00    -0.380 OA
HETATM   11  C15 UNL     1      21.883   1.356  51.563  1.00  0.00     0.232 C 
ENDROOT
BRANCH   7  12
HETATM   12  N3  UNL     1      25.884   3.470  49.357  1.00  0.00    -0.340 N 
HETATM   13  H6  UNL     1      25.623   3.088  48.434  1.00  0.00     0.167 HD
BRANCH  12  14
HETATM   14  C7  UNL     1      26.276   4.853  49.278  1.00  0.00     0.035 A 
HETATM   15  C8  UNL     1      25.601   5.856  49.932  1.00  0.00     0.029 A 
HETATM   16  C9  UNL     1      25.953   7.186  49.880  1.00  0.00     0.004 A 
HETATM   17  C10 UNL     1      27.057   7.575  49.129  1.00  0.00     0.019 A 
HETATM   18  C11 UNL     1      27.766   6.602  48.455  1.00  0.00     0.013 A 
HETATM   19 BR1  UNL     1      29.287   7.100  47.413  1.00  0.00    -0.051 Br
HETATM   20  C12 UNL     1      27.364   5.285  48.545  1.00  0.00     0.048 A 
ENDBRANCH  12  14
ENDBRANCH   7  12
BRANCH   1  21
HETATM   21  O1  UNL     1      21.841   0.464  53.976  1.00  0.00    -0.358 OA
HETATM   22  C1  UNL     1      22.237  -0.779  54.530  1.00  0.00     0.209 C 
ENDBRANCH   1  21
TORSDOF 3
ENDMDL
MODEL 6
REMARK VINA RESULT:      -7.1      3.846      7.230
REMARK  3 active torsions:
REMARK  status: ('A' for Active; 'I' for Inactive)
REMARK    1  A    between atoms: O1_2  and  C2_3 
REMARK    2  A    between atoms: C6_9  and  N3_10 
REMARK    3  A    between atoms: N3_10  and  C7_11 
ROOT
HETATM    1  C2  UNL     1      27.015  -0.450  53.512  1.00  0.00     0.071 C 
HETATM    2  C3  UNL     1      27.350   0.574  52.703  1.00  0.00     0.067 C 
HETATM    3  C4  UNL     1      26.424   1.557  52.092  1.00  0.00     0.072 A 
HETATM    4  N1  UNL     1      27.054   2.347  51.206  1.00  0.00    -0.241 NA
HETATM    5  C5  UNL     1      26.349   3.300  50.578  1.00  0.00     0.235 A 
HETATM    6  N2  UNL     1      25.041   3.452  50.839  1.00  0.00    -0.224 NA
HETATM    7  C6  UNL     1      24.382   2.698  51.699  1.00  0.00     0.140 A 
HETATM    8  C13 UNL     1      25.056   1.712  52.367  1.00  0.00     0.040 A 
HETATM    9  C14 UNL     1      24.274   0.897  53.322  1.00  0.00     0.213 C 
HETATM   10  O2  UNL     1      24.673  -0.440  53.088  1.00  0.00    -0.380 OA
HETATM   11  C15 UNL     1      25.665  -0.826  53.969  1.00  0.00     0.232 C 
ENDROOT
BRANCH   7  12
HETATM   12  N3  UNL     1      23.005   2.937  51.939  1.00  0.00    -0.340 N 
HETATM   13  H6  UNL     1      22.573   3.588  52.614  1.00  0.00     0.167 HD
BRANCH  12  14
HETATM   14  C7  UNL     1      22.020   2.203  51.189  1.00  0.00     0.035 A 
HETATM   15  C8  UNL     1      22.072   2.070  49.822  1.00  0.00     0.029 A 
HETATM   16  C9  UNL     1      21.149   1.372  49.077  1.00  0.00     0.004 A 
HETATM   17  C10 UNL     1      20.082   0.749  49.716  1.00  0.00     0.019 A 
HETATM   18  C11 UNL     1      19.987   0.856  51.088  1.00  0.00     0.013 A 
HETATM   19 BR1  UNL     1      18.534   0.014  51.998  1.00  0.00    -0.051 Br
HETATM   20  C12 UNL     1      20.944   1.570  51.780  1.00  0.00     0.048 A 
ENDBRANCH  12  14
ENDBRANCH   7  12
BRANCH   1  21
HETATM   21  O1  UNL     1      28.221  -1.065  53.809  1.00  0.00    -0.358 OA
HETATM   22  C1  UNL     1      29.449  -0.358  53.817  1.00  0.00     0.209 C 
ENDBRANCH   1  21
TORSDOF 3
ENDMDL
MODEL 7
REMARK VINA RESULT:      -7.0      4.106      5.274
REMARK  3 active torsions:
REMARK  status: ('A' for Active; 'I' for Inactive)
REMARK    1  A    between atoms: O1_2  and  C2_3 
REMARK    2  A    between atoms: C6_9  and  N3_10 
REMARK    3  A    between atoms: N3_10  and  C7_11 
ROOT
HETATM    1  C2  UNL     1      21.851   4.646  50.577  1.00  0.00     0.071 C 
HETATM    2  C3  UNL     1      22.923   4.486  49.777  1.00  0.00     0.067 C 
HETATM    3  C4  UNL     1      24.265   4.005  50.182  1.00  0.00     0.072 A 
HETATM    4  N1  UNL     1      25.156   4.120  49.182  1.00  0.00    -0.241 NA
HETATM    5  C5  UNL     1      26.416   3.710  49.393  1.00  0.00     0.235 A 
HETATM    6  N2  UNL     1      26.767   3.196  50.582  1.00  0.00    -0.224 NA
HETATM    7  C6  UNL     1      25.926   3.067  51.592  1.00  0.00     0.140 A 
HETATM    8  C13 UNL     1      24.629   3.470  51.428  1.00  0.00     0.040 A 
HETATM    9  C14 UNL     1      23.726   3.301  52.587  1.00  0.00     0.213 C 
HETATM   10  O2  UNL     1      22.986   4.505  52.664  1.00  0.00    -0.380 OA
HETATM   11  C15 UNL     1      21.767   4.382  52.025  1.00  0.00     0.232 C 
ENDROOT
BRANCH   7  12
HETATM   12  N3  UNL     1      26.367   2.491  52.810  1.00  0.00    -0.340 N 
HETATM   13  H6  UNL     1      26.494   2.947  53.728  1.00  0.00     0.167 HD
BRANCH  12  14
HETATM   14  C7  UNL     1      26.714   1.094  52.847  1.00  0.00     0.035 A 
HETATM   15  C8  UNL     1      25.824   0.098  52.523  1.00  0.00     0.029 A 
HETATM   16  C9  UNL     1      26.126  -1.245  52.544  1.00  0.00     0.004 A 
HETATM   17  C10 UNL     1      27.403  -1.655  52.910  1.00  0.00     0.019 A 
HETATM   18  C11 UNL     1      28.330  -0.690  53.245  1.00  0.00     0.013 A 
HETATM   19 BR1  UNL     1      30.093  -1.218  53.755  1.00  0.00    -0.051 Br
HETATM   20  C12 UNL     1      27.968   0.641  53.205  1.00  0.00     0.048 A 
ENDBRANCH  12  14
ENDBRANCH   7  12
BRANCH   1  21
HETATM   21  O1  UNL     1      20.856   5.113  49.733  1.00  0.00    -0.358 OA
HETATM   22  C1  UNL     1      20.410   6.458  49.760  1.00  0.00     0.209 C 
ENDBRANCH   1  21
TORSDOF 3
ENDMDL
MODEL 8
REMARK VINA RESULT:      -6.8      4.614      7.421
REMARK  3 active torsions:
REMARK  status: ('A' for Active; 'I' for Inactive)
REMARK    1  A    between atoms: O1_2  and  C2_3 
REMARK    2  A    between atoms: C6_9  and  N3_10 
REMARK    3  A    between atoms: N3_10  and  C7_11 
ROOT
HETATM    1  C2  UNL     1      26.359   0.059  54.204  1.00  0.00     0.071 C 
HETATM    2  C3  UNL     1      26.906   0.987  53.395  1.00  0.00     0.067 C 
HETATM    3  C4  UNL     1      26.234   1.696  52.281  1.00  0.00     0.072 A 
HETATM    4  N1  UNL     1      27.101   2.433  51.566  1.00  0.00    -0.241 NA
HETATM    5  C5  UNL     1      26.638   3.148  50.529  1.00  0.00     0.235 A 
HETATM    6  N2  UNL     1      25.331   3.119  50.222  1.00  0.00    -0.224 NA
HETATM    7  C6  UNL     1      24.445   2.408  50.896  1.00  0.00     0.140 A 
HETATM    8  C13 UNL     1      24.867   1.663  51.962  1.00  0.00     0.040 A 
HETATM    9  C14 UNL     1      23.835   0.887  52.685  1.00  0.00     0.213 C 
HETATM   10  O2  UNL     1      24.412  -0.385  52.910  1.00  0.00    -0.380 OA
HETATM   11  C15 UNL     1      24.980  -0.460  54.167  1.00  0.00     0.232 C 
ENDROOT
BRANCH   7  12
HETATM   12  N3  UNL     1      23.077   2.450  50.525  1.00  0.00    -0.340 N 
HETATM   13  H6  UNL     1      22.329   1.772  50.745  1.00  0.00     0.167 HD
BRANCH  12  14
HETATM   14  C7  UNL     1      22.595   3.545  49.725  1.00  0.00     0.035 A 
HETATM   15  C8  UNL     1      22.434   3.457  48.362  1.00  0.00     0.029 A 
HETATM   16  C9  UNL     1      21.971   4.484  47.571  1.00  0.00     0.004 A 
HETATM   17  C10 UNL     1      21.636   5.702  48.152  1.00  0.00     0.019 A 
HETATM   18  C11 UNL     1      21.782   5.837  49.518  1.00  0.00     0.013 A 
HETATM   19 BR1  UNL     1      21.332   7.495  50.351  1.00  0.00    -0.051 Br
HETATM   20  C12 UNL     1      22.251   4.771  50.259  1.00  0.00     0.048 A 
ENDBRANCH  12  14
ENDBRANCH   7  12
BRANCH   1  21
HETATM   21  O1  UNL     1      27.383  -0.293  55.068  1.00  0.00    -0.358 OA
HETATM   22  C1  UNL     1      28.720   0.135  54.873  1.00  0.00     0.209 C 
ENDBRANCH   1  21
TORSDOF 3
ENDMDL
MODEL 9
REMARK VINA RESULT:      -6.8      4.469      5.733
REMARK  3 active torsions:
REMARK  status: ('A' for Active; 'I' for Inactive)
REMARK    1  A    between atoms: O1_2  and  C2_3 
REMARK    2  A    between atoms: C6_9  and  N3_10 
REMARK    3  A    between atoms: N3_10  and  C7_11 
ROOT
HETATM    1  C2  UNL     1      23.606  -0.470  53.763  1.00  0.00     0.071 C 
HETATM    2  C3  UNL     1      22.809   0.221  52.924  1.00  0.00     0.067 C 
HETATM    3  C4  UNL     1      23.236   1.246  51.943  1.00  0.00     0.072 A 
HETATM    4  N1  UNL     1      22.182   1.865  51.382  1.00  0.00    -0.241 NA
HETATM    5  C5  UNL     1      22.409   2.812  50.459  1.00  0.00     0.235 A 
HETATM    6  N2  UNL     1      23.667   3.127  50.112  1.00  0.00    -0.224 NA
HETATM    7  C6  UNL     1      24.730   2.547  50.639  1.00  0.00     0.140 A 
HETATM    8  C13 UNL     1      24.553   1.573  51.584  1.00  0.00     0.040 A 
HETATM    9  C14 UNL     1      25.775   0.953  52.140  1.00  0.00     0.213 C 
HETATM   10  O2  UNL     1      25.554   0.877  53.536  1.00  0.00    -0.380 OA
HETATM   11  C15 UNL     1      25.070  -0.365  53.897  1.00  0.00     0.232 C 
ENDROOT
BRANCH   7  12
HETATM   12  N3  UNL     1      26.026   2.917  50.200  1.00  0.00    -0.340 N 
HETATM   13  H6  UNL     1      26.884   2.341  50.168  1.00  0.00     0.167 HD
BRANCH  12  14
HETATM   14  C7  UNL     1      26.259   4.260  49.737  1.00  0.00     0.035 A 
HETATM   15  C8  UNL     1      27.271   4.581  48.864  1.00  0.00     0.029 A 
HETATM   16  C9  UNL     1      27.516   5.853  48.399  1.00  0.00     0.004 A 
HETATM   17  C10 UNL     1      26.709   6.904  48.818  1.00  0.00     0.019 A 
HETATM   18  C11 UNL     1      25.680   6.630  49.695  1.00  0.00     0.013 A 
HETATM   19 BR1  UNL     1      24.551   8.050  50.293  1.00  0.00    -0.051 Br
HETATM   20  C12 UNL     1      25.484   5.334  50.126  1.00  0.00     0.048 A 
ENDBRANCH  12  14
ENDBRANCH   7  12
BRANCH   1  21
HETATM   21  O1  UNL     1      22.738  -1.292  54.466  1.00  0.00    -0.358 OA
HETATM   22  C1  UNL     1      21.332  -1.124  54.420  1.00  0.00     0.209 C 
ENDBRANCH   1  21
TORSDOF 3
ENDMDL
