MODEL 1
REMARK VINA RESULT:      -8.4      0.000      0.000
REMARK  4 active torsions:
REMARK  status: ('A' for Active; 'I' for Inactive)
REMARK    1  A    between atoms: O1_2  and  C2_3 
REMARK    2  A    between atoms: C2_3  and  N1_4 
REMARK    3  A    between atoms: C14_19  and  N5_20 
REMARK    4  A    between atoms: N5_20  and  C15_21 
ROOT
HETATM    1  N1  UNL     1      22.098   3.080  51.769  1.00  0.00    -0.353 N 
HETATM    2  C3  UNL     1      21.155   2.637  50.727  1.00  0.00     0.152 C 
HETATM    3  C4  UNL     1      21.428   1.267  50.303  1.00  0.00    -0.009 C 
HETATM    4  C5  UNL     1      20.715   0.154  50.401  1.00  0.00     0.005 C 
HETATM    5  C6  UNL     1      19.418   0.456  51.086  1.00  0.00     0.239 C 
HETATM    6  C7  UNL     1      18.566   1.242  50.141  1.00  0.00     0.047 C 
HETATM    7  N2  UNL     1      19.774   1.208  52.264  1.00  0.00     0.092 N 
HETATM    8  C8  UNL     1      20.499   0.532  53.241  1.00  0.00     0.295 C 
HETATM    9  C9  UNL     1      21.869   0.062  53.063  1.00  0.00     0.175 C 
HETATM   10  C10 UNL     1      22.155  -0.702  54.342  1.00  0.00     0.072 C 
HETATM   11  N3  UNL     1      22.378  -1.301  55.332  1.00  0.00    -0.196 NA
HETATM   12  C11 UNL     1      22.969   1.022  52.922  1.00  0.00     0.082 A 
HETATM   13  N4  UNL     1      24.145   0.568  53.430  1.00  0.00    -0.262 NA
HETATM   14  C12 UNL     1      25.309   1.177  53.459  1.00  0.00     0.119 A 
HETATM   15  C13 UNL     1      25.451   2.437  52.928  1.00  0.00     0.051 A 
HETATM   16  C14 UNL     1      24.301   2.967  52.391  1.00  0.00     0.063 A 
HETATM   17  C22 UNL     1      23.109   2.293  52.385  1.00  0.00     0.085 A 
HETATM   18  H14 UNL     1      19.021   1.762  52.682  1.00  0.00     0.316 HD
ENDROOT
BRANCH   1  19
HETATM   19  C2  UNL     1      21.800   4.454  52.108  1.00  0.00     0.292 C 
BRANCH  19  20
HETATM   20  O1  UNL     1      21.171   5.181  51.127  1.00  0.00    -0.377 OA
HETATM   21  C1  UNL     1      21.763   6.463  51.169  1.00  0.00     0.203 C 
ENDBRANCH  19  20
ENDBRANCH   1  19
BRANCH  16  22
HETATM   22  N5  UNL     1      24.436   4.279  51.853  1.00  0.00    -0.354 N 
HETATM   23  H20 UNL     1      24.222   5.289  51.786  1.00  0.00     0.166 HD
BRANCH  22  24
HETATM   24  C15 UNL     1      25.360   4.489  50.766  1.00  0.00     0.033 A 
HETATM   25  C16 UNL     1      26.328   3.675  50.174  1.00  0.00     0.029 A 
HETATM   26  C17 UNL     1      27.124   4.067  49.090  1.00  0.00     0.003 A 
HETATM   27  C18 UNL     1      26.944   5.331  48.573  1.00  0.00     0.007 A 
HETATM   28  C19 UNL     1      26.012   6.167  49.116  1.00  0.00    -0.060 A 
HETATM   29  C20 UNL     1      25.914   7.495  48.479  1.00  0.00     0.048 C 
HETATM   30  C21 UNL     1      25.255   5.741  50.177  1.00  0.00     0.036 A 
ENDBRANCH  22  24
ENDBRANCH  16  22
TORSDOF 4
ENDMDL
MODEL 2
REMARK VINA RESULT:      -8.3      2.327      4.080
REMARK  4 active torsions:
REMARK  status: ('A' for Active; 'I' for Inactive)
REMARK    1  A    between atoms: O1_2  and  C2_3 
REMARK    2  A    between atoms: C2_3  and  N1_4 
REMARK    3  A    between atoms: C14_19  and  N5_20 
REMARK    4  A    between atoms: N5_20  and  C15_21 
ROOT
HETATM    1  N1  UNL     1      22.650   2.254  51.749  1.00  0.00    -0.353 N 
HETATM    2  C3  UNL     1      22.443   2.521  50.315  1.00  0.00     0.152 C 
HETATM    3  C4  UNL     1      21.980   1.329  49.609  1.00  0.00    -0.009 C 
HETATM    4  C5  UNL     1      20.843   1.062  48.982  1.00  0.00     0.005 C 
HETATM    5  C6  UNL     1      19.937   2.250  49.071  1.00  0.00     0.239 C 
HETATM    6  C7  UNL     1      20.489   3.322  48.187  1.00  0.00     0.047 C 
HETATM    7  N2  UNL     1      19.938   2.627  50.463  1.00  0.00     0.092 N 
HETATM    8  C8  UNL     1      19.367   1.725  51.355  1.00  0.00     0.295 C 
HETATM    9  C9  UNL     1      19.924   0.412  51.658  1.00  0.00     0.175 C 
HETATM   10  C10 UNL     1      18.889  -0.217  52.572  1.00  0.00     0.072 C 
HETATM   11  N3  UNL     1      18.084  -0.709  53.277  1.00  0.00    -0.196 NA
HETATM   12  C11 UNL     1      21.202   0.294  52.369  1.00  0.00     0.082 A 
HETATM   13  N4  UNL     1      21.278  -0.812  53.155  1.00  0.00    -0.262 NA
HETATM   14  C12 UNL     1      22.278  -1.206  53.912  1.00  0.00     0.119 A 
HETATM   15  C13 UNL     1      23.436  -0.469  53.979  1.00  0.00     0.051 A 
HETATM   16  C14 UNL     1      23.436   0.671  53.208  1.00  0.00     0.063 A 
HETATM   17  C22 UNL     1      22.368   1.040  52.434  1.00  0.00     0.085 A 
HETATM   18  H14 UNL     1      19.635   3.585  50.664  1.00  0.00     0.316 HD
ENDROOT
BRANCH   1  19
HETATM   19  C2  UNL     1      23.150   3.458  52.375  1.00  0.00     0.292 C 
BRANCH  19  20
HETATM   20  O1  UNL     1      24.100   4.145  51.660  1.00  0.00    -0.377 OA
HETATM   21  C1  UNL     1      23.737   5.507  51.758  1.00  0.00     0.203 C 
ENDBRANCH  19  20
ENDBRANCH   1  19
BRANCH  16  22
HETATM   22  N5  UNL     1      24.627   1.449  53.283  1.00  0.00    -0.354 N 
HETATM   23  H20 UNL     1      25.166   2.329  53.351  1.00  0.00     0.166 HD
BRANCH  22  24
HETATM   24  C15 UNL     1      25.899   0.771  53.259  1.00  0.00     0.033 A 
HETATM   25  C16 UNL     1      26.299  -0.478  52.779  1.00  0.00     0.029 A 
HETATM   26  C17 UNL     1      27.617  -0.952  52.831  1.00  0.00     0.003 A 
HETATM   27  C18 UNL     1      28.579  -0.140  53.391  1.00  0.00     0.007 A 
HETATM   28  C19 UNL     1      28.240   1.090  53.876  1.00  0.00    -0.060 A 
HETATM   29  C20 UNL     1      29.357   1.865  54.453  1.00  0.00     0.048 C 
HETATM   30  C21 UNL     1      26.938   1.512  53.803  1.00  0.00     0.036 A 
ENDBRANCH  22  24
ENDBRANCH  16  22
TORSDOF 4
ENDMDL
MODEL 3
REMARK VINA RESULT:      -8.1      8.277     12.042
REMARK  4 active torsions:
REMARK  status: ('A' for Active; 'I' for Inactive)
REMARK    1  A    between atoms: O1_2  and  C2_3 
REMARK    2  A    between atoms: C2_3  and  N1_4 
REMARK    3  A    between atoms: C14_19  and  N5_20 
REMARK    4  A    between atoms: N5_20  and  C15_21 
ROOT
HETATM    1  N1  UNL     1      32.569   6.065  47.709  1.00  0.00    -0.353 N 
HETATM    2  C3  UNL     1      32.332   4.683  48.162  1.00  0.00     0.152 C 
HETATM    3  C4  UNL     1      31.718   3.873  47.114  1.00  0.00    -0.009 C 
HETATM    4  C5  UNL     1      32.154   2.811  46.451  1.00  0.00     0.005 C 
HETATM    5  C6  UNL     1      33.529   2.459  46.927  1.00  0.00     0.239 C 
HETATM    6  C7  UNL     1      33.411   1.889  48.305  1.00  0.00     0.047 C 
HETATM    7  N2  UNL     1      34.270   3.696  46.904  1.00  0.00     0.092 N 
HETATM    8  C8  UNL     1      34.502   4.261  45.653  1.00  0.00     0.295 C 
HETATM    9  C9  UNL     1      33.456   4.811  44.798  1.00  0.00     0.175 C 
HETATM   10  C10 UNL     1      34.191   5.182  43.524  1.00  0.00     0.072 C 
HETATM   11  N3  UNL     1      34.759   5.465  42.531  1.00  0.00    -0.196 NA
HETATM   12  C11 UNL     1      32.728   6.019  45.200  1.00  0.00     0.082 A 
HETATM   13  N4  UNL     1      32.333   6.782  44.147  1.00  0.00    -0.262 NA
HETATM   14  C12 UNL     1      31.666   7.914  44.166  1.00  0.00     0.119 A 
HETATM   15  C13 UNL     1      31.274   8.474  45.359  1.00  0.00     0.051 A 
HETATM   16  C14 UNL     1      31.638   7.757  46.476  1.00  0.00     0.063 A 
HETATM   17  C22 UNL     1      32.334   6.580  46.405  1.00  0.00     0.085 A 
HETATM   18  H14 UNL     1      35.116   3.719  47.481  1.00  0.00     0.316 HD
ENDROOT
BRANCH   1  19
HETATM   19  C2  UNL     1      33.134   6.820  48.806  1.00  0.00     0.292 C 
BRANCH  19  20
HETATM   20  O1  UNL     1      34.211   7.611  48.485  1.00  0.00    -0.377 OA
HETATM   21  C1  UNL     1      35.343   6.774  48.601  1.00  0.00     0.203 C 
ENDBRANCH  19  20
ENDBRANCH   1  19
BRANCH  16  22
HETATM   22  N5  UNL     1      31.248   8.338  47.717  1.00  0.00    -0.354 N 
HETATM   23  H20 UNL     1      31.415   8.820  48.617  1.00  0.00     0.166 HD
BRANCH  22  24
HETATM   24  C15 UNL     1      29.853   8.323  48.080  1.00  0.00     0.033 A 
HETATM   25  C16 UNL     1      28.936   9.339  48.361  1.00  0.00     0.029 A 
HETATM   26  C17 UNL     1      27.590   9.112  48.678  1.00  0.00     0.003 A 
HETATM   27  C18 UNL     1      27.140   7.811  48.716  1.00  0.00     0.007 A 
HETATM   28  C19 UNL     1      27.996   6.782  48.450  1.00  0.00    -0.060 A 
HETATM   29  C20 UNL     1      27.397   5.434  48.525  1.00  0.00     0.048 C 
HETATM   30  C21 UNL     1      29.305   7.050  48.145  1.00  0.00     0.036 A 
ENDBRANCH  22  24
ENDBRANCH  16  22
TORSDOF 4
ENDMDL
MODEL 4
REMARK VINA RESULT:      -8.0      2.612      4.397
REMARK  4 active torsions:
REMARK  status: ('A' for Active; 'I' for Inactive)
REMARK    1  A    between atoms: O1_2  and  C2_3 
REMARK    2  A    between atoms: C2_3  and  N1_4 
REMARK    3  A    between atoms: C14_19  and  N5_20 
REMARK    4  A    between atoms: N5_20  and  C15_21 
ROOT
HETATM    1  N1  UNL     1      23.385   4.565  50.951  1.00  0.00    -0.353 N 
HETATM    2  C3  UNL     1      22.361   3.519  51.122  1.00  0.00     0.152 C 
HETATM    3  C4  UNL     1      22.816   2.233  50.600  1.00  0.00    -0.009 C 
HETATM    4  C5  UNL     1      23.059   1.075  51.196  1.00  0.00     0.005 C 
HETATM    5  C6  UNL     1      22.799   1.210  52.664  1.00  0.00     0.239 C 
HETATM    6  C7  UNL     1      21.321   1.312  52.866  1.00  0.00     0.047 C 
HETATM    7  N2  UNL     1      23.496   2.406  53.068  1.00  0.00     0.092 N 
HETATM    8  C8  UNL     1      24.885   2.375  52.993  1.00  0.00     0.295 C 
HETATM    9  C9  UNL     1      25.635   2.297  51.744  1.00  0.00     0.175 C 
HETATM   10  C10 UNL     1      27.077   2.169  52.198  1.00  0.00     0.072 C 
HETATM   11  N3  UNL     1      28.197   2.063  52.548  1.00  0.00    -0.196 NA
HETATM   12  C11 UNL     1      25.617   3.418  50.797  1.00  0.00     0.082 A 
HETATM   13  N4  UNL     1      26.774   3.545  50.097  1.00  0.00    -0.262 NA
HETATM   14  C12 UNL     1      27.076   4.436  49.178  1.00  0.00     0.119 A 
HETATM   15  C13 UNL     1      26.167   5.400  48.815  1.00  0.00     0.051 A 
HETATM   16  C14 UNL     1      24.965   5.337  49.482  1.00  0.00     0.063 A 
HETATM   17  C22 UNL     1      24.697   4.388  50.433  1.00  0.00     0.085 A 
HETATM   18  H14 UNL     1      23.184   2.827  53.948  1.00  0.00     0.316 HD
ENDROOT
BRANCH   1  19
HETATM   19  C2  UNL     1      22.854   5.816  51.446  1.00  0.00     0.292 C 
BRANCH  19  20
HETATM   20  O1  UNL     1      21.533   6.054  51.152  1.00  0.00    -0.377 OA
HETATM   21  C1  UNL     1      21.462   7.426  50.821  1.00  0.00     0.203 C 
ENDBRANCH  19  20
ENDBRANCH   1  19
BRANCH  16  22
HETATM   22  N5  UNL     1      24.022   6.342  49.122  1.00  0.00    -0.354 N 
HETATM   23  H20 UNL     1      23.435   7.176  49.291  1.00  0.00     0.166 HD
BRANCH  22  24
HETATM   24  C15 UNL     1      23.468   6.325  47.791  1.00  0.00     0.033 A 
HETATM   25  C16 UNL     1      23.560   7.210  46.714  1.00  0.00     0.029 A 
HETATM   26  C17 UNL     1      22.951   6.996  45.471  1.00  0.00     0.003 A 
HETATM   27  C18 UNL     1      22.217   5.843  45.295  1.00  0.00     0.007 A 
HETATM   28  C19 UNL     1      22.095   4.946  46.316  1.00  0.00    -0.060 A 
HETATM   29  C20 UNL     1      21.281   3.753  46.008  1.00  0.00     0.048 C 
HETATM   30  C21 UNL     1      22.707   5.198  47.516  1.00  0.00     0.036 A 
ENDBRANCH  22  24
ENDBRANCH  16  22
TORSDOF 4
ENDMDL
MODEL 5
REMARK VINA RESULT:      -8.0      2.434      5.273
REMARK  4 active torsions:
REMARK  status: ('A' for Active; 'I' for Inactive)
REMARK    1  A    between atoms: O1_2  and  C2_3 
REMARK    2  A    between atoms: C2_3  and  N1_4 
REMARK    3  A    between atoms: C14_19  and  N5_20 
REMARK    4  A    between atoms: N5_20  and  C15_21 
ROOT
HETATM    1  N1  UNL     1      21.903   1.599  52.018  1.00  0.00    -0.353 N 
HETATM    2  C3  UNL     1      20.565   2.075  52.412  1.00  0.00     0.152 C 
HETATM    3  C4  UNL     1      20.293   3.409  51.883  1.00  0.00    -0.009 C 
HETATM    4  C5  UNL     1      19.397   3.845  51.010  1.00  0.00     0.005 C 
HETATM    5  C6  UNL     1      18.566   2.694  50.534  1.00  0.00     0.239 C 
HETATM    6  C7  UNL     1      17.670   2.275  51.656  1.00  0.00     0.047 C 
HETATM    7  N2  UNL     1      19.511   1.667  50.169  1.00  0.00     0.092 N 
HETATM    8  C8  UNL     1      20.334   1.935  49.079  1.00  0.00     0.295 C 
HETATM    9  C9  UNL     1      21.369   2.963  49.071  1.00  0.00     0.175 C 
HETATM   10  C10 UNL     1      21.887   2.940  47.645  1.00  0.00     0.072 C 
HETATM   11  N3  UNL     1      22.286   2.928  46.537  1.00  0.00    -0.196 NA
HETATM   12  C11 UNL     1      22.555   2.828  49.924  1.00  0.00     0.082 A 
HETATM   13  N4  UNL     1      23.670   3.386  49.384  1.00  0.00    -0.262 NA
HETATM   14  C12 UNL     1      24.882   3.438  49.890  1.00  0.00     0.119 A 
HETATM   15  C13 UNL     1      25.150   2.884  51.119  1.00  0.00     0.051 A 
HETATM   16  C14 UNL     1      24.067   2.296  51.732  1.00  0.00     0.063 A 
HETATM   17  C22 UNL     1      22.822   2.267  51.164  1.00  0.00     0.085 A 
HETATM   18  H14 UNL     1      19.136   0.715  50.121  1.00  0.00     0.316 HD
ENDROOT
BRANCH   1  19
HETATM   19  C2  UNL     1      22.123   0.298  52.612  1.00  0.00     0.292 C 
BRANCH  19  20
HETATM   20  O1  UNL     1      21.895   0.220  53.964  1.00  0.00    -0.377 OA
HETATM   21  C1  UNL     1      22.300  -1.080  54.341  1.00  0.00     0.203 C 
ENDBRANCH  19  20
ENDBRANCH   1  19
BRANCH  16  22
HETATM   22  N5  UNL     1      24.340   1.706  52.999  1.00  0.00    -0.354 N 
HETATM   23  H20 UNL     1      24.111   1.425  53.968  1.00  0.00     0.166 HD
BRANCH  22  24
HETATM   24  C15 UNL     1      25.638   1.120  53.225  1.00  0.00     0.033 A 
HETATM   25  C16 UNL     1      26.797   1.594  53.844  1.00  0.00     0.029 A 
HETATM   26  C17 UNL     1      27.972   0.844  53.984  1.00  0.00     0.003 A 
HETATM   27  C18 UNL     1      27.989  -0.439  53.483  1.00  0.00     0.007 A 
HETATM   28  C19 UNL     1      26.883  -0.949  52.868  1.00  0.00    -0.060 A 
HETATM   29  C20 UNL     1      27.026  -2.332  52.369  1.00  0.00     0.048 C 
HETATM   30  C21 UNL     1      25.755  -0.179  52.753  1.00  0.00     0.036 A 
ENDBRANCH  22  24
ENDBRANCH  16  22
TORSDOF 4
ENDMDL
MODEL 6
REMARK VINA RESULT:      -8.0      2.517      5.016
REMARK  4 active torsions:
REMARK  status: ('A' for Active; 'I' for Inactive)
REMARK    1  A    between atoms: O1_2  and  C2_3 
REMARK    2  A    between atoms: C2_3  and  N1_4 
REMARK    3  A    between atoms: C14_19  and  N5_20 
REMARK    4  A    between atoms: N5_20  and  C15_21 
ROOT
HETATM    1  N1  UNL     1      26.072   2.559  51.623  1.00  0.00    -0.353 N 
HETATM    2  C3  UNL     1      27.264   2.229  52.424  1.00  0.00     0.152 C 
HETATM    3  C4  UNL     1      26.914   1.938  53.812  1.00  0.00    -0.009 C 
HETATM    4  C5  UNL     1      27.015   0.832  54.534  1.00  0.00     0.005 C 
HETATM    5  C6  UNL     1      27.596  -0.260  53.689  1.00  0.00     0.239 C 
HETATM    6  C7  UNL     1      29.042   0.048  53.463  1.00  0.00     0.047 C 
HETATM    7  N2  UNL     1      26.830  -0.245  52.467  1.00  0.00     0.092 N 
HETATM    8  C8  UNL     1      25.489  -0.601  52.566  1.00  0.00     0.295 C 
HETATM    9  C9  UNL     1      24.483   0.190  53.266  1.00  0.00     0.175 C 
HETATM   10  C10 UNL     1      23.234  -0.668  53.192  1.00  0.00     0.072 C 
HETATM   11  N3  UNL     1      22.265  -1.335  53.141  1.00  0.00    -0.196 NA
HETATM   12  C11 UNL     1      24.088   1.507  52.755  1.00  0.00     0.082 A 
HETATM   13  N4  UNL     1      22.791   1.817  53.017  1.00  0.00    -0.262 NA
HETATM   14  C12 UNL     1      22.135   2.911  52.700  1.00  0.00     0.119 A 
HETATM   15  C13 UNL     1      22.759   3.926  52.015  1.00  0.00     0.051 A 
HETATM   16  C14 UNL     1      24.080   3.687  51.712  1.00  0.00     0.063 A 
HETATM   17  C22 UNL     1      24.721   2.530  52.065  1.00  0.00     0.085 A 
HETATM   18  H14 UNL     1      27.272  -0.697  51.661  1.00  0.00     0.316 HD
ENDROOT
BRANCH   1  19
HETATM   19  C2  UNL     1      26.494   2.878  50.277  1.00  0.00     0.292 C 
BRANCH  19  20
HETATM   20  O1  UNL     1      27.420   3.888  50.173  1.00  0.00    -0.377 OA
HETATM   21  C1  UNL     1      27.266   4.409  48.869  1.00  0.00     0.203 C 
ENDBRANCH  19  20
ENDBRANCH   1  19
BRANCH  16  22
HETATM   22  N5  UNL     1      24.730   4.728  50.990  1.00  0.00    -0.354 N 
HETATM   23  H20 UNL     1      25.550   5.240  50.622  1.00  0.00     0.166 HD
BRANCH  22  24
HETATM   24  C15 UNL     1      23.921   5.731  50.342  1.00  0.00     0.033 A 
HETATM   25  C16 UNL     1      23.424   6.966  50.763  1.00  0.00     0.029 A 
HETATM   26  C17 UNL     1      22.660   7.819  49.956  1.00  0.00     0.003 A 
HETATM   27  C18 UNL     1      22.379   7.419  48.668  1.00  0.00     0.007 A 
HETATM   28  C19 UNL     1      22.841   6.220  48.207  1.00  0.00    -0.060 A 
HETATM   29  C20 UNL     1      22.473   5.901  46.813  1.00  0.00     0.048 C 
HETATM   30  C21 UNL     1      23.585   5.418  49.032  1.00  0.00     0.036 A 
ENDBRANCH  22  24
ENDBRANCH  16  22
TORSDOF 4
ENDMDL
MODEL 7
REMARK VINA RESULT:      -7.8      2.576      4.772
REMARK  4 active torsions:
REMARK  status: ('A' for Active; 'I' for Inactive)
REMARK    1  A    between atoms: O1_2  and  C2_3 
REMARK    2  A    between atoms: C2_3  and  N1_4 
REMARK    3  A    between atoms: C14_19  and  N5_20 
REMARK    4  A    between atoms: N5_20  and  C15_21 
ROOT
HETATM    1  N1  UNL     1      23.728   3.675  50.042  1.00  0.00    -0.353 N 
HETATM    2  C3  UNL     1      23.558   3.585  48.581  1.00  0.00     0.152 C 
HETATM    3  C4  UNL     1      22.607   2.539  48.216  1.00  0.00    -0.009 C 
HETATM    4  C5  UNL     1      21.424   2.590  47.623  1.00  0.00     0.005 C 
HETATM    5  C6  UNL     1      21.085   4.016  47.317  1.00  0.00     0.239 C 
HETATM    6  C7  UNL     1      21.967   4.473  46.199  1.00  0.00     0.047 C 
HETATM    7  N2  UNL     1      21.326   4.738  48.542  1.00  0.00     0.092 N 
HETATM    8  C8  UNL     1      20.496   4.438  49.617  1.00  0.00     0.295 C 
HETATM    9  C9  UNL     1      20.490   3.156  50.313  1.00  0.00     0.175 C 
HETATM   10  C10 UNL     1      19.348   3.290  51.304  1.00  0.00     0.072 C 
HETATM   11  N3  UNL     1      18.459   3.389  52.069  1.00  0.00    -0.196 NA
HETATM   12  C11 UNL     1      21.652   2.736  51.103  1.00  0.00     0.082 A 
HETATM   13  N4  UNL     1      21.322   1.966  52.174  1.00  0.00    -0.262 NA
HETATM   14  C12 UNL     1      22.121   1.432  53.071  1.00  0.00     0.119 A 
HETATM   15  C13 UNL     1      23.480   1.621  52.995  1.00  0.00     0.051 A 
HETATM   16  C14 UNL     1      23.895   2.393  51.934  1.00  0.00     0.063 A 
HETATM   17  C22 UNL     1      23.022   2.929  51.025  1.00  0.00     0.085 A 
HETATM   18  H14 UNL     1      21.452   5.750  48.444  1.00  0.00     0.316 HD
ENDROOT
BRANCH   1  19
HETATM   19  C2  UNL     1      24.713   4.695  50.330  1.00  0.00     0.292 C 
BRANCH  19  20
HETATM   20  O1  UNL     1      25.831   4.678  49.532  1.00  0.00    -0.377 OA
HETATM   21  C1  UNL     1      26.168   6.035  49.324  1.00  0.00     0.203 C 
ENDBRANCH  19  20
ENDBRANCH   1  19
BRANCH  16  22
HETATM   22  N5  UNL     1      25.301   2.606  51.857  1.00  0.00    -0.354 N 
HETATM   23  H20 UNL     1      26.154   3.151  51.641  1.00  0.00     0.166 HD
BRANCH  22  24
HETATM   24  C15 UNL     1      26.186   1.552  52.287  1.00  0.00     0.033 A 
HETATM   25  C16 UNL     1      26.212   0.177  52.040  1.00  0.00     0.029 A 
HETATM   26  C17 UNL     1      27.191  -0.690  52.543  1.00  0.00     0.003 A 
HETATM   27  C18 UNL     1      28.189  -0.159  53.330  1.00  0.00     0.007 A 
HETATM   28  C19 UNL     1      28.208   1.178  53.602  1.00  0.00    -0.060 A 
HETATM   29  C20 UNL     1      29.325   1.627  54.458  1.00  0.00     0.048 C 
HETATM   30  C21 UNL     1      27.230   1.989  53.088  1.00  0.00     0.036 A 
ENDBRANCH  22  24
ENDBRANCH  16  22
TORSDOF 4
ENDMDL
MODEL 8
REMARK VINA RESULT:      -7.6      2.010      6.688
REMARK  4 active torsions:
REMARK  status: ('A' for Active; 'I' for Inactive)
REMARK    1  A    between atoms: O1_2  and  C2_3 
REMARK    2  A    between atoms: C2_3  and  N1_4 
REMARK    3  A    between atoms: C14_19  and  N5_20 
REMARK    4  A    between atoms: N5_20  and  C15_21 
ROOT
HETATM    1  N1  UNL     1      22.967   4.118  50.040  1.00  0.00    -0.353 N 
HETATM    2  C3  UNL     1      22.477   5.473  50.348  1.00  0.00     0.152 C 
HETATM    3  C4  UNL     1      23.448   6.228  51.135  1.00  0.00    -0.009 C 
HETATM    4  C5  UNL     1      24.142   7.324  50.865  1.00  0.00     0.005 C 
HETATM    5  C6  UNL     1      23.807   7.794  49.483  1.00  0.00     0.239 C 
HETATM    6  C7  UNL     1      22.419   8.351  49.506  1.00  0.00     0.047 C 
HETATM    7  N2  UNL     1      23.920   6.626  48.644  1.00  0.00     0.092 N 
HETATM    8  C8  UNL     1      25.193   6.085  48.496  1.00  0.00     0.295 C 
HETATM    9  C9  UNL     1      25.941   5.447  49.573  1.00  0.00     0.175 C 
HETATM   10  C10 UNL     1      27.288   5.143  48.945  1.00  0.00     0.072 C 
HETATM   11  N3  UNL     1      28.337   4.911  48.462  1.00  0.00    -0.196 NA
HETATM   12  C11 UNL     1      25.478   4.180  50.148  1.00  0.00     0.082 A 
HETATM   13  N4  UNL     1      26.492   3.386  50.583  1.00  0.00    -0.262 NA
HETATM   14  C12 UNL     1      26.415   2.200  51.144  1.00  0.00     0.119 A 
HETATM   15  C13 UNL     1      25.194   1.608  51.360  1.00  0.00     0.051 A 
HETATM   16  C14 UNL     1      24.113   2.352  50.946  1.00  0.00     0.063 A 
HETATM   17  C22 UNL     1      24.245   3.585  50.365  1.00  0.00     0.085 A 
HETATM   18  H14 UNL     1      23.434   6.677  47.744  1.00  0.00     0.316 HD
ENDROOT
BRANCH   1  19
HETATM   19  C2  UNL     1      21.942   3.413  49.301  1.00  0.00     0.292 C 
BRANCH  19  20
HETATM   20  O1  UNL     1      20.706   3.370  49.900  1.00  0.00    -0.377 OA
HETATM   21  C1  UNL     1      19.940   2.475  49.121  1.00  0.00     0.203 C 
ENDBRANCH  19  20
ENDBRANCH   1  19
BRANCH  16  22
HETATM   22  N5  UNL     1      22.845   1.738  51.152  1.00  0.00    -0.354 N 
HETATM   23  H20 UNL     1      21.847   1.562  50.945  1.00  0.00     0.166 HD
BRANCH  22  24
HETATM   24  C15 UNL     1      22.698   0.800  52.237  1.00  0.00     0.033 A 
HETATM   25  C16 UNL     1      23.603   0.264  53.156  1.00  0.00     0.029 A 
HETATM   26  C17 UNL     1      23.249  -0.636  54.170  1.00  0.00     0.003 A 
HETATM   27  C18 UNL     1      21.929  -1.017  54.271  1.00  0.00     0.007 A 
HETATM   28  C19 UNL     1      21.004  -0.522  53.397  1.00  0.00    -0.060 A 
HETATM   29  C20 UNL     1      19.625  -1.007  53.604  1.00  0.00     0.048 C 
HETATM   30  C21 UNL     1      21.396   0.356  52.420  1.00  0.00     0.036 A 
ENDBRANCH  22  24
ENDBRANCH  16  22
TORSDOF 4
ENDMDL
MODEL 9
REMARK VINA RESULT:      -7.2      2.145      6.864
REMARK  4 active torsions:
REMARK  status: ('A' for Active; 'I' for Inactive)
REMARK    1  A    between atoms: O1_2  and  C2_3 
REMARK    2  A    between atoms: C2_3  and  N1_4 
REMARK    3  A    between atoms: C14_19  and  N5_20 
REMARK    4  A    between atoms: N5_20  and  C15_21 
ROOT
HETATM    1  N1  UNL     1      21.651   2.581  50.613  1.00  0.00    -0.353 N 
HETATM    2  C3  UNL     1      21.715   4.036  50.840  1.00  0.00     0.152 C 
HETATM    3  C4  UNL     1      22.338   4.351  52.123  1.00  0.00    -0.009 C 
HETATM    4  C5  UNL     1      23.461   4.986  52.425  1.00  0.00     0.005 C 
HETATM    5  C6  UNL     1      24.145   5.411  51.164  1.00  0.00     0.239 C 
HETATM    6  C7  UNL     1      23.356   6.530  50.563  1.00  0.00     0.047 C 
HETATM    7  N2  UNL     1      24.166   4.237  50.326  1.00  0.00     0.092 N 
HETATM    8  C8  UNL     1      24.944   3.171  50.764  1.00  0.00     0.295 C 
HETATM    9  C9  UNL     1      24.650   2.380  51.954  1.00  0.00     0.175 C 
HETATM   10  C10 UNL     1      25.837   1.441  52.064  1.00  0.00     0.072 C 
HETATM   11  N3  UNL     1      26.760   0.715  52.155  1.00  0.00    -0.196 NA
HETATM   12  C11 UNL     1      23.462   1.521  51.998  1.00  0.00     0.082 A 
HETATM   13  N4  UNL     1      23.634   0.406  52.756  1.00  0.00    -0.262 NA
HETATM   14  C12 UNL     1      22.771  -0.555  53.000  1.00  0.00     0.119 A 
HETATM   15  C13 UNL     1      21.507  -0.511  52.462  1.00  0.00     0.051 A 
HETATM   16  C14 UNL     1      21.254   0.592  51.679  1.00  0.00     0.063 A 
HETATM   17  C22 UNL     1      22.187   1.568  51.454  1.00  0.00     0.085 A 
HETATM   18  H14 UNL     1      24.305   4.408  49.325  1.00  0.00     0.316 HD
ENDROOT
BRANCH   1  19
HETATM   19  C2  UNL     1      20.985   2.340  49.351  1.00  0.00     0.292 C 
BRANCH  19  20
HETATM   20  O1  UNL     1      21.599   1.430  48.524  1.00  0.00    -0.377 OA
HETATM   21  C1  UNL     1      22.431   2.194  47.675  1.00  0.00     0.203 C 
ENDBRANCH  19  20
ENDBRANCH   1  19
BRANCH  16  22
HETATM   22  N5  UNL     1      19.951   0.638  51.106  1.00  0.00    -0.354 N 
HETATM   23  H20 UNL     1      19.245   0.937  50.411  1.00  0.00     0.166 HD
BRANCH  22  24
HETATM   24  C15 UNL     1      18.889  -0.103  51.740  1.00  0.00     0.033 A 
HETATM   25  C16 UNL     1      18.776  -0.717  52.990  1.00  0.00     0.029 A 
HETATM   26  C17 UNL     1      17.626  -1.382  53.435  1.00  0.00     0.003 A 
HETATM   27  C18 UNL     1      16.538  -1.435  52.592  1.00  0.00     0.007 A 
HETATM   28  C19 UNL     1      16.596  -0.852  51.360  1.00  0.00    -0.060 A 
HETATM   29  C20 UNL     1      15.369  -0.979  50.548  1.00  0.00     0.048 C 
HETATM   30  C21 UNL     1      17.743  -0.213  50.966  1.00  0.00     0.036 A 
ENDBRANCH  22  24
ENDBRANCH  16  22
TORSDOF 4
ENDMDL
