MODEL 1
REMARK VINA RESULT:      -9.7      0.000      0.000
REMARK  2 active torsions:
REMARK  status: ('A' for Active; 'I' for Inactive)
REMARK    1  A    between atoms: N1_1  and  C1_2 
REMARK    2  A    between atoms: C15_19  and  C16_20 
ROOT
HETATM    1  C1  UNL     1      25.125   0.407  53.400  1.00  0.00     0.274 C 
HETATM    2  C2  UNL     1      24.024   1.419  53.333  1.00  0.00     0.015 C 
HETATM    3  C3  UNL     1      24.118   2.442  52.498  1.00  0.00    -0.061 C 
HETATM    4  C4  UNL     1      23.678   3.764  52.939  1.00  0.00     0.157 C 
HETATM    5  N2  UNL     1      22.793   4.530  52.145  1.00  0.00    -0.354 N 
HETATM    6  C5  UNL     1      21.890   5.312  51.335  1.00  0.00     0.241 C 
HETATM    7  O1  UNL     1      20.937   4.561  51.587  1.00  0.00    -0.269 OA
HETATM    8  C6  UNL     1      21.979   6.523  50.480  1.00  0.00     0.070 C 
HETATM    9  C7  UNL     1      22.932   7.272  49.962  1.00  0.00    -0.017 C 
HETATM   10  C8  UNL     1      24.445   7.414  49.838  1.00  0.00     0.054 C 
HETATM   11  C9  UNL     1      25.037   6.082  50.235  1.00  0.00    -0.023 C 
HETATM   12  C10 UNL     1      25.833   5.305  49.513  1.00  0.00    -0.004 C 
HETATM   13  C11 UNL     1      26.629   4.078  49.304  1.00  0.00    -0.002 C 
HETATM   14  C12 UNL     1      26.762   3.025  50.089  1.00  0.00     0.005 C 
HETATM   15  C13 UNL     1      26.194   2.667  51.409  1.00  0.00     0.149 C 
HETATM   16  C14 UNL     1      24.699   2.459  51.128  1.00  0.00     0.071 C 
HETATM   17  O2  UNL     1      26.759   1.642  52.068  1.00  0.00    -0.369 OA
HETATM   18  C15 UNL     1      26.083   0.459  52.238  1.00  0.00     0.192 C 
HETATM   19  H7  UNL     1      23.258   5.427  52.028  1.00  0.00     0.163 HD
ENDROOT
BRANCH  18  20
HETATM   20  C16 UNL     1      27.158  -0.551  52.581  1.00  0.00    -0.027 A 
HETATM   21  C17 UNL     1      27.077  -1.920  52.478  1.00  0.00     0.010 A 
HETATM   22  C18 UNL     1      28.149  -2.706  52.840  1.00  0.00     0.001 A 
HETATM   23  C19 UNL     1      29.334  -2.183  53.314  1.00  0.00     0.000 A 
HETATM   24  C20 UNL     1      29.427  -0.811  53.422  1.00  0.00     0.001 A 
HETATM   25  C21 UNL     1      28.344  -0.038  53.056  1.00  0.00     0.010 A 
ENDBRANCH  18  20
BRANCH   1  26
HETATM   26  N1  UNL     1      25.938   0.635  54.600  1.00  0.00     0.089 N 
HETATM   27  H1  UNL     1      25.895  -0.184  55.243  1.00  0.00     0.313 HD
HETATM   28  H2  UNL     1      26.896   0.879  54.281  1.00  0.00     0.313 HD
ENDBRANCH   1  26
TORSDOF 2
ENDMDL
MODEL 2
REMARK VINA RESULT:      -9.6      2.686      4.641
REMARK  2 active torsions:
REMARK  status: ('A' for Active; 'I' for Inactive)
REMARK    1  A    between atoms: N1_1  and  C1_2 
REMARK    2  A    between atoms: C15_19  and  C16_20 
ROOT
HETATM    1  C1  UNL     1      26.138   2.219  52.081  1.00  0.00     0.274 C 
HETATM    2  C2  UNL     1      24.894   2.901  51.603  1.00  0.00     0.015 C 
HETATM    3  C3  UNL     1      23.710   2.366  51.856  1.00  0.00    -0.061 C 
HETATM    4  C4  UNL     1      22.681   2.391  50.819  1.00  0.00     0.157 C 
HETATM    5  N2  UNL     1      21.379   2.862  51.107  1.00  0.00    -0.354 N 
HETATM    6  C5  UNL     1      20.050   3.343  51.401  1.00  0.00     0.241 C 
HETATM    7  O1  UNL     1      20.442   4.516  51.486  1.00  0.00    -0.269 OA
HETATM    8  C6  UNL     1      18.702   2.747  51.582  1.00  0.00     0.070 C 
HETATM    9  C7  UNL     1      18.190   1.542  51.732  1.00  0.00    -0.017 C 
HETATM   10  C8  UNL     1      18.551   0.066  51.851  1.00  0.00     0.054 C 
HETATM   11  C9  UNL     1      20.028   0.008  52.166  1.00  0.00    -0.023 C 
HETATM   12  C10 UNL     1      20.610  -0.567  53.210  1.00  0.00    -0.004 C 
HETATM   13  C11 UNL     1      21.794  -0.926  54.017  1.00  0.00    -0.002 C 
HETATM   14  C12 UNL     1      23.060  -0.600  53.833  1.00  0.00     0.005 C 
HETATM   15  C13 UNL     1      23.759   0.215  52.814  1.00  0.00     0.149 C 
HETATM   16  C14 UNL     1      23.270   1.647  53.082  1.00  0.00     0.071 C 
HETATM   17  O2  UNL     1      25.095   0.113  52.751  1.00  0.00    -0.369 OA
HETATM   18  C15 UNL     1      25.899   1.162  53.128  1.00  0.00     0.192 C 
HETATM   19  H7  UNL     1      20.759   2.113  50.809  1.00  0.00     0.163 HD
ENDROOT
BRANCH  18  20
HETATM   20  C16 UNL     1      27.260   0.538  53.361  1.00  0.00    -0.027 A 
HETATM   21  C17 UNL     1      28.396   1.165  53.816  1.00  0.00     0.010 A 
HETATM   22  C18 UNL     1      29.565   0.454  53.968  1.00  0.00     0.001 A 
HETATM   23  C19 UNL     1      29.665  -0.892  53.683  1.00  0.00     0.000 A 
HETATM   24  C20 UNL     1      28.532  -1.532  53.226  1.00  0.00     0.001 A 
HETATM   25  C21 UNL     1      27.369  -0.805  53.079  1.00  0.00     0.010 A 
ENDBRANCH  18  20
BRANCH   1  26
HETATM   26  N1  UNL     1      26.792   1.534  50.961  1.00  0.00     0.089 N 
HETATM   27  H1  UNL     1      27.801   1.791  50.902  1.00  0.00     0.313 HD
HETATM   28  H2  UNL     1      26.615   0.517  51.077  1.00  0.00     0.313 HD
ENDBRANCH   1  26
TORSDOF 2
ENDMDL
MODEL 3
REMARK VINA RESULT:      -9.4      1.821      2.443
REMARK  2 active torsions:
REMARK  status: ('A' for Active; 'I' for Inactive)
REMARK    1  A    between atoms: N1_1  and  C1_2 
REMARK    2  A    between atoms: C15_19  and  C16_20 
ROOT
HETATM    1  C1  UNL     1      25.108  -0.866  53.561  1.00  0.00     0.274 C 
HETATM    2  C2  UNL     1      23.651  -0.538  53.463  1.00  0.00     0.015 C 
HETATM    3  C3  UNL     1      23.260   0.548  52.814  1.00  0.00    -0.061 C 
HETATM    4  C4  UNL     1      22.176   1.356  53.366  1.00  0.00     0.157 C 
HETATM    5  N2  UNL     1      21.077   1.734  52.559  1.00  0.00    -0.354 N 
HETATM    6  C5  UNL     1      19.956   2.121  51.736  1.00  0.00     0.241 C 
HETATM    7  O1  UNL     1      19.510   0.964  51.717  1.00  0.00    -0.269 OA
HETATM    8  C6  UNL     1      19.467   3.367  51.094  1.00  0.00     0.070 C 
HETATM    9  C7  UNL     1      19.931   4.576  50.853  1.00  0.00    -0.017 C 
HETATM   10  C8  UNL     1      21.159   5.467  51.000  1.00  0.00     0.054 C 
HETATM   11  C9  UNL     1      22.324   4.549  51.289  1.00  0.00    -0.023 C 
HETATM   12  C10 UNL     1      23.453   4.435  50.601  1.00  0.00    -0.004 C 
HETATM   13  C11 UNL     1      24.778   3.833  50.347  1.00  0.00    -0.002 C 
HETATM   14  C12 UNL     1      25.381   2.844  50.981  1.00  0.00     0.005 C 
HETATM   15  C13 UNL     1      24.992   1.986  52.123  1.00  0.00     0.149 C 
HETATM   16  C14 UNL     1      23.839   1.134  51.574  1.00  0.00     0.071 C 
HETATM   17  O2  UNL     1      25.958   1.260  52.708  1.00  0.00    -0.369 OA
HETATM   18  C15 UNL     1      25.977  -0.108  52.591  1.00  0.00     0.192 C 
HETATM   19  H7  UNL     1      21.022   2.745  52.652  1.00  0.00     0.163 HD
ENDROOT
BRANCH  18  20
HETATM   20  C16 UNL     1      27.393  -0.505  52.953  1.00  0.00    -0.027 A 
HETATM   21  C17 UNL     1      27.941  -1.766  52.911  1.00  0.00     0.010 A 
HETATM   22  C18 UNL     1      29.252  -1.963  53.282  1.00  0.00     0.001 A 
HETATM   23  C19 UNL     1      30.073  -0.938  53.707  1.00  0.00     0.000 A 
HETATM   24  C20 UNL     1      29.534   0.330  53.754  1.00  0.00     0.001 A 
HETATM   25  C21 UNL     1      28.219   0.511  53.378  1.00  0.00     0.010 A 
ENDBRANCH  18  20
BRANCH   1  26
HETATM   26  N1  UNL     1      25.607  -0.524  54.897  1.00  0.00     0.089 N 
HETATM   27  H1  UNL     1      25.268  -1.206  55.609  1.00  0.00     0.313 HD
HETATM   28  H2  UNL     1      26.641  -0.453  54.830  1.00  0.00     0.313 HD
ENDBRANCH   1  26
TORSDOF 2
ENDMDL
MODEL 4
REMARK VINA RESULT:      -8.9      1.736      2.071
REMARK  2 active torsions:
REMARK  status: ('A' for Active; 'I' for Inactive)
REMARK    1  A    between atoms: N1_1  and  C1_2 
REMARK    2  A    between atoms: C15_19  and  C16_20 
ROOT
HETATM    1  C1  UNL     1      24.558   1.394  51.929  1.00  0.00     0.274 C 
HETATM    2  C2  UNL     1      23.470   2.225  51.322  1.00  0.00     0.015 C 
HETATM    3  C3  UNL     1      23.779   3.244  50.534  1.00  0.00    -0.061 C 
HETATM    4  C4  UNL     1      23.018   4.486  50.645  1.00  0.00     0.157 C 
HETATM    5  N2  UNL     1      22.471   5.101  49.495  1.00  0.00    -0.354 N 
HETATM    6  C5  UNL     1      21.913   5.728  48.321  1.00  0.00     0.241 C 
HETATM    7  O1  UNL     1      21.055   4.842  48.197  1.00  0.00    -0.269 OA
HETATM    8  C6  UNL     1      22.201   6.932  47.500  1.00  0.00     0.070 C 
HETATM    9  C7  UNL     1      23.174   7.812  47.385  1.00  0.00    -0.017 C 
HETATM   10  C8  UNL     1      24.557   8.184  47.910  1.00  0.00     0.054 C 
HETATM   11  C9  UNL     1      25.091   6.962  48.619  1.00  0.00    -0.023 C 
HETATM   12  C10 UNL     1      26.218   6.309  48.366  1.00  0.00    -0.004 C 
HETATM   13  C11 UNL     1      27.182   5.216  48.609  1.00  0.00    -0.002 C 
HETATM   14  C12 UNL     1      27.101   4.203  49.451  1.00  0.00     0.005 C 
HETATM   15  C13 UNL     1      26.071   3.774  50.424  1.00  0.00     0.149 C 
HETATM   16  C14 UNL     1      24.888   3.337  49.547  1.00  0.00     0.071 C 
HETATM   17  O2  UNL     1      26.425   2.853  51.334  1.00  0.00    -0.369 OA
HETATM   18  C15 UNL     1      25.908   1.581  51.287  1.00  0.00     0.192 C 
HETATM   19  H7  UNL     1      22.816   6.057  49.522  1.00  0.00     0.163 HD
ENDROOT
BRANCH  18  20
HETATM   20  C16 UNL     1      26.853   0.751  52.130  1.00  0.00    -0.027 A 
HETATM   21  C17 UNL     1      26.825  -0.612  52.313  1.00  0.00     0.010 A 
HETATM   22  C18 UNL     1      27.758  -1.220  53.124  1.00  0.00     0.001 A 
HETATM   23  C19 UNL     1      28.747  -0.520  53.783  1.00  0.00     0.000 A 
HETATM   24  C20 UNL     1      28.784   0.847  53.608  1.00  0.00     0.001 A 
HETATM   25  C21 UNL     1      27.843   1.441  52.792  1.00  0.00     0.010 A 
ENDBRANCH  18  20
BRANCH   1  26
HETATM   26  N1  UNL     1      24.731   1.754  53.340  1.00  0.00     0.089 N 
HETATM   27  H1  UNL     1      24.717   0.907  53.947  1.00  0.00     0.313 HD
HETATM   28  H2  UNL     1      25.601   2.317  53.409  1.00  0.00     0.313 HD
ENDBRANCH   1  26
TORSDOF 2
ENDMDL
MODEL 5
REMARK VINA RESULT:      -8.7      2.986      4.446
REMARK  2 active torsions:
REMARK  status: ('A' for Active; 'I' for Inactive)
REMARK    1  A    between atoms: N1_1  and  C1_2 
REMARK    2  A    between atoms: C15_19  and  C16_20 
ROOT
HETATM    1  C1  UNL     1      21.839   3.053  50.866  1.00  0.00     0.274 C 
HETATM    2  C2  UNL     1      21.789   4.273  50.000  1.00  0.00     0.015 C 
HETATM    3  C3  UNL     1      22.905   4.759  49.479  1.00  0.00    -0.061 C 
HETATM    4  C4  UNL     1      23.100   6.206  49.438  1.00  0.00     0.157 C 
HETATM    5  N2  UNL     1      23.481   6.847  48.237  1.00  0.00    -0.354 N 
HETATM    6  C5  UNL     1      23.871   7.502  47.011  1.00  0.00     0.241 C 
HETATM    7  O1  UNL     1      22.755   7.319  46.502  1.00  0.00    -0.269 OA
HETATM    8  C6  UNL     1      25.098   8.139  46.469  1.00  0.00     0.070 C 
HETATM    9  C7  UNL     1      26.373   8.212  46.795  1.00  0.00    -0.017 C 
HETATM   10  C8  UNL     1      27.406   7.734  47.810  1.00  0.00     0.054 C 
HETATM   11  C9  UNL     1      26.787   6.563  48.535  1.00  0.00    -0.023 C 
HETATM   12  C10 UNL     1      27.264   5.329  48.634  1.00  0.00    -0.004 C 
HETATM   13  C11 UNL     1      27.187   3.927  49.091  1.00  0.00    -0.002 C 
HETATM   14  C12 UNL     1      26.217   3.314  49.744  1.00  0.00     0.005 C 
HETATM   15  C13 UNL     1      24.894   3.754  50.241  1.00  0.00     0.149 C 
HETATM   16  C14 UNL     1      24.080   4.007  48.963  1.00  0.00     0.071 C 
HETATM   17  O2  UNL     1      24.267   2.957  51.121  1.00  0.00    -0.369 OA
HETATM   18  C15 UNL     1      23.127   2.277  50.766  1.00  0.00     0.192 C 
HETATM   19  H7  UNL     1      24.310   7.384  48.480  1.00  0.00     0.163 HD
ENDROOT
BRANCH  18  20
HETATM   20  C16 UNL     1      22.997   1.180  51.801  1.00  0.00    -0.027 A 
HETATM   21  C17 UNL     1      21.909   0.368  52.020  1.00  0.00     0.010 A 
HETATM   22  C18 UNL     1      21.945  -0.585  53.014  1.00  0.00     0.001 A 
HETATM   23  C19 UNL     1      23.044  -0.778  53.826  1.00  0.00     0.000 A 
HETATM   24  C20 UNL     1      24.141   0.031  53.616  1.00  0.00     0.001 A 
HETATM   25  C21 UNL     1      24.088   0.981  52.616  1.00  0.00     0.010 A 
ENDBRANCH  18  20
BRANCH   1  26
HETATM   26  N1  UNL     1      21.710   3.436  52.276  1.00  0.00     0.089 N 
HETATM   27  H1  UNL     1      22.478   3.025  52.848  1.00  0.00     0.313 HD
HETATM   28  H2  UNL     1      21.659   4.473  52.309  1.00  0.00     0.313 HD
ENDBRANCH   1  26
TORSDOF 2
ENDMDL
MODEL 6
REMARK VINA RESULT:      -8.7      4.017      5.942
REMARK  2 active torsions:
REMARK  status: ('A' for Active; 'I' for Inactive)
REMARK    1  A    between atoms: N1_1  and  C1_2 
REMARK    2  A    between atoms: C15_19  and  C16_20 
ROOT
HETATM    1  C1  UNL     1      23.734   2.613  52.169  1.00  0.00     0.274 C 
HETATM    2  C2  UNL     1      22.389   3.128  51.760  1.00  0.00     0.015 C 
HETATM    3  C3  UNL     1      21.308   2.394  51.973  1.00  0.00    -0.061 C 
HETATM    4  C4  UNL     1      20.268   2.344  50.949  1.00  0.00     0.157 C 
HETATM    5  N2  UNL     1      18.914   2.578  51.285  1.00  0.00    -0.354 N 
HETATM    6  C5  UNL     1      17.532   2.816  51.628  1.00  0.00     0.241 C 
HETATM    7  O1  UNL     1      17.737   4.025  51.812  1.00  0.00    -0.269 OA
HETATM    8  C6  UNL     1      16.298   2.002  51.766  1.00  0.00     0.070 C 
HETATM    9  C7  UNL     1      15.984   0.723  51.814  1.00  0.00    -0.017 C 
HETATM   10  C8  UNL     1      16.574  -0.682  51.803  1.00  0.00     0.054 C 
HETATM   11  C9  UNL     1      18.047  -0.533  52.101  1.00  0.00    -0.023 C 
HETATM   12  C10 UNL     1      18.733  -1.095  53.089  1.00  0.00    -0.004 C 
HETATM   13  C11 UNL     1      19.974  -1.330  53.854  1.00  0.00    -0.002 C 
HETATM   14  C12 UNL     1      21.170  -0.793  53.691  1.00  0.00     0.005 C 
HETATM   15  C13 UNL     1      21.712   0.205  52.742  1.00  0.00     0.149 C 
HETATM   16  C14 UNL     1      21.011   1.513  53.136  1.00  0.00     0.071 C 
HETATM   17  O2  UNL     1      23.047   0.320  52.661  1.00  0.00    -0.369 OA
HETATM   18  C15 UNL     1      23.684   1.447  53.122  1.00  0.00     0.192 C 
HETATM   19  H7  UNL     1      18.413   1.768  50.927  1.00  0.00     0.163 HD
ENDROOT
BRANCH  18  20
HETATM   20  C16 UNL     1      25.129   1.028  53.292  1.00  0.00    -0.027 A 
HETATM   21  C17 UNL     1      26.170   1.799  53.753  1.00  0.00     0.010 A 
HETATM   22  C18 UNL     1      27.438   1.268  53.842  1.00  0.00     0.001 A 
HETATM   23  C19 UNL     1      27.732  -0.032  53.485  1.00  0.00     0.000 A 
HETATM   24  C20 UNL     1      26.696  -0.814  53.021  1.00  0.00     0.001 A 
HETATM   25  C21 UNL     1      25.432  -0.268  52.937  1.00  0.00     0.010 A 
ENDBRANCH  18  20
BRANCH   1  26
HETATM   26  N1  UNL     1      24.464   2.137  50.990  1.00  0.00     0.089 N 
HETATM   27  H1  UNL     1      23.911   1.424  50.469  1.00  0.00     0.313 HD
HETATM   28  H2  UNL     1      24.723   2.972  50.430  1.00  0.00     0.313 HD
ENDBRANCH   1  26
TORSDOF 2
ENDMDL
MODEL 7
REMARK VINA RESULT:      -8.5      2.256      3.505
REMARK  2 active torsions:
REMARK  status: ('A' for Active; 'I' for Inactive)
REMARK    1  A    between atoms: N1_1  and  C1_2 
REMARK    2  A    between atoms: C15_19  and  C16_20 
ROOT
HETATM    1  C1  UNL     1      23.759   3.421  52.083  1.00  0.00     0.274 C 
HETATM    2  C2  UNL     1      23.378   4.808  51.669  1.00  0.00     0.015 C 
HETATM    3  C3  UNL     1      24.149   5.482  50.830  1.00  0.00    -0.061 C 
HETATM    4  C4  UNL     1      24.378   6.906  51.061  1.00  0.00     0.157 C 
HETATM    5  N2  UNL     1      24.192   7.844  50.019  1.00  0.00    -0.354 N 
HETATM    6  C5  UNL     1      24.002   8.801  48.955  1.00  0.00     0.241 C 
HETATM    7  O1  UNL     1      22.770   8.669  48.992  1.00  0.00    -0.269 OA
HETATM    8  C6  UNL     1      24.870   9.634  48.084  1.00  0.00     0.070 C 
HETATM    9  C7  UNL     1      26.153   9.715  47.792  1.00  0.00    -0.017 C 
HETATM   10  C8  UNL     1      27.512   9.079  48.063  1.00  0.00     0.054 C 
HETATM   11  C9  UNL     1      27.239   7.726  48.679  1.00  0.00    -0.023 C 
HETATM   12  C10 UNL     1      27.643   6.542  48.239  1.00  0.00    -0.004 C 
HETATM   13  C11 UNL     1      27.713   5.068  48.319  1.00  0.00    -0.002 C 
HETATM   14  C12 UNL     1      27.125   4.249  49.172  1.00  0.00     0.005 C 
HETATM   15  C13 UNL     1      26.209   4.463  50.314  1.00  0.00     0.149 C 
HETATM   16  C14 UNL     1      24.910   4.961  49.662  1.00  0.00     0.071 C 
HETATM   17  O2  UNL     1      26.020   3.436  51.157  1.00  0.00    -0.369 OA
HETATM   18  C15 UNL     1      24.812   2.785  51.213  1.00  0.00     0.192 C 
HETATM   19  H7  UNL     1      25.066   8.362  49.976  1.00  0.00     0.163 HD
ENDROOT
BRANCH  18  20
HETATM   20  C16 UNL     1      25.119   1.463  51.885  1.00  0.00    -0.027 A 
HETATM   21  C17 UNL     1      24.246   0.662  52.584  1.00  0.00     0.010 A 
HETATM   22  C18 UNL     1      24.686  -0.515  53.147  1.00  0.00     0.001 A 
HETATM   23  C19 UNL     1      25.991  -0.951  53.046  1.00  0.00     0.000 A 
HETATM   24  C20 UNL     1      26.876  -0.156  52.348  1.00  0.00     0.001 A 
HETATM   25  C21 UNL     1      26.419   1.020  51.791  1.00  0.00     0.010 A 
ENDBRANCH  18  20
BRANCH   1  26
HETATM   26  N1  UNL     1      24.319   3.442  53.439  1.00  0.00     0.089 N 
HETATM   27  H1  UNL     1      24.834   4.330  53.618  1.00  0.00     0.313 HD
HETATM   28  H2  UNL     1      23.537   3.259  54.098  1.00  0.00     0.313 HD
ENDBRANCH   1  26
TORSDOF 2
ENDMDL
MODEL 8
REMARK VINA RESULT:      -8.2      4.582      7.642
REMARK  2 active torsions:
REMARK  status: ('A' for Active; 'I' for Inactive)
REMARK    1  A    between atoms: N1_1  and  C1_2 
REMARK    2  A    between atoms: C15_19  and  C16_20 
ROOT
HETATM    1  C1  UNL     1      19.334   1.718  50.166  1.00  0.00     0.274 C 
HETATM    2  C2  UNL     1      20.608   2.459  49.902  1.00  0.00     0.015 C 
HETATM    3  C3  UNL     1      21.715   2.119  50.545  1.00  0.00    -0.061 C 
HETATM    4  C4  UNL     1      22.610   3.169  51.025  1.00  0.00     0.157 C 
HETATM    5  N2  UNL     1      23.995   3.121  50.738  1.00  0.00    -0.354 N 
HETATM    6  C5  UNL     1      25.407   3.072  50.446  1.00  0.00     0.241 C 
HETATM    7  O1  UNL     1      25.218   3.339  49.250  1.00  0.00    -0.269 OA
HETATM    8  C6  UNL     1      26.657   2.791  51.198  1.00  0.00     0.070 C 
HETATM    9  C7  UNL     1      26.985   2.298  52.375  1.00  0.00    -0.017 C 
HETATM   10  C8  UNL     1      26.412   1.697  53.654  1.00  0.00     0.054 C 
HETATM   11  C9  UNL     1      24.990   1.295  53.340  1.00  0.00    -0.023 C 
HETATM   12  C10 UNL     1      24.446   0.091  53.456  1.00  0.00    -0.004 C 
HETATM   13  C11 UNL     1      23.319  -0.856  53.330  1.00  0.00    -0.002 C 
HETATM   14  C12 UNL     1      22.108  -0.653  52.846  1.00  0.00     0.005 C 
HETATM   15  C13 UNL     1      21.436   0.529  52.260  1.00  0.00     0.149 C 
HETATM   16  C14 UNL     1      22.171   0.756  50.931  1.00  0.00     0.071 C 
HETATM   17  O2  UNL     1      20.101   0.479  52.127  1.00  0.00    -0.369 OA
HETATM   18  C15 UNL     1      19.520   0.407  50.885  1.00  0.00     0.192 C 
HETATM   19  H7  UNL     1      24.451   3.203  51.643  1.00  0.00     0.163 HD
ENDROOT
BRANCH  18  20
HETATM   20  C16 UNL     1      18.114  -0.091  51.146  1.00  0.00    -0.027 A 
HETATM   21  C17 UNL     1      17.075  -0.159  50.248  1.00  0.00     0.010 A 
HETATM   22  C18 UNL     1      15.845  -0.633  50.647  1.00  0.00     0.001 A 
HETATM   23  C19 UNL     1      15.588  -1.055  51.935  1.00  0.00     0.000 A 
HETATM   24  C20 UNL     1      16.622  -0.990  52.845  1.00  0.00     0.001 A 
HETATM   25  C21 UNL     1      17.848  -0.513  52.429  1.00  0.00     0.010 A 
ENDBRANCH  18  20
BRANCH   1  26
HETATM   26  N1  UNL     1      18.458   2.524  51.023  1.00  0.00     0.089 N 
HETATM   27  H1  UNL     1      18.973   3.333  51.430  1.00  0.00     0.313 HD
HETATM   28  H2  UNL     1      17.629   2.786  50.455  1.00  0.00     0.313 HD
ENDBRANCH   1  26
TORSDOF 2
ENDMDL
MODEL 9
REMARK VINA RESULT:      -8.1      6.802      8.395
REMARK  2 active torsions:
REMARK  status: ('A' for Active; 'I' for Inactive)
REMARK    1  A    between atoms: N1_1  and  C1_2 
REMARK    2  A    between atoms: C15_19  and  C16_20 
ROOT
HETATM    1  C1  UNL     1      32.439   7.652  47.829  1.00  0.00     0.274 C 
HETATM    2  C2  UNL     1      31.554   8.859  47.854  1.00  0.00     0.015 C 
HETATM    3  C3  UNL     1      30.242   8.713  47.960  1.00  0.00    -0.061 C 
HETATM    4  C4  UNL     1      29.364   9.570  47.167  1.00  0.00     0.157 C 
HETATM    5  N2  UNL     1      28.296  10.268  47.778  1.00  0.00    -0.354 N 
HETATM    6  C5  UNL     1      27.206  10.980  48.401  1.00  0.00     0.241 C 
HETATM    7  O1  UNL     1      27.980  11.763  48.971  1.00  0.00    -0.269 OA
HETATM    8  C6  UNL     1      25.725  10.874  48.433  1.00  0.00     0.070 C 
HETATM    9  C7  UNL     1      24.811   9.998  48.067  1.00  0.00    -0.017 C 
HETATM   10  C8  UNL     1      24.617   8.615  47.457  1.00  0.00     0.054 C 
HETATM   11  C9  UNL     1      25.952   7.913  47.548  1.00  0.00    -0.023 C 
HETATM   12  C10 UNL     1      26.218   6.758  48.144  1.00  0.00    -0.004 C 
HETATM   13  C11 UNL     1      27.139   5.682  48.564  1.00  0.00    -0.002 C 
HETATM   14  C12 UNL     1      28.448   5.597  48.414  1.00  0.00     0.005 C 
HETATM   15  C13 UNL     1      29.460   6.496  47.814  1.00  0.00     0.149 C 
HETATM   16  C14 UNL     1      29.492   7.706  48.759  1.00  0.00     0.071 C 
HETATM   17  O2  UNL     1      30.675   5.983  47.567  1.00  0.00    -0.369 OA
HETATM   18  C15 UNL     1      31.769   6.385  48.293  1.00  0.00     0.192 C 
HETATM   19  H7  UNL     1      27.474  10.010  47.238  1.00  0.00     0.163 HD
ENDROOT
BRANCH  18  20
HETATM   20  C16 UNL     1      32.801   5.300  48.067  1.00  0.00    -0.027 A 
HETATM   21  C17 UNL     1      34.134   5.337  48.400  1.00  0.00     0.010 A 
HETATM   22  C18 UNL     1      34.949   4.262  48.118  1.00  0.00     0.001 A 
HETATM   23  C19 UNL     1      34.489   3.116  47.502  1.00  0.00     0.000 A 
HETATM   24  C20 UNL     1      33.153   3.068  47.162  1.00  0.00     0.001 A 
HETATM   25  C21 UNL     1      32.351   4.153  47.451  1.00  0.00     0.010 A 
ENDBRANCH  18  20
BRANCH   1  26
HETATM   26  N1  UNL     1      32.885   7.390  46.457  1.00  0.00     0.089 N 
HETATM   27  H1  UNL     1      32.443   6.526  46.077  1.00  0.00     0.313 HD
HETATM   28  H2  UNL     1      32.696   8.248  45.902  1.00  0.00     0.313 HD
ENDBRANCH   1  26
TORSDOF 2
ENDMDL
