MODEL 1
REMARK VINA RESULT:      -9.2      0.000      0.000
REMARK  3 active torsions:
REMARK  status: ('A' for Active; 'I' for Inactive)
REMARK    1  A    between atoms: C4_6  and  N3_7 
REMARK    2  A    between atoms: C12_16  and  N4_17 
REMARK       I    between atoms: N4_17  and  C13_18 
REMARK    3  A    between atoms: C13_18  and  C14_20 
ROOT
HETATM    1  N1  UNL     1      20.033   0.219  52.047  1.00  0.00    -0.191 NA
HETATM    2  C1  UNL     1      21.180   0.317  52.255  1.00  0.00     0.102 C 
HETATM    3  C2  UNL     1      22.568   0.429  52.531  1.00  0.00     0.073 A 
HETATM    4  C3  UNL     1      23.248  -0.259  53.507  1.00  0.00     0.142 A 
HETATM    5  N2  UNL     1      24.588  -0.087  53.703  1.00  0.00    -0.240 NA
HETATM    6  C4  UNL     1      25.268   0.780  52.919  1.00  0.00     0.144 A 
HETATM    7  C10 UNL     1      24.635   1.493  51.928  1.00  0.00     0.024 A 
HETATM    8  C11 UNL     1      25.391   2.360  51.181  1.00  0.00     0.045 A 
HETATM    9  C12 UNL     1      24.819   3.117  50.176  1.00  0.00     0.035 A 
HETATM   10  C18 UNL     1      23.472   2.933  49.993  1.00  0.00     0.030 A 
HETATM   11  C19 UNL     1      22.704   2.054  50.749  1.00  0.00     0.016 A 
HETATM   12  C20 UNL     1      23.284   1.307  51.747  1.00  0.00     0.000 A 
ENDROOT
BRANCH   6  13
HETATM   13  N3  UNL     1      26.649   0.868  53.238  1.00  0.00    -0.316 N 
HETATM   14  C5  UNL     1      27.417   1.993  53.638  1.00  0.00     0.094 A 
HETATM   15  C6  UNL     1      28.702   1.904  53.923  1.00  0.00    -0.004 A 
HETATM   16  C7  UNL     1      29.456   0.633  53.852  1.00  0.00     0.076 A 
HETATM   17  C8  UNL     1      28.619  -0.525  53.429  1.00  0.00     0.008 A 
HETATM   18 BR1  UNL     1      29.551  -2.196  53.329  1.00  0.00    -0.054 Br
HETATM   19  C9  UNL     1      27.310  -0.396  53.146  1.00  0.00     0.113 A 
ENDBRANCH   6  13
BRANCH   9  20
HETATM   20  N4  UNL     1      25.633   3.989  49.446  1.00  0.00    -0.323 N 
HETATM   21  C13 UNL     1      25.816   5.390  49.524  1.00  0.00     0.258 C 
HETATM   22  O1  UNL     1      25.154   6.001  50.384  1.00  0.00    -0.267 OA
HETATM   23  H8  UNL     1      26.244   3.577  48.681  1.00  0.00     0.169 HD
BRANCH  21  24
HETATM   24  C14 UNL     1      26.723   6.119  48.656  1.00  0.00     0.056 A 
HETATM   25  C15 UNL     1      26.464   7.294  47.937  1.00  0.00     0.043 A 
HETATM   26  C16 UNL     1      27.658   7.562  47.269  1.00  0.00     0.142 A 
HETATM   27  O2  UNL     1      28.549   6.646  47.551  1.00  0.00    -0.334 OA
HETATM   28  C17 UNL     1      28.028   5.769  48.374  1.00  0.00     0.158 A 
ENDBRANCH  21  24
ENDBRANCH   9  20
TORSDOF 3
ENDMDL
MODEL 2
REMARK VINA RESULT:      -9.0      4.235      8.068
REMARK  3 active torsions:
REMARK  status: ('A' for Active; 'I' for Inactive)
REMARK    1  A    between atoms: C4_6  and  N3_7 
REMARK    2  A    between atoms: C12_16  and  N4_17 
REMARK       I    between atoms: N4_17  and  C13_18 
REMARK    3  A    between atoms: C13_18  and  C14_20 
ROOT
HETATM    1  N1  UNL     1      28.234  -0.322  54.840  1.00  0.00    -0.191 NA
HETATM    2  C1  UNL     1      27.591   0.293  54.080  1.00  0.00     0.102 C 
HETATM    3  C2  UNL     1      26.826   1.059  53.162  1.00  0.00     0.073 A 
HETATM    4  C3  UNL     1      27.293   2.116  52.418  1.00  0.00     0.142 A 
HETATM    5  N2  UNL     1      26.482   2.798  51.557  1.00  0.00    -0.240 NA
HETATM    6  C4  UNL     1      25.188   2.430  51.429  1.00  0.00     0.144 A 
HETATM    7  C10 UNL     1      24.671   1.378  52.152  1.00  0.00     0.024 A 
HETATM    8  C11 UNL     1      23.346   1.071  51.975  1.00  0.00     0.045 A 
HETATM    9  C12 UNL     1      22.758   0.035  52.675  1.00  0.00     0.035 A 
HETATM   10  C18 UNL     1      23.585  -0.640  53.536  1.00  0.00     0.030 A 
HETATM   11  C19 UNL     1      24.929  -0.329  53.717  1.00  0.00     0.016 A 
HETATM   12  C20 UNL     1      25.504   0.704  53.014  1.00  0.00     0.000 A 
ENDROOT
BRANCH   6  13
HETATM   13  N3  UNL     1      24.459   3.229  50.510  1.00  0.00    -0.316 N 
HETATM   14  C5  UNL     1      23.815   2.860  49.299  1.00  0.00     0.094 A 
HETATM   15  C6  UNL     1      23.152   3.729  48.560  1.00  0.00    -0.004 A 
HETATM   16  C7  UNL     1      23.019   5.158  48.923  1.00  0.00     0.076 A 
HETATM   17  C8  UNL     1      23.705   5.508  50.198  1.00  0.00     0.008 A 
HETATM   18 BR1  UNL     1      23.554   7.348  50.713  1.00  0.00    -0.054 Br
HETATM   19  C9  UNL     1      24.373   4.594  50.925  1.00  0.00     0.113 A 
ENDBRANCH   6  13
BRANCH   9  20
HETATM   20  N4  UNL     1      21.402  -0.236  52.460  1.00  0.00    -0.323 N 
HETATM   21  C13 UNL     1      20.275  -0.113  53.306  1.00  0.00     0.258 C 
HETATM   22  O1  UNL     1      20.476   0.310  54.461  1.00  0.00    -0.267 OA
HETATM   23  H8  UNL     1      21.113  -0.604  51.508  1.00  0.00     0.169 HD
BRANCH  21  24
HETATM   24  C14 UNL     1      18.929  -0.457  52.885  1.00  0.00     0.056 A 
HETATM   25  C15 UNL     1      18.098  -1.461  53.402  1.00  0.00     0.043 A 
HETATM   26  C16 UNL     1      16.931  -1.370  52.645  1.00  0.00     0.142 A 
HETATM   27  O2  UNL     1      17.041  -0.412  51.761  1.00  0.00    -0.334 OA
HETATM   28  C17 UNL     1      18.218   0.155  51.874  1.00  0.00     0.158 A 
ENDBRANCH  21  24
ENDBRANCH   9  20
TORSDOF 3
ENDMDL
MODEL 3
REMARK VINA RESULT:      -9.0      3.990      6.778
REMARK  3 active torsions:
REMARK  status: ('A' for Active; 'I' for Inactive)
REMARK    1  A    between atoms: C4_6  and  N3_7 
REMARK    2  A    between atoms: C12_16  and  N4_17 
REMARK       I    between atoms: N4_17  and  C13_18 
REMARK    3  A    between atoms: C13_18  and  C14_20 
ROOT
HETATM    1  N1  UNL     1      18.204  -1.888  53.832  1.00  0.00    -0.191 NA
HETATM    2  C1  UNL     1      18.863  -1.100  53.272  1.00  0.00     0.102 C 
HETATM    3  C2  UNL     1      19.647  -0.144  52.574  1.00  0.00     0.073 A 
HETATM    4  C3  UNL     1      19.178   0.741  51.634  1.00  0.00     0.142 A 
HETATM    5  N2  UNL     1      20.007   1.628  51.009  1.00  0.00    -0.240 NA
HETATM    6  C4  UNL     1      21.323   1.640  51.321  1.00  0.00     0.144 A 
HETATM    7  C10 UNL     1      21.842   0.774  52.256  1.00  0.00     0.024 A 
HETATM    8  C11 UNL     1      23.188   0.841  52.511  1.00  0.00     0.045 A 
HETATM    9  C12 UNL     1      23.780  -0.005  53.429  1.00  0.00     0.035 A 
HETATM   10  C18 UNL     1      22.933  -0.890  54.047  1.00  0.00     0.030 A 
HETATM   11  C19 UNL     1      21.568  -0.959  53.790  1.00  0.00     0.016 A 
HETATM   12  C20 UNL     1      20.991  -0.112  52.873  1.00  0.00     0.000 A 
ENDROOT
BRANCH   6  13
HETATM   13  N3  UNL     1      22.069   2.603  50.591  1.00  0.00    -0.316 N 
HETATM   14  C5  UNL     1      23.037   2.415  49.570  1.00  0.00     0.094 A 
HETATM   15  C6  UNL     1      23.632   3.427  48.967  1.00  0.00    -0.004 A 
HETATM   16  C7  UNL     1      23.347   4.840  49.299  1.00  0.00     0.076 A 
HETATM   17  C8  UNL     1      22.328   4.999  50.373  1.00  0.00     0.008 A 
HETATM   18 BR1  UNL     1      21.920   6.815  50.832  1.00  0.00    -0.054 Br
HETATM   19  C9  UNL     1      21.742   3.943  50.966  1.00  0.00     0.113 A 
ENDBRANCH   6  13
BRANCH   9  20
HETATM   20  N4  UNL     1      25.157   0.101  53.650  1.00  0.00    -0.323 N 
HETATM   21  C13 UNL     1      26.251  -0.630  53.130  1.00  0.00     0.258 C 
HETATM   22  O1  UNL     1      25.990  -1.544  52.324  1.00  0.00    -0.267 OA
HETATM   23  H8  UNL     1      25.498   0.848  54.323  1.00  0.00     0.169 HD
BRANCH  21  24
HETATM   24  C14 UNL     1      27.630  -0.360  53.496  1.00  0.00     0.056 A 
HETATM   25  C15 UNL     1      28.747  -1.182  53.296  1.00  0.00     0.043 A 
HETATM   26  C16 UNL     1      29.811  -0.457  53.833  1.00  0.00     0.142 A 
HETATM   27  O2  UNL     1      29.385   0.684  54.308  1.00  0.00    -0.334 OA
HETATM   28  C17 UNL     1      28.090   0.778  54.126  1.00  0.00     0.158 A 
ENDBRANCH  21  24
ENDBRANCH   9  20
TORSDOF 3
ENDMDL
MODEL 4
REMARK VINA RESULT:      -8.9      3.168      5.407
REMARK  3 active torsions:
REMARK  status: ('A' for Active; 'I' for Inactive)
REMARK    1  A    between atoms: C4_6  and  N3_7 
REMARK    2  A    between atoms: C12_16  and  N4_17 
REMARK       I    between atoms: N4_17  and  C13_18 
REMARK    3  A    between atoms: C13_18  and  C14_20 
ROOT
HETATM    1  N1  UNL     1      25.237  -1.332  55.665  1.00  0.00    -0.191 NA
HETATM    2  C1  UNL     1      24.594  -0.862  54.808  1.00  0.00     0.102 C 
HETATM    3  C2  UNL     1      23.803  -0.313  53.764  1.00  0.00     0.073 A 
HETATM    4  C3  UNL     1      22.549  -0.740  53.403  1.00  0.00     0.142 A 
HETATM    5  N2  UNL     1      21.859  -0.151  52.382  1.00  0.00    -0.240 NA
HETATM    6  C4  UNL     1      22.419   0.878  51.708  1.00  0.00     0.144 A 
HETATM    7  C10 UNL     1      23.673   1.344  52.031  1.00  0.00     0.024 A 
HETATM    8  C11 UNL     1      24.178   2.385  51.294  1.00  0.00     0.045 A 
HETATM    9  C12 UNL     1      25.435   2.896  51.556  1.00  0.00     0.035 A 
HETATM   10  C18 UNL     1      26.115   2.293  52.584  1.00  0.00     0.030 A 
HETATM   11  C19 UNL     1      25.605   1.237  53.331  1.00  0.00     0.016 A 
HETATM   12  C20 UNL     1      24.353   0.737  53.062  1.00  0.00     0.000 A 
ENDROOT
BRANCH   6  13
HETATM   13  N3  UNL     1      21.599   1.387  50.668  1.00  0.00    -0.316 N 
HETATM   14  C5  UNL     1      21.690   1.194  49.263  1.00  0.00     0.094 A 
HETATM   15  C6  UNL     1      20.825   1.726  48.421  1.00  0.00    -0.004 A 
HETATM   16  C7  UNL     1      19.688   2.566  48.859  1.00  0.00     0.076 A 
HETATM   17  C8  UNL     1      19.624   2.747  50.335  1.00  0.00     0.008 A 
HETATM   18 BR1  UNL     1      18.163   3.824  50.951  1.00  0.00    -0.054 Br
HETATM   19  C9  UNL     1      20.525   2.190  51.165  1.00  0.00     0.113 A 
ENDBRANCH   6  13
BRANCH   9  20
HETATM   20  N4  UNL     1      25.905   3.956  50.774  1.00  0.00    -0.323 N 
HETATM   21  C13 UNL     1      26.726   3.981  49.622  1.00  0.00     0.258 C 
HETATM   22  O1  UNL     1      27.127   2.884  49.188  1.00  0.00    -0.267 OA
HETATM   23  H8  UNL     1      25.626   4.942  51.051  1.00  0.00     0.169 HD
BRANCH  21  24
HETATM   24  C14 UNL     1      27.108   5.209  48.949  1.00  0.00     0.056 A 
HETATM   25  C15 UNL     1      28.329   5.501  48.324  1.00  0.00     0.043 A 
HETATM   26  C16 UNL     1      28.172   6.803  47.850  1.00  0.00     0.142 A 
HETATM   27  O2  UNL     1      26.983   7.255  48.155  1.00  0.00    -0.334 OA
HETATM   28  C17 UNL     1      26.320   6.333  48.811  1.00  0.00     0.158 A 
ENDBRANCH  21  24
ENDBRANCH   9  20
TORSDOF 3
ENDMDL
MODEL 5
REMARK VINA RESULT:      -8.9      4.022      6.904
REMARK  3 active torsions:
REMARK  status: ('A' for Active; 'I' for Inactive)
REMARK    1  A    between atoms: C4_6  and  N3_7 
REMARK    2  A    between atoms: C12_16  and  N4_17 
REMARK       I    between atoms: N4_17  and  C13_18 
REMARK    3  A    between atoms: C13_18  and  C14_20 
ROOT
HETATM    1  N1  UNL     1      22.134   6.850  50.592  1.00  0.00    -0.191 NA
HETATM    2  C1  UNL     1      21.936   5.788  51.042  1.00  0.00     0.102 C 
HETATM    3  C2  UNL     1      21.678   4.508  51.600  1.00  0.00     0.073 A 
HETATM    4  C3  UNL     1      20.448   4.043  51.996  1.00  0.00     0.142 A 
HETATM    5  N2  UNL     1      20.292   2.793  52.525  1.00  0.00    -0.240 NA
HETATM    6  C4  UNL     1      21.371   1.991  52.665  1.00  0.00     0.144 A 
HETATM    7  C10 UNL     1      22.625   2.410  52.283  1.00  0.00     0.024 A 
HETATM    8  C11 UNL     1      23.672   1.543  52.465  1.00  0.00     0.045 A 
HETATM    9  C12 UNL     1      24.960   1.900  52.115  1.00  0.00     0.035 A 
HETATM   10  C18 UNL     1      25.100   3.158  51.586  1.00  0.00     0.030 A 
HETATM   11  C19 UNL     1      24.039   4.039  51.401  1.00  0.00     0.016 A 
HETATM   12  C20 UNL     1      22.762   3.672  51.753  1.00  0.00     0.000 A 
ENDROOT
BRANCH   6  13
HETATM   13  N3  UNL     1      21.067   0.728  53.236  1.00  0.00    -0.316 N 
HETATM   14  C5  UNL     1      21.856  -0.098  54.081  1.00  0.00     0.094 A 
HETATM   15  C6  UNL     1      21.415  -1.249  54.552  1.00  0.00    -0.004 A 
HETATM   16  C7  UNL     1      20.069  -1.782  54.245  1.00  0.00     0.076 A 
HETATM   17  C8  UNL     1      19.272  -0.891  53.357  1.00  0.00     0.008 A 
HETATM   18 BR1  UNL     1      17.517  -1.536  52.937  1.00  0.00    -0.054 Br
HETATM   19  C9  UNL     1      19.754   0.277  52.895  1.00  0.00     0.113 A 
ENDBRANCH   6  13
BRANCH   9  20
HETATM   20  N4  UNL     1      25.993   0.980  52.324  1.00  0.00    -0.323 N 
HETATM   21  C13 UNL     1      26.882   0.798  53.408  1.00  0.00     0.258 C 
HETATM   22  O1  UNL     1      26.762   1.572  54.377  1.00  0.00    -0.267 OA
HETATM   23  H8  UNL     1      26.188   0.269  51.561  1.00  0.00     0.169 HD
BRANCH  21  24
HETATM   24  C14 UNL     1      27.905  -0.233  53.429  1.00  0.00     0.056 A 
HETATM   25  C15 UNL     1      29.256  -0.095  53.775  1.00  0.00     0.043 A 
HETATM   26  C16 UNL     1      29.787  -1.375  53.619  1.00  0.00     0.142 A 
HETATM   27  O2  UNL     1      28.856  -2.203  53.220  1.00  0.00    -0.334 OA
HETATM   28  C17 UNL     1      27.721  -1.559  53.095  1.00  0.00     0.158 A 
ENDBRANCH  21  24
ENDBRANCH   9  20
TORSDOF 3
ENDMDL
MODEL 6
REMARK VINA RESULT:      -8.4      3.914      7.357
REMARK  3 active torsions:
REMARK  status: ('A' for Active; 'I' for Inactive)
REMARK    1  A    between atoms: C4_6  and  N3_7 
REMARK    2  A    between atoms: C12_16  and  N4_17 
REMARK       I    between atoms: N4_17  and  C13_18 
REMARK    3  A    between atoms: C13_18  and  C14_20 
ROOT
HETATM    1  N1  UNL     1      21.282   6.107  48.103  1.00  0.00    -0.191 NA
HETATM    2  C1  UNL     1      22.449   6.175  48.166  1.00  0.00     0.102 C 
HETATM    3  C2  UNL     1      23.865   6.269  48.220  1.00  0.00     0.073 A 
HETATM    4  C3  UNL     1      24.624   7.250  47.628  1.00  0.00     0.142 A 
HETATM    5  N2  UNL     1      25.985   7.261  47.732  1.00  0.00    -0.240 NA
HETATM    6  C4  UNL     1      26.607   6.286  48.433  1.00  0.00     0.144 A 
HETATM    7  C10 UNL     1      25.892   5.280  49.043  1.00  0.00     0.024 A 
HETATM    8  C11 UNL     1      26.594   4.322  49.728  1.00  0.00     0.045 A 
HETATM    9  C12 UNL     1      25.943   3.277  50.356  1.00  0.00     0.035 A 
HETATM   10  C18 UNL     1      24.576   3.280  50.242  1.00  0.00     0.030 A 
HETATM   11  C19 UNL     1      23.862   4.252  49.548  1.00  0.00     0.016 A 
HETATM   12  C20 UNL     1      24.521   5.287  48.927  1.00  0.00     0.000 A 
ENDROOT
BRANCH   6  13
HETATM   13  N3  UNL     1      28.020   6.414  48.450  1.00  0.00    -0.316 N 
HETATM   14  C5  UNL     1      29.022   5.441  48.187  1.00  0.00     0.094 A 
HETATM   15  C6  UNL     1      30.309   5.728  48.224  1.00  0.00    -0.004 A 
HETATM   16  C7  UNL     1      30.824   7.079  48.540  1.00  0.00     0.076 A 
HETATM   17  C8  UNL     1      29.747   8.071  48.810  1.00  0.00     0.008 A 
HETATM   18 BR1  UNL     1      30.365   9.839  49.218  1.00  0.00    -0.054 Br
HETATM   19  C9  UNL     1      28.443   7.742  48.764  1.00  0.00     0.113 A 
ENDBRANCH   6  13
BRANCH   9  20
HETATM   20  N4  UNL     1      26.706   2.324  51.038  1.00  0.00    -0.323 N 
HETATM   21  C13 UNL     1      26.671   1.880  52.381  1.00  0.00     0.258 C 
HETATM   22  O1  UNL     1      25.824   2.402  53.130  1.00  0.00    -0.267 OA
HETATM   23  H8  UNL     1      27.463   1.813  50.498  1.00  0.00     0.169 HD
BRANCH  21  24
HETATM   24  C14 UNL     1      27.568   0.863  52.902  1.00  0.00     0.056 A 
HETATM   25  C15 UNL     1      28.837   1.048  53.468  1.00  0.00     0.043 A 
HETATM   26  C16 UNL     1      29.263  -0.240  53.792  1.00  0.00     0.142 A 
HETATM   27  O2  UNL     1      28.350  -1.115  53.456  1.00  0.00    -0.334 OA
HETATM   28  C17 UNL     1      27.325  -0.495  52.923  1.00  0.00     0.158 A 
ENDBRANCH  21  24
ENDBRANCH   9  20
TORSDOF 3
ENDMDL
MODEL 7
REMARK VINA RESULT:      -8.4      2.843      5.104
REMARK  3 active torsions:
REMARK  status: ('A' for Active; 'I' for Inactive)
REMARK    1  A    between atoms: C4_6  and  N3_7 
REMARK    2  A    between atoms: C12_16  and  N4_17 
REMARK       I    between atoms: N4_17  and  C13_18 
REMARK    3  A    between atoms: C13_18  and  C14_20 
ROOT
HETATM    1  N1  UNL     1      27.726  -1.602  53.422  1.00  0.00    -0.191 NA
HETATM    2  C1  UNL     1      26.728  -1.020  53.236  1.00  0.00     0.102 C 
HETATM    3  C2  UNL     1      25.506  -0.335  53.011  1.00  0.00     0.073 A 
HETATM    4  C3  UNL     1      24.270  -0.736  53.459  1.00  0.00     0.142 A 
HETATM    5  N2  UNL     1      23.143  -0.012  53.195  1.00  0.00    -0.240 NA
HETATM    6  C4  UNL     1      23.239   1.128  52.475  1.00  0.00     0.144 A 
HETATM    7  C10 UNL     1      24.453   1.574  52.003  1.00  0.00     0.024 A 
HETATM    8  C11 UNL     1      24.469   2.734  51.273  1.00  0.00     0.045 A 
HETATM    9  C12 UNL     1      25.649   3.235  50.759  1.00  0.00     0.035 A 
HETATM   10  C18 UNL     1      26.772   2.496  51.033  1.00  0.00     0.030 A 
HETATM   11  C19 UNL     1      26.758   1.318  51.774  1.00  0.00     0.016 A 
HETATM   12  C20 UNL     1      25.577   0.830  52.280  1.00  0.00     0.000 A 
ENDROOT
BRANCH   6  13
HETATM   13  N3  UNL     1      21.992   1.773  52.266  1.00  0.00    -0.316 N 
HETATM   14  C5  UNL     1      21.676   3.158  52.268  1.00  0.00     0.094 A 
HETATM   15  C6  UNL     1      20.456   3.603  52.033  1.00  0.00    -0.004 A 
HETATM   16  C7  UNL     1      19.315   2.706  51.746  1.00  0.00     0.076 A 
HETATM   17  C8  UNL     1      19.683   1.263  51.752  1.00  0.00     0.008 A 
HETATM   18 BR1  UNL     1      18.236   0.062  51.380  1.00  0.00    -0.054 Br
HETATM   19  C9  UNL     1      20.938   0.846  51.998  1.00  0.00     0.113 A 
ENDBRANCH   6  13
BRANCH   9  20
HETATM   20  N4  UNL     1      25.610   4.421  50.018  1.00  0.00    -0.323 N 
HETATM   21  C13 UNL     1      26.512   4.969  49.076  1.00  0.00     0.258 C 
HETATM   22  O1  UNL     1      27.542   4.313  48.828  1.00  0.00    -0.267 OA
HETATM   23  H8  UNL     1      24.776   5.063  50.149  1.00  0.00     0.169 HD
BRANCH  21  24
HETATM   24  C14 UNL     1      26.284   6.239  48.409  1.00  0.00     0.056 A 
HETATM   25  C15 UNL     1      27.232   7.064  47.788  1.00  0.00     0.043 A 
HETATM   26  C16 UNL     1      26.493   8.149  47.319  1.00  0.00     0.142 A 
HETATM   27  O2  UNL     1      25.230   8.000  47.623  1.00  0.00    -0.334 OA
HETATM   28  C17 UNL     1      25.067   6.873  48.273  1.00  0.00     0.158 A 
ENDBRANCH  21  24
ENDBRANCH   9  20
TORSDOF 3
ENDMDL
MODEL 8
REMARK VINA RESULT:      -8.2      5.475      9.230
REMARK  3 active torsions:
REMARK  status: ('A' for Active; 'I' for Inactive)
REMARK    1  A    between atoms: C4_6  and  N3_7 
REMARK    2  A    between atoms: C12_16  and  N4_17 
REMARK       I    between atoms: N4_17  and  C13_18 
REMARK    3  A    between atoms: C13_18  and  C14_20 
ROOT
HETATM    1  N1  UNL     1      25.331  -1.242  55.554  1.00  0.00    -0.191 NA
HETATM    2  C1  UNL     1      24.827  -0.700  54.647  1.00  0.00     0.102 C 
HETATM    3  C2  UNL     1      24.233  -0.027  53.548  1.00  0.00     0.073 A 
HETATM    4  C3  UNL     1      24.900   0.744  52.627  1.00  0.00     0.142 A 
HETATM    5  N2  UNL     1      24.245   1.358  51.598  1.00  0.00    -0.240 NA
HETATM    6  C4  UNL     1      22.906   1.207  51.478  1.00  0.00     0.144 A 
HETATM    7  C10 UNL     1      22.191   0.445  52.374  1.00  0.00     0.024 A 
HETATM    8  C11 UNL     1      20.836   0.346  52.191  1.00  0.00     0.045 A 
HETATM    9  C12 UNL     1      20.054  -0.393  53.058  1.00  0.00     0.035 A 
HETATM   10  C18 UNL     1      20.727  -1.002  54.086  1.00  0.00     0.030 A 
HETATM   11  C19 UNL     1      22.102  -0.904  54.273  1.00  0.00     0.016 A 
HETATM   12  C20 UNL     1      22.870  -0.165  53.404  1.00  0.00     0.000 A 
ENDROOT
BRANCH   6  13
HETATM   13  N3  UNL     1      22.354   1.906  50.373  1.00  0.00    -0.316 N 
HETATM   14  C5  UNL     1      21.948   1.418  49.103  1.00  0.00     0.094 A 
HETATM   15  C6  UNL     1      21.426   2.203  48.180  1.00  0.00    -0.004 A 
HETATM   16  C7  UNL     1      21.219   3.655  48.382  1.00  0.00     0.076 A 
HETATM   17  C8  UNL     1      21.656   4.130  49.724  1.00  0.00     0.008 A 
HETATM   18 BR1  UNL     1      21.400   6.004  50.035  1.00  0.00    -0.054 Br
HETATM   19  C9  UNL     1      22.185   3.300  50.641  1.00  0.00     0.113 A 
ENDBRANCH   6  13
BRANCH   9  20
HETATM   20  N4  UNL     1      18.675  -0.458  52.829  1.00  0.00    -0.323 N 
HETATM   21  C13 UNL     1      17.737  -1.495  53.041  1.00  0.00     0.258 C 
HETATM   22  O1  UNL     1      18.169  -2.562  53.519  1.00  0.00    -0.267 OA
HETATM   23  H8  UNL     1      18.197   0.396  52.420  1.00  0.00     0.169 HD
BRANCH  21  24
HETATM   24  C14 UNL     1      16.325  -1.361  52.728  1.00  0.00     0.056 A 
HETATM   25  C15 UNL     1      15.546  -0.196  52.759  1.00  0.00     0.043 A 
HETATM   26  C16 UNL     1      14.273  -0.621  52.382  1.00  0.00     0.142 A 
HETATM   27  O2  UNL     1      14.277  -1.908  52.148  1.00  0.00    -0.334 OA
HETATM   28  C17 UNL     1      15.483  -2.384  52.343  1.00  0.00     0.158 A 
ENDBRANCH  21  24
ENDBRANCH   9  20
TORSDOF 3
ENDMDL
MODEL 9
REMARK VINA RESULT:      -7.9      4.212      5.906
REMARK  3 active torsions:
REMARK  status: ('A' for Active; 'I' for Inactive)
REMARK    1  A    between atoms: C4_6  and  N3_7 
REMARK    2  A    between atoms: C12_16  and  N4_17 
REMARK       I    between atoms: N4_17  and  C13_18 
REMARK    3  A    between atoms: C13_18  and  C14_20 
ROOT
HETATM    1  N1  UNL     1      22.458  -0.507  54.007  1.00  0.00    -0.191 NA
HETATM    2  C1  UNL     1      23.024   0.281  53.353  1.00  0.00     0.102 C 
HETATM    3  C2  UNL     1      23.718   1.247  52.579  1.00  0.00     0.073 A 
HETATM    4  C3  UNL     1      24.855   1.915  52.966  1.00  0.00     0.142 A 
HETATM    5  N2  UNL     1      25.459   2.832  52.154  1.00  0.00    -0.240 NA
HETATM    6  C4  UNL     1      24.928   3.094  50.938  1.00  0.00     0.144 A 
HETATM    7  C10 UNL     1      23.790   2.453  50.503  1.00  0.00     0.024 A 
HETATM    8  C11 UNL     1      23.307   2.779  49.262  1.00  0.00     0.045 A 
HETATM    9  C12 UNL     1      22.164   2.184  48.765  1.00  0.00     0.035 A 
HETATM   10  C18 UNL     1      21.570   1.265  49.593  1.00  0.00     0.030 A 
HETATM   11  C19 UNL     1      22.058   0.933  50.852  1.00  0.00     0.016 A 
HETATM   12  C20 UNL     1      23.197   1.532  51.336  1.00  0.00     0.000 A 
ENDROOT
BRANCH   6  13
HETATM   13  N3  UNL     1      25.648   4.073  50.205  1.00  0.00    -0.316 N 
HETATM   14  C5  UNL     1      26.759   3.918  49.333  1.00  0.00     0.094 A 
HETATM   15  C6  UNL     1      27.308   4.938  48.703  1.00  0.00    -0.004 A 
HETATM   16  C7  UNL     1      26.820   6.328  48.844  1.00  0.00     0.076 A 
HETATM   17  C8  UNL     1      25.656   6.453  49.764  1.00  0.00     0.008 A 
HETATM   18 BR1  UNL     1      24.984   8.235  49.975  1.00  0.00    -0.054 Br
HETATM   19  C9  UNL     1      25.122   5.389  50.392  1.00  0.00     0.113 A 
ENDBRANCH   6  13
BRANCH   9  20
HETATM   20  N4  UNL     1      21.711   2.554  47.494  1.00  0.00    -0.323 N 
HETATM   21  C13 UNL     1      20.714   3.470  47.083  1.00  0.00     0.258 C 
HETATM   22  O1  UNL     1      20.102   4.082  47.979  1.00  0.00    -0.267 OA
HETATM   23  H8  UNL     1      22.162   2.094  46.651  1.00  0.00     0.169 HD
BRANCH  21  24
HETATM   24  C14 UNL     1      20.388   3.712  45.689  1.00  0.00     0.056 A 
HETATM   25  C15 UNL     1      19.123   3.686  45.087  1.00  0.00     0.043 A 
HETATM   26  C16 UNL     1      19.371   3.976  43.746  1.00  0.00     0.142 A 
HETATM   27  O2  UNL     1      20.652   4.158  43.553  1.00  0.00    -0.334 OA
HETATM   28  C17 UNL     1      21.291   4.008  44.688  1.00  0.00     0.158 A 
ENDBRANCH  21  24
ENDBRANCH   9  20
TORSDOF 3
ENDMDL
