MODEL 1
REMARK VINA RESULT:      -8.2      0.000      0.000
REMARK  4 active torsions:
REMARK  status: ('A' for Active; 'I' for Inactive)
REMARK    1  A    between atoms: S1_6  and  C17_26 
REMARK    2  A    between atoms: C7_10  and  N2_11 
REMARK    3  A    between atoms: N2_11  and  C8_12 
REMARK    4  A    between atoms: C16_25  and  C17_26 
ROOT
HETATM    1  C1  UNL     1      27.260   7.961  49.002  1.00  0.00     0.000 C 
HETATM    2  O1  UNL     1      26.684   6.666  48.672  1.00  0.00     0.000 OA
HETATM    3  C2  UNL     1      25.887   6.125  49.650  1.00  0.00     0.004 A 
HETATM    4  C3  UNL     1      25.213   6.273  48.284  1.00  0.00     0.022 A 
HETATM    5  C4  UNL     1      24.442   5.780  49.125  1.00  0.00     0.011 A 
HETATM    6  S1  UNL     1      23.622   5.236  50.059  1.00  0.00    -0.242 SA
HETATM    7  C5  UNL     1      21.960   4.118  52.052  1.00  0.00     0.196 C 
HETATM    8  N1  UNL     1      23.202   4.368  52.679  1.00  0.00    -0.276 NA
HETATM    9  C6  UNL     1      24.118   3.597  53.026  1.00  0.00     0.130 C 
HETATM   10  C7  UNL     1      24.538   2.854  52.090  1.00  0.00     0.160 C 
HETATM   11  N3  UNL     1      23.890   2.266  51.163  1.00  0.00    -0.222 NA
HETATM   12  C14 UNL     1      23.275   2.142  50.144  1.00  0.00     0.235 C 
HETATM   13  N4  UNL     1      22.595   2.391  48.897  1.00  0.00    -0.253 NA
HETATM   14  C15 UNL     1      22.346   3.698  48.691  1.00  0.00     0.137 C 
HETATM   15  O2  UNL     1      22.467   5.062  49.178  1.00  0.00     0.000 OA
HETATM   16  C16 UNL     1      23.535   5.180  50.160  1.00  0.00     0.013 A 
HETATM   17  C17 UNL     1      24.881   5.525  50.623  1.00  0.00     0.055 A 
HETATM   18  H5  UNL     1      22.729   4.660  51.035  1.00  0.00     0.104 HD
ENDROOT
BRANCH  10  19
HETATM   19  N2  UNL     1      25.649   2.252  51.406  1.00  0.00    -0.339 N 
HETATM   20  H8  UNL     1      26.182   2.130  50.507  1.00  0.00     0.167 HD
BRANCH  19  21
HETATM   21  C8  UNL     1      26.572   1.359  52.103  1.00  0.00     0.035 A 
HETATM   22  C9  UNL     1      27.551   2.114  52.803  1.00  0.00     0.032 A 
HETATM   23  C10 UNL     1      28.407   1.151  53.426  1.00  0.00     0.046 A 
HETATM   24  C11 UNL     1      28.445  -0.189  53.473  1.00  0.00     0.138 A 
HETATM   25  F1  UNL     1      29.345  -0.923  54.133  1.00  0.00    -0.204 F 
HETATM   26  C12 UNL     1      27.414  -0.670  52.736  1.00  0.00     0.074 A 
HETATM   27 CL1  UNL     1      27.264  -2.433  52.612  1.00  0.00    -0.081 Cl
HETATM   28  C13 UNL     1      26.430  -0.042  52.019  1.00  0.00     0.056 A 
ENDBRANCH  19  21
ENDBRANCH  10  19
TORSDOF 4
ENDMDL
MODEL 2
REMARK VINA RESULT:      -8.0      2.937      4.077
REMARK  4 active torsions:
REMARK  status: ('A' for Active; 'I' for Inactive)
REMARK    1  A    between atoms: S1_6  and  C17_26 
REMARK    2  A    between atoms: C7_10  and  N2_11 
REMARK    3  A    between atoms: N2_11  and  C8_12 
REMARK    4  A    between atoms: C16_25  and  C17_26 
ROOT
HETATM    1  C1  UNL     1      27.729   2.198  52.956  1.00  0.00     0.000 C 
HETATM    2  O1  UNL     1      26.795   1.913  51.877  1.00  0.00     0.000 OA
HETATM    3  C2  UNL     1      25.596   2.575  51.964  1.00  0.00     0.004 A 
HETATM    4  C3  UNL     1      26.353   2.791  50.652  1.00  0.00     0.022 A 
HETATM    5  C4  UNL     1      25.278   3.416  50.670  1.00  0.00     0.011 A 
HETATM    6  S1  UNL     1      24.097   4.082  50.710  1.00  0.00    -0.242 SA
HETATM    7  C5  UNL     1      21.631   5.454  50.862  1.00  0.00     0.196 C 
HETATM    8  N1  UNL     1      21.764   4.759  52.086  1.00  0.00    -0.276 NA
HETATM    9  C6  UNL     1      21.204   3.730  52.513  1.00  0.00     0.130 C 
HETATM   10  C7  UNL     1      21.307   2.736  51.733  1.00  0.00     0.160 C 
HETATM   11  N3  UNL     1      21.249   2.690  50.460  1.00  0.00    -0.222 NA
HETATM   12  C14 UNL     1      21.607   2.823  49.327  1.00  0.00     0.235 C 
HETATM   13  N4  UNL     1      22.368   3.131  48.141  1.00  0.00    -0.253 NA
HETATM   14  C15 UNL     1      23.420   3.932  48.391  1.00  0.00     0.137 C 
HETATM   15  O2  UNL     1      24.196   4.669  49.374  1.00  0.00     0.000 OA
HETATM   16  C16 UNL     1      23.972   4.154  50.717  1.00  0.00     0.013 A 
HETATM   17  C17 UNL     1      24.301   3.375  51.913  1.00  0.00     0.055 A 
HETATM   18  H5  UNL     1      22.847   4.803  50.731  1.00  0.00     0.104 HD
ENDROOT
BRANCH  10  19
HETATM   19  N2  UNL     1      21.542   1.330  51.564  1.00  0.00    -0.339 N 
HETATM   20  H8  UNL     1      21.522   0.493  50.926  1.00  0.00     0.167 HD
BRANCH  19  21
HETATM   21  C8  UNL     1      22.021   0.505  52.670  1.00  0.00     0.035 A 
HETATM   22  C9  UNL     1      20.935   0.117  53.500  1.00  0.00     0.032 A 
HETATM   23  C10 UNL     1      21.514  -0.661  54.553  1.00  0.00     0.046 A 
HETATM   24  C11 UNL     1      22.758  -1.056  54.862  1.00  0.00     0.138 A 
HETATM   25  F1  UNL     1      23.102  -1.805  55.914  1.00  0.00    -0.204 F 
HETATM   26  C12 UNL     1      23.605  -0.564  53.925  1.00  0.00     0.074 A 
HETATM   27 CL1  UNL     1      25.330  -0.923  54.131  1.00  0.00    -0.081 Cl
HETATM   28  C13 UNL     1      23.392   0.204  52.812  1.00  0.00     0.056 A 
ENDBRANCH  19  21
ENDBRANCH  10  19
TORSDOF 4
ENDMDL
MODEL 3
REMARK VINA RESULT:      -8.0      3.856      6.026
REMARK  4 active torsions:
REMARK  status: ('A' for Active; 'I' for Inactive)
REMARK    1  A    between atoms: S1_6  and  C17_26 
REMARK    2  A    between atoms: C7_10  and  N2_11 
REMARK    3  A    between atoms: N2_11  and  C8_12 
REMARK    4  A    between atoms: C16_25  and  C17_26 
ROOT
HETATM    1  C1  UNL     1      26.262  -0.299  53.314  1.00  0.00     0.000 C 
HETATM    2  O1  UNL     1      25.304   0.793  53.410  1.00  0.00     0.000 OA
HETATM    3  C2  UNL     1      24.492   0.944  52.314  1.00  0.00     0.004 A 
HETATM    4  C3  UNL     1      23.750   0.770  53.640  1.00  0.00     0.022 A 
HETATM    5  C4  UNL     1      22.962   0.900  52.688  1.00  0.00     0.011 A 
HETATM    6  S1  UNL     1      22.123   1.053  51.633  1.00  0.00    -0.242 SA
HETATM    7  C5  UNL     1      20.429   1.364  49.392  1.00  0.00     0.196 C 
HETATM    8  N1  UNL     1      21.750   1.424  48.891  1.00  0.00    -0.276 NA
HETATM    9  C6  UNL     1      22.434   2.386  48.492  1.00  0.00     0.130 C 
HETATM   10  C7  UNL     1      22.521   3.331  49.332  1.00  0.00     0.160 C 
HETATM   11  N3  UNL     1      21.636   3.806  50.118  1.00  0.00    -0.222 NA
HETATM   12  C14 UNL     1      20.908   3.864  51.066  1.00  0.00     0.235 C 
HETATM   13  N4  UNL     1      20.202   3.577  52.290  1.00  0.00    -0.253 NA
HETATM   14  C15 UNL     1      20.321   2.292  52.671  1.00  0.00     0.137 C 
HETATM   15  O2  UNL     1      20.881   0.978  52.402  1.00  0.00     0.000 OA
HETATM   16  C16 UNL     1      22.035   1.067  51.519  1.00  0.00     0.013 A 
HETATM   17  C17 UNL     1      23.464   1.089  51.199  1.00  0.00     0.055 A 
HETATM   18  H5  UNL     1      21.210   1.209  50.526  1.00  0.00     0.104 HD
ENDROOT
BRANCH  10  19
HETATM   19  N2  UNL     1      23.331   4.319  49.989  1.00  0.00    -0.339 N 
HETATM   20  H8  UNL     1      23.420   5.032  50.757  1.00  0.00     0.167 HD
BRANCH  19  21
HETATM   21  C8  UNL     1      24.679   4.625  49.516  1.00  0.00     0.035 A 
HETATM   22  C9  UNL     1      25.556   3.542  49.796  1.00  0.00     0.032 A 
HETATM   23  C10 UNL     1      26.840   3.953  49.315  1.00  0.00     0.046 A 
HETATM   24  C11 UNL     1      27.316   5.050  48.708  1.00  0.00     0.138 A 
HETATM   25  F1  UNL     1      28.580   5.245  48.322  1.00  0.00    -0.204 F 
HETATM   26  C12 UNL     1      26.293   5.927  48.553  1.00  0.00     0.074 A 
HETATM   27 CL1  UNL     1      26.675   7.485  47.797  1.00  0.00    -0.081 Cl
HETATM   28  C13 UNL     1      24.968   5.857  48.894  1.00  0.00     0.056 A 
ENDBRANCH  19  21
ENDBRANCH  10  19
TORSDOF 4
ENDMDL
MODEL 4
REMARK VINA RESULT:      -7.9      4.024      5.930
REMARK  4 active torsions:
REMARK  status: ('A' for Active; 'I' for Inactive)
REMARK    1  A    between atoms: S1_6  and  C17_26 
REMARK    2  A    between atoms: C7_10  and  N2_11 
REMARK    3  A    between atoms: N2_11  and  C8_12 
REMARK    4  A    between atoms: C16_25  and  C17_26 
ROOT
HETATM    1  C1  UNL     1      26.035   0.068  54.504  1.00  0.00     0.000 C 
HETATM    2  O1  UNL     1      25.585   0.281  53.137  1.00  0.00     0.000 OA
HETATM    3  C2  UNL     1      24.693   1.312  52.979  1.00  0.00     0.004 A 
HETATM    4  C3  UNL     1      25.947   1.411  52.108  1.00  0.00     0.022 A 
HETATM    5  C4  UNL     1      25.181   2.372  51.920  1.00  0.00     0.011 A 
HETATM    6  S1  UNL     1      24.325   3.407  51.728  1.00  0.00    -0.242 SA
HETATM    7  C5  UNL     1      22.505   5.541  51.383  1.00  0.00     0.196 C 
HETATM    8  N1  UNL     1      21.926   4.691  52.353  1.00  0.00    -0.276 NA
HETATM    9  C6  UNL     1      20.977   3.886  52.279  1.00  0.00     0.130 C 
HETATM   10  C7  UNL     1      21.106   3.033  51.351  1.00  0.00     0.160 C 
HETATM   11  N3  UNL     1      21.562   3.177  50.169  1.00  0.00    -0.222 NA
HETATM   12  C14 UNL     1      22.374   3.320  49.302  1.00  0.00     0.235 C 
HETATM   13  N4  UNL     1      23.605   3.485  48.570  1.00  0.00    -0.253 NA
HETATM   14  C15 UNL     1      24.642   3.815  49.363  1.00  0.00     0.137 C 
HETATM   15  O2  UNL     1      25.121   4.088  50.707  1.00  0.00     0.000 OA
HETATM   16  C16 UNL     1      24.233   3.518  51.710  1.00  0.00     0.013 A 
HETATM   17  C17 UNL     1      23.813   2.523  52.700  1.00  0.00     0.055 A 
HETATM   18  H5  UNL     1      23.433   4.520  51.509  1.00  0.00     0.104 HD
ENDROOT
BRANCH  10  19
HETATM   19  N2  UNL     1      20.986   1.671  50.912  1.00  0.00    -0.339 N 
HETATM   20  H8  UNL     1      21.162   0.958  50.159  1.00  0.00     0.167 HD
BRANCH  19  21
HETATM   21  C8  UNL     1      20.345   0.661  51.751  1.00  0.00     0.035 A 
HETATM   22  C9  UNL     1      18.974   0.529  51.402  1.00  0.00     0.032 A 
HETATM   23  C10 UNL     1      18.444  -0.460  52.290  1.00  0.00     0.046 A 
HETATM   24  C11 UNL     1      18.951  -1.212  53.278  1.00  0.00     0.138 A 
HETATM   25  F1  UNL     1      18.276  -2.108  54.005  1.00  0.00    -0.204 F 
HETATM   26  C12 UNL     1      20.264  -0.906  53.414  1.00  0.00     0.074 A 
HETATM   27 CL1  UNL     1      21.161  -1.749  54.692  1.00  0.00    -0.081 Cl
HETATM   28  C13 UNL     1      21.072  -0.024  52.748  1.00  0.00     0.056 A 
ENDBRANCH  19  21
ENDBRANCH  10  19
TORSDOF 4
ENDMDL
MODEL 5
REMARK VINA RESULT:      -7.9      5.396      7.578
REMARK  4 active torsions:
REMARK  status: ('A' for Active; 'I' for Inactive)
REMARK    1  A    between atoms: S1_6  and  C17_26 
REMARK    2  A    between atoms: C7_10  and  N2_11 
REMARK    3  A    between atoms: N2_11  and  C8_12 
REMARK    4  A    between atoms: C16_25  and  C17_26 
ROOT
HETATM    1  C1  UNL     1      17.448  -3.207  53.428  1.00  0.00     0.000 C 
HETATM    2  O1  UNL     1      17.447  -1.764  53.615  1.00  0.00     0.000 OA
HETATM    3  C2  UNL     1      18.064  -1.054  52.615  1.00  0.00     0.004 A 
HETATM    4  C3  UNL     1      16.618  -0.642  52.893  1.00  0.00     0.022 A 
HETATM    5  C4  UNL     1      17.120   0.035  51.979  1.00  0.00     0.011 A 
HETATM    6  S1  UNL     1      17.693   0.766  50.990  1.00  0.00    -0.242 SA
HETATM    7  C5  UNL     1      18.941   2.243  48.929  1.00  0.00     0.196 C 
HETATM    8  N1  UNL     1      19.909   1.320  49.386  1.00  0.00    -0.276 NA
HETATM    9  C6  UNL     1      20.923   1.475  50.094  1.00  0.00     0.130 C 
HETATM   10  C7  UNL     1      20.686   2.045  51.201  1.00  0.00     0.160 C 
HETATM   11  N3  UNL     1      19.896   3.009  51.469  1.00  0.00    -0.222 NA
HETATM   12  C14 UNL     1      18.859   3.572  51.669  1.00  0.00     0.235 C 
HETATM   13  N4  UNL     1      17.462   3.883  51.839  1.00  0.00    -0.253 NA
HETATM   14  C15 UNL     1      16.652   2.919  51.364  1.00  0.00     0.137 C 
HETATM   15  O2  UNL     1      16.534   1.618  50.726  1.00  0.00     0.000 OA
HETATM   16  C16 UNL     1      17.755   0.841  50.883  1.00  0.00     0.013 A 
HETATM   17  C17 UNL     1      18.605  -0.190  51.484  1.00  0.00     0.055 A 
HETATM   18  H5  UNL     1      18.279   1.553  49.932  1.00  0.00     0.104 HD
ENDROOT
BRANCH  10  19
HETATM   19  N2  UNL     1      20.912   2.114  52.618  1.00  0.00    -0.339 N 
HETATM   20  H8  UNL     1      20.807   2.660  53.512  1.00  0.00     0.167 HD
BRANCH  19  21
HETATM   21  C8  UNL     1      21.591   1.034  53.329  1.00  0.00     0.035 A 
HETATM   22  C9  UNL     1      20.715   0.444  54.279  1.00  0.00     0.032 A 
HETATM   23  C10 UNL     1      21.481  -0.578  54.926  1.00  0.00     0.046 A 
HETATM   24  C11 UNL     1      22.736  -1.037  54.807  1.00  0.00     0.138 A 
HETATM   25  F1  UNL     1      23.277  -2.031  55.519  1.00  0.00    -0.204 F 
HETATM   26  C12 UNL     1      23.361  -0.319  53.842  1.00  0.00     0.074 A 
HETATM   27 CL1  UNL     1      25.059  -0.715  53.514  1.00  0.00    -0.081 Cl
HETATM   28  C13 UNL     1      22.934   0.709  53.044  1.00  0.00     0.056 A 
ENDBRANCH  19  21
ENDBRANCH  10  19
TORSDOF 4
ENDMDL
MODEL 6
REMARK VINA RESULT:      -7.8      1.885      2.241
REMARK  4 active torsions:
REMARK  status: ('A' for Active; 'I' for Inactive)
REMARK    1  A    between atoms: S1_6  and  C17_26 
REMARK    2  A    between atoms: C7_10  and  N2_11 
REMARK    3  A    between atoms: N2_11  and  C8_12 
REMARK    4  A    between atoms: C16_25  and  C17_26 
ROOT
HETATM    1  C1  UNL     1      25.912   7.224  49.937  1.00  0.00     0.000 C 
HETATM    2  O1  UNL     1      25.477   5.950  49.386  1.00  0.00     0.000 OA
HETATM    3  C2  UNL     1      24.466   5.337  50.083  1.00  0.00     0.004 A 
HETATM    4  C3  UNL     1      24.171   5.571  48.600  1.00  0.00     0.022 A 
HETATM    5  C4  UNL     1      23.219   5.016  49.175  1.00  0.00     0.011 A 
HETATM    6  S1  UNL     1      22.197   4.403  49.823  1.00  0.00    -0.242 SA
HETATM    7  C5  UNL     1      20.100   3.139  51.234  1.00  0.00     0.196 C 
HETATM    8  N1  UNL     1      21.127   3.357  52.180  1.00  0.00    -0.276 NA
HETATM    9  C6  UNL     1      21.939   2.571  52.708  1.00  0.00     0.130 C 
HETATM   10  C7  UNL     1      22.610   1.897  51.870  1.00  0.00     0.160 C 
HETATM   11  N3  UNL     1      22.243   1.367  50.770  1.00  0.00    -0.222 NA
HETATM   12  C14 UNL     1      21.921   1.307  49.619  1.00  0.00     0.235 C 
HETATM   13  N4  UNL     1      21.586   1.634  48.256  1.00  0.00    -0.253 NA
HETATM   14  C15 UNL     1      21.366   2.949  48.074  1.00  0.00     0.137 C 
HETATM   15  O2  UNL     1      21.318   4.279  48.660  1.00  0.00     0.000 OA
HETATM   16  C16 UNL     1      22.088   4.339  49.894  1.00  0.00     0.013 A 
HETATM   17  C17 UNL     1      23.256   4.664  50.717  1.00  0.00     0.055 A 
HETATM   18  H5  UNL     1      21.094   3.754  50.491  1.00  0.00     0.104 HD
ENDROOT
BRANCH  10  19
HETATM   19  N2  UNL     1      23.876   1.352  51.467  1.00  0.00    -0.339 N 
HETATM   20  H8  UNL     1      24.488   1.001  50.686  1.00  0.00     0.167 HD
BRANCH  19  21
HETATM   21  C8  UNL     1      24.927   1.080  52.444  1.00  0.00     0.035 A 
HETATM   22  C9  UNL     1      24.578  -0.042  53.243  1.00  0.00     0.032 A 
HETATM   23  C10 UNL     1      25.656  -0.205  54.170  1.00  0.00     0.046 A 
HETATM   24  C11 UNL     1      26.814   0.433  54.395  1.00  0.00     0.138 A 
HETATM   25  F1  UNL     1      27.714   0.115  55.331  1.00  0.00    -0.204 F 
HETATM   26  C12 UNL     1      26.915   1.455  53.510  1.00  0.00     0.074 A 
HETATM   27 CL1  UNL     1      28.358   2.481  53.625  1.00  0.00    -0.081 Cl
HETATM   28  C13 UNL     1      26.083   1.887  52.512  1.00  0.00     0.056 A 
ENDBRANCH  19  21
ENDBRANCH  10  19
TORSDOF 4
ENDMDL
MODEL 7
REMARK VINA RESULT:      -7.6      1.566      1.745
REMARK  4 active torsions:
REMARK  status: ('A' for Active; 'I' for Inactive)
REMARK    1  A    between atoms: S1_6  and  C17_26 
REMARK    2  A    between atoms: C7_10  and  N2_11 
REMARK    3  A    between atoms: N2_11  and  C8_12 
REMARK    4  A    between atoms: C16_25  and  C17_26 
ROOT
HETATM    1  C1  UNL     1      27.567   8.650  49.354  1.00  0.00     0.000 C 
HETATM    2  O1  UNL     1      27.026   7.361  48.949  1.00  0.00     0.000 OA
HETATM    3  C2  UNL     1      25.973   6.916  49.708  1.00  0.00     0.004 A 
HETATM    4  C3  UNL     1      25.688   7.004  48.207  1.00  0.00     0.022 A 
HETATM    5  C4  UNL     1      24.698   6.597  48.838  1.00  0.00     0.011 A 
HETATM    6  S1  UNL     1      23.634   6.146  49.549  1.00  0.00    -0.242 SA
HETATM    7  C5  UNL     1      21.450   5.225  51.088  1.00  0.00     0.196 C 
HETATM    8  N1  UNL     1      22.498   5.464  52.006  1.00  0.00    -0.276 NA
HETATM    9  C6  UNL     1      23.246   4.679  52.622  1.00  0.00     0.130 C 
HETATM   10  C7  UNL     1      23.855   3.862  51.868  1.00  0.00     0.160 C 
HETATM   11  N3  UNL     1      23.439   3.243  50.833  1.00  0.00    -0.222 NA
HETATM   12  C14 UNL     1      23.106   3.080  49.696  1.00  0.00     0.235 C 
HETATM   13  N4  UNL     1      22.790   3.278  48.303  1.00  0.00    -0.253 NA
HETATM   14  C15 UNL     1      22.676   4.577  47.973  1.00  0.00     0.137 C 
HETATM   15  O2  UNL     1      22.741   5.964  48.405  1.00  0.00     0.000 OA
HETATM   16  C16 UNL     1      23.520   6.100  49.627  1.00  0.00     0.013 A 
HETATM   17  C17 UNL     1      24.716   6.419  50.411  1.00  0.00     0.055 A 
HETATM   18  H5  UNL     1      22.487   5.669  50.283  1.00  0.00     0.104 HD
ENDROOT
BRANCH  10  19
HETATM   19  N2  UNL     1      25.070   3.174  51.532  1.00  0.00    -0.339 N 
HETATM   20  H8  UNL     1      25.973   3.171  50.992  1.00  0.00     0.167 HD
BRANCH  19  21
HETATM   21  C8  UNL     1      25.369   1.855  52.085  1.00  0.00     0.035 A 
HETATM   22  C9  UNL     1      26.610   1.381  51.582  1.00  0.00     0.032 A 
HETATM   23  C10 UNL     1      26.792   0.087  52.166  1.00  0.00     0.046 A 
HETATM   24  C11 UNL     1      26.088  -0.675  53.015  1.00  0.00     0.138 A 
HETATM   25  F1  UNL     1      26.440  -1.886  53.457  1.00  0.00    -0.204 F 
HETATM   26  C12 UNL     1      24.956  -0.006  53.348  1.00  0.00     0.074 A 
HETATM   27 CL1  UNL     1      23.828  -0.824  54.445  1.00  0.00    -0.081 Cl
HETATM   28  C13 UNL     1      24.477   1.223  52.977  1.00  0.00     0.056 A 
ENDBRANCH  19  21
ENDBRANCH  10  19
TORSDOF 4
ENDMDL
MODEL 8
REMARK VINA RESULT:      -7.2      1.805      2.128
REMARK  4 active torsions:
REMARK  status: ('A' for Active; 'I' for Inactive)
REMARK    1  A    between atoms: S1_6  and  C17_26 
REMARK    2  A    between atoms: C7_10  and  N2_11 
REMARK    3  A    between atoms: N2_11  and  C8_12 
REMARK    4  A    between atoms: C16_25  and  C17_26 
ROOT
HETATM    1  C1  UNL     1      25.962   7.194  49.760  1.00  0.00     0.000 C 
HETATM    2  O1  UNL     1      25.395   5.987  49.176  1.00  0.00     0.000 OA
HETATM    3  C2  UNL     1      24.375   5.422  49.900  1.00  0.00     0.004 A 
HETATM    4  C3  UNL     1      24.023   5.754  48.448  1.00  0.00     0.022 A 
HETATM    5  C4  UNL     1      23.060   5.247  49.050  1.00  0.00     0.011 A 
HETATM    6  S1  UNL     1      22.027   4.684  49.726  1.00  0.00    -0.242 SA
HETATM    7  C5  UNL     1      19.911   3.520  51.193  1.00  0.00     0.196 C 
HETATM    8  N1  UNL     1      21.002   3.608  52.089  1.00  0.00    -0.276 NA
HETATM    9  C6  UNL     1      21.773   2.735  52.532  1.00  0.00     0.130 C 
HETATM   10  C7  UNL     1      22.341   2.053  51.627  1.00  0.00     0.160 C 
HETATM   11  N3  UNL     1      21.875   1.611  50.526  1.00  0.00    -0.222 NA
HETATM   12  C14 UNL     1      21.489   1.635  49.394  1.00  0.00     0.235 C 
HETATM   13  N4  UNL     1      21.110   2.057  48.068  1.00  0.00    -0.253 NA
HETATM   14  C15 UNL     1      20.989   3.392  47.961  1.00  0.00     0.137 C 
HETATM   15  O2  UNL     1      21.081   4.690  48.610  1.00  0.00     0.000 OA
HETATM   16  C16 UNL     1      21.917   4.626  49.800  1.00  0.00     0.013 A 
HETATM   17  C17 UNL     1      23.150   4.815  50.569  1.00  0.00     0.055 A 
HETATM   18  H5  UNL     1      20.912   4.092  50.425  1.00  0.00     0.104 HD
ENDROOT
BRANCH  10  19
HETATM   19  N2  UNL     1      23.536   1.431  51.128  1.00  0.00    -0.339 N 
HETATM   20  H8  UNL     1      23.996   0.863  50.371  1.00  0.00     0.167 HD
BRANCH  19  21
HETATM   21  C8  UNL     1      24.790   1.496  51.874  1.00  0.00     0.035 A 
HETATM   22  C9  UNL     1      25.736   2.296  51.177  1.00  0.00     0.032 A 
HETATM   23  C10 UNL     1      26.922   2.275  51.977  1.00  0.00     0.046 A 
HETATM   24  C11 UNL     1      27.266   1.708  53.143  1.00  0.00     0.138 A 
HETATM   25  F1  UNL     1      28.454   1.815  53.745  1.00  0.00    -0.204 F 
HETATM   26  C12 UNL     1      26.202   1.006  53.605  1.00  0.00     0.074 A 
HETATM   27 CL1  UNL     1      26.416   0.128  55.131  1.00  0.00    -0.081 Cl
HETATM   28  C13 UNL     1      24.943   0.815  53.100  1.00  0.00     0.056 A 
ENDBRANCH  19  21
ENDBRANCH  10  19
TORSDOF 4
ENDMDL
MODEL 9
REMARK VINA RESULT:      -7.1      3.958      5.864
REMARK  4 active torsions:
REMARK  status: ('A' for Active; 'I' for Inactive)
REMARK    1  A    between atoms: S1_6  and  C17_26 
REMARK    2  A    between atoms: C7_10  and  N2_11 
REMARK    3  A    between atoms: N2_11  and  C8_12 
REMARK    4  A    between atoms: C16_25  and  C17_26 
ROOT
HETATM    1  C1  UNL     1      19.729   3.318  46.779  1.00  0.00     0.000 C 
HETATM    2  O1  UNL     1      20.973   2.767  47.297  1.00  0.00     0.000 OA
HETATM    3  C2  UNL     1      21.515   3.463  48.349  1.00  0.00     0.004 A 
HETATM    4  C3  UNL     1      21.264   1.979  48.624  1.00  0.00     0.022 A 
HETATM    5  C4  UNL     1      21.754   2.552  49.612  1.00  0.00     0.011 A 
HETATM    6  S1  UNL     1      22.297   3.199  50.674  1.00  0.00    -0.242 SA
HETATM    7  C5  UNL     1      23.416   4.606  52.854  1.00  0.00     0.196 C 
HETATM    8  N1  UNL     1      23.266   5.555  51.816  1.00  0.00    -0.276 NA
HETATM    9  C6  UNL     1      24.103   6.085  51.060  1.00  0.00     0.130 C 
HETATM   10  C7  UNL     1      24.822   5.250  50.434  1.00  0.00     0.160 C 
HETATM   11  N3  UNL     1      25.327   4.149  50.833  1.00  0.00    -0.222 NA
HETATM   12  C14 UNL     1      25.367   2.998  51.155  1.00  0.00     0.235 C 
HETATM   13  N4  UNL     1      25.020   1.633  51.465  1.00  0.00    -0.253 NA
HETATM   14  C15 UNL     1      23.694   1.450  51.596  1.00  0.00     0.137 C 
HETATM   15  O2  UNL     1      22.363   2.034  51.556  1.00  0.00     0.000 OA
HETATM   16  C16 UNL     1      22.353   3.270  50.787  1.00  0.00     0.013 A 
HETATM   17  C17 UNL     1      22.106   4.095  49.602  1.00  0.00     0.055 A 
HETATM   18  H5  UNL     1      22.869   3.865  51.819  1.00  0.00     0.104 HD
ENDROOT
BRANCH  10  19
HETATM   19  N2  UNL     1      25.450   4.850  49.206  1.00  0.00    -0.339 N 
HETATM   20  H8  UNL     1      25.493   4.166  48.408  1.00  0.00     0.167 HD
BRANCH  19  21
HETATM   21  C8  UNL     1      26.569   5.607  48.649  1.00  0.00     0.035 A 
HETATM   22  C9  UNL     1      26.130   6.886  48.215  1.00  0.00     0.032 A 
HETATM   23  C10 UNL     1      27.288   7.528  47.673  1.00  0.00     0.046 A 
HETATM   24  C11 UNL     1      28.576   7.184  47.523  1.00  0.00     0.138 A 
HETATM   25  F1  UNL     1      29.532   7.947  46.984  1.00  0.00    -0.204 F 
HETATM   26  C12 UNL     1      28.741   5.930  48.012  1.00  0.00     0.074 A 
HETATM   27 CL1  UNL     1      30.366   5.228  47.898  1.00  0.00    -0.081 Cl
HETATM   28  C13 UNL     1      27.863   5.049  48.585  1.00  0.00     0.056 A 
ENDBRANCH  19  21
ENDBRANCH  10  19
TORSDOF 4
ENDMDL
