MODEL 1
REMARK VINA RESULT:      -7.5      0.000      0.000
REMARK  5 active torsions:
REMARK  status: ('A' for Active; 'I' for Inactive)
REMARK       I    between atoms: C1_2  and  N1_3 
REMARK       I    between atoms: C1_2  and  N4_16 
REMARK    1  A    between atoms: N1_3  and  N2_4 
REMARK    2  A    between atoms: N2_4  and  C2_5 
REMARK    3  A    between atoms: C3_7  and  C4_8 
REMARK    4  A    between atoms: C4_8  and  C5_9 
REMARK    5  A    between atoms: N4_16  and  C10_17 
ROOT
HETATM    1  N2  UNL     1      27.166   5.130  48.602  1.00  0.00    -0.283 N 
HETATM    2  H2  UNL     1      26.594   4.849  47.751  1.00  0.00     0.188 HD
ENDROOT
BRANCH   1   3
HETATM    3  N1  UNL     1      26.656   4.798  49.884  1.00  0.00    -0.250 N 
HETATM    4  C1  UNL     1      26.527   3.435  50.338  1.00  0.00     0.339 C 
HETATM    5  O1  UNL     1      26.875   2.521  49.575  1.00  0.00    -0.245 OA
HETATM    6  N4  UNL     1      26.009   3.188  51.636  1.00  0.00    -0.308 N 
HETATM    7  H11 UNL     1      25.732   4.022  52.230  1.00  0.00     0.170 HD
HETATM    8  H1  UNL     1      26.374   5.597  50.498  1.00  0.00     0.192 HD
BRANCH   6   9
HETATM    9  C10 UNL     1      25.864   1.868  52.122  1.00  0.00     0.036 A 
HETATM   10  C11 UNL     1      26.864   0.914  52.232  1.00  0.00     0.029 A 
HETATM   11  C12 UNL     1      26.539  -0.347  52.736  1.00  0.00     0.002 A 
HETATM   12  C13 UNL     1      25.243  -0.650  53.122  1.00  0.00     0.000 A 
HETATM   13  C14 UNL     1      24.247   0.295  53.015  1.00  0.00     0.002 A 
HETATM   14  C15 UNL     1      24.579   1.541  52.514  1.00  0.00     0.029 A 
ENDBRANCH   6   9
ENDBRANCH   1   3
BRANCH   1  15
HETATM   15  C2  UNL     1      28.416   5.827  48.404  1.00  0.00     0.123 C 
HETATM   16  N3  UNL     1      29.526   5.278  48.620  1.00  0.00    -0.259 NA
HETATM   17  C3  UNL     1      30.707   6.018  48.406  1.00  0.00     0.175 C 
HETATM   18  S2  UNL     1      30.086   7.726  48.444  1.00  0.00    -0.134 SA
HETATM   19  C9  UNL     1      28.379   7.261  47.928  1.00  0.00     0.155 C 
BRANCH  17  20
HETATM   20  C4  UNL     1      31.337   5.830  47.054  1.00  0.00     0.077 C 
BRANCH  20  21
HETATM   21  C5  UNL     1      32.324   4.726  47.177  1.00  0.00    -0.048 A 
HETATM   22  C6  UNL     1      32.051   3.447  46.767  1.00  0.00     0.015 A 
HETATM   23  C7  UNL     1      33.071   2.461  46.935  1.00  0.00     0.050 A 
HETATM   24  S1  UNL     1      34.460   3.403  47.704  1.00  0.00    -0.113 SA
HETATM   25  C8  UNL     1      33.605   5.010  47.748  1.00  0.00     0.056 A 
ENDBRANCH  20  21
ENDBRANCH  17  20
ENDBRANCH   1  15
TORSDOF 5
ENDMDL
MODEL 2
REMARK VINA RESULT:      -7.4      6.577      8.717
REMARK  5 active torsions:
REMARK  status: ('A' for Active; 'I' for Inactive)
REMARK       I    between atoms: C1_2  and  N1_3 
REMARK       I    between atoms: C1_2  and  N4_16 
REMARK    1  A    between atoms: N1_3  and  N2_4 
REMARK    2  A    between atoms: N2_4  and  C2_5 
REMARK    3  A    between atoms: C3_7  and  C4_8 
REMARK    4  A    between atoms: C4_8  and  C5_9 
REMARK    5  A    between atoms: N4_16  and  C10_17 
ROOT
HETATM    1  N2  UNL     1      24.485   3.988  52.844  1.00  0.00    -0.283 N 
HETATM    2  H2  UNL     1      25.006   4.858  52.526  1.00  0.00     0.188 HD
ENDROOT
BRANCH   1   3
HETATM    3  N1  UNL     1      25.143   3.111  53.746  1.00  0.00    -0.250 N 
HETATM    4  C1  UNL     1      26.063   2.092  53.304  1.00  0.00     0.339 C 
HETATM    5  O1  UNL     1      26.284   1.979  52.090  1.00  0.00    -0.245 OA
HETATM    6  N4  UNL     1      26.680   1.257  54.272  1.00  0.00    -0.308 N 
HETATM    7  H11 UNL     1      26.441   1.413  55.293  1.00  0.00     0.170 HD
HETATM    8  H1  UNL     1      24.931   3.238  54.763  1.00  0.00     0.192 HD
BRANCH   6   9
HETATM    9  C10 UNL     1      27.588   0.244  53.884  1.00  0.00     0.036 A 
HETATM   10  C11 UNL     1      27.265  -0.990  53.340  1.00  0.00     0.029 A 
HETATM   11  C12 UNL     1      28.297  -1.873  53.014  1.00  0.00     0.002 A 
HETATM   12  C13 UNL     1      29.624  -1.532  53.227  1.00  0.00     0.000 A 
HETATM   13  C14 UNL     1      29.947  -0.307  53.767  1.00  0.00     0.002 A 
HETATM   14  C15 UNL     1      28.918   0.560  54.086  1.00  0.00     0.029 A 
ENDBRANCH   6   9
ENDBRANCH   1   3
BRANCH   1  15
HETATM   15  C2  UNL     1      23.150   3.752  52.345  1.00  0.00     0.123 C 
HETATM   16  N3  UNL     1      22.784   2.623  51.931  1.00  0.00    -0.259 NA
HETATM   17  C3  UNL     1      21.465   2.464  51.457  1.00  0.00     0.175 C 
HETATM   18  S2  UNL     1      20.989   4.182  51.102  1.00  0.00    -0.134 SA
HETATM   19  C9  UNL     1      22.172   4.904  52.318  1.00  0.00     0.155 C 
BRANCH  17  20
HETATM   20  C4  UNL     1      20.481   1.958  52.475  1.00  0.00     0.077 C 
BRANCH  20  21
HETATM   21  C5  UNL     1      21.067   0.735  53.085  1.00  0.00    -0.048 A 
HETATM   22  C6  UNL     1      21.832  -0.148  52.369  1.00  0.00     0.015 A 
HETATM   23  C7  UNL     1      22.343  -1.293  53.053  1.00  0.00     0.050 A 
HETATM   24  S1  UNL     1      21.704  -1.090  54.773  1.00  0.00    -0.113 SA
HETATM   25  C8  UNL     1      20.819   0.472  54.469  1.00  0.00     0.056 A 
ENDBRANCH  20  21
ENDBRANCH  17  20
ENDBRANCH   1  15
TORSDOF 5
ENDMDL
MODEL 3
REMARK VINA RESULT:      -7.4      3.154      5.026
REMARK  5 active torsions:
REMARK  status: ('A' for Active; 'I' for Inactive)
REMARK       I    between atoms: C1_2  and  N1_3 
REMARK       I    between atoms: C1_2  and  N4_16 
REMARK    1  A    between atoms: N1_3  and  N2_4 
REMARK    2  A    between atoms: N2_4  and  C2_5 
REMARK    3  A    between atoms: C3_7  and  C4_8 
REMARK    4  A    between atoms: C4_8  and  C5_9 
REMARK    5  A    between atoms: N4_16  and  C10_17 
ROOT
HETATM    1  N2  UNL     1      23.766   3.669  52.514  1.00  0.00    -0.283 N 
HETATM    2  H2  UNL     1      22.754   3.633  52.840  1.00  0.00     0.188 HD
ENDROOT
BRANCH   1   3
HETATM    3  N1  UNL     1      24.771   3.227  53.414  1.00  0.00    -0.250 N 
HETATM    4  C1  UNL     1      25.669   2.142  53.102  1.00  0.00     0.339 C 
HETATM    5  O1  UNL     1      25.555   1.577  52.004  1.00  0.00    -0.245 OA
HETATM    6  N4  UNL     1      26.647   1.763  54.057  1.00  0.00    -0.308 N 
HETATM    7  H11 UNL     1      26.682   2.294  54.974  1.00  0.00     0.170 HD
HETATM    8  H1  UNL     1      24.835   3.730  54.329  1.00  0.00     0.192 HD
BRANCH   6   9
HETATM    9  C10 UNL     1      27.547   0.705  53.794  1.00  0.00     0.036 A 
HETATM   10  C11 UNL     1      27.215  -0.598  53.459  1.00  0.00     0.029 A 
HETATM   11  C12 UNL     1      28.241  -1.518  53.231  1.00  0.00     0.002 A 
HETATM   12  C13 UNL     1      29.572  -1.145  53.336  1.00  0.00     0.000 A 
HETATM   13  C14 UNL     1      29.906   0.149  53.669  1.00  0.00     0.002 A 
HETATM   14  C15 UNL     1      28.882   1.052  53.892  1.00  0.00     0.029 A 
ENDBRANCH   6   9
ENDBRANCH   1   3
BRANCH   1  15
HETATM   15  C2  UNL     1      24.054   4.160  51.187  1.00  0.00     0.123 C 
HETATM   16  N3  UNL     1      24.937   5.030  50.975  1.00  0.00    -0.259 NA
HETATM   17  C3  UNL     1      25.165   5.464  49.653  1.00  0.00     0.175 C 
HETATM   18  S2  UNL     1      23.623   4.969  48.828  1.00  0.00    -0.134 SA
HETATM   19  C9  UNL     1      23.261   3.611  50.023  1.00  0.00     0.155 C 
BRANCH  17  20
HETATM   20  C4  UNL     1      26.275   4.749  48.933  1.00  0.00     0.077 C 
BRANCH  20  21
HETATM   21  C5  UNL     1      27.327   5.755  48.636  1.00  0.00    -0.048 A 
HETATM   22  C6  UNL     1      28.612   5.402  48.316  1.00  0.00     0.015 A 
HETATM   23  C7  UNL     1      29.546   6.450  48.052  1.00  0.00     0.050 A 
HETATM   24  S1  UNL     1      28.544   7.985  48.270  1.00  0.00    -0.113 SA
HETATM   25  C8  UNL     1      26.985   7.143  48.689  1.00  0.00     0.056 A 
ENDBRANCH  20  21
ENDBRANCH  17  20
ENDBRANCH   1  15
TORSDOF 5
ENDMDL
MODEL 4
REMARK VINA RESULT:      -7.4      2.786      4.303
REMARK  5 active torsions:
REMARK  status: ('A' for Active; 'I' for Inactive)
REMARK       I    between atoms: C1_2  and  N1_3 
REMARK       I    between atoms: C1_2  and  N4_16 
REMARK    1  A    between atoms: N1_3  and  N2_4 
REMARK    2  A    between atoms: N2_4  and  C2_5 
REMARK    3  A    between atoms: C3_7  and  C4_8 
REMARK    4  A    between atoms: C4_8  and  C5_9 
REMARK    5  A    between atoms: N4_16  and  C10_17 
ROOT
HETATM    1  N2  UNL     1      23.169   6.185  51.698  1.00  0.00    -0.283 N 
HETATM    2  H2  UNL     1      22.114   6.305  51.741  1.00  0.00     0.188 HD
ENDROOT
BRANCH   1   3
HETATM    3  N1  UNL     1      23.782   5.344  52.664  1.00  0.00    -0.250 N 
HETATM    4  C1  UNL     1      24.143   3.976  52.383  1.00  0.00     0.339 C 
HETATM    5  O1  UNL     1      23.907   3.521  51.254  1.00  0.00    -0.245 OA
HETATM    6  N4  UNL     1      24.753   3.202  53.405  1.00  0.00    -0.308 N 
HETATM    7  H11 UNL     1      24.922   3.661  54.346  1.00  0.00     0.170 HD
HETATM    8  H1  UNL     1      23.964   5.765  53.604  1.00  0.00     0.192 HD
BRANCH   6   9
HETATM    9  C10 UNL     1      25.123   1.857  53.175  1.00  0.00     0.036 A 
HETATM   10  C11 UNL     1      24.332   0.737  53.377  1.00  0.00     0.029 A 
HETATM   11  C12 UNL     1      24.863  -0.523  53.094  1.00  0.00     0.002 A 
HETATM   12  C13 UNL     1      26.158  -0.663  52.620  1.00  0.00     0.000 A 
HETATM   13  C14 UNL     1      26.947   0.448  52.417  1.00  0.00     0.002 A 
HETATM   14  C15 UNL     1      26.411   1.691  52.700  1.00  0.00     0.029 A 
ENDBRANCH   6   9
ENDBRANCH   1   3
BRANCH   1  15
HETATM   15  C2  UNL     1      23.910   6.877  50.669  1.00  0.00     0.123 C 
HETATM   16  N3  UNL     1      25.167   6.886  50.645  1.00  0.00    -0.259 NA
HETATM   17  C3  UNL     1      25.825   7.583  49.610  1.00  0.00     0.175 C 
HETATM   18  S2  UNL     1      24.518   8.705  49.030  1.00  0.00    -0.134 SA
HETATM   19  C9  UNL     1      23.143   7.617  49.597  1.00  0.00     0.155 C 
BRANCH  17  20
HETATM   20  C4  UNL     1      26.214   6.742  48.426  1.00  0.00     0.077 C 
BRANCH  20  21
HETATM   21  C5  UNL     1      27.698   6.723  48.367  1.00  0.00    -0.048 A 
HETATM   22  C6  UNL     1      28.416   5.559  48.276  1.00  0.00     0.015 A 
HETATM   23  C7  UNL     1      29.840   5.656  48.229  1.00  0.00     0.050 A 
HETATM   24  S1  UNL     1      30.153   7.473  48.318  1.00  0.00    -0.113 SA
HETATM   25  C8  UNL     1      28.403   7.968  48.410  1.00  0.00     0.056 A 
ENDBRANCH  20  21
ENDBRANCH  17  20
ENDBRANCH   1  15
TORSDOF 5
ENDMDL
MODEL 5
REMARK VINA RESULT:      -7.1      2.722      3.981
REMARK  5 active torsions:
REMARK  status: ('A' for Active; 'I' for Inactive)
REMARK       I    between atoms: C1_2  and  N1_3 
REMARK       I    between atoms: C1_2  and  N4_16 
REMARK    1  A    between atoms: N1_3  and  N2_4 
REMARK    2  A    between atoms: N2_4  and  C2_5 
REMARK    3  A    between atoms: C3_7  and  C4_8 
REMARK    4  A    between atoms: C4_8  and  C5_9 
REMARK    5  A    between atoms: N4_16  and  C10_17 
ROOT
HETATM    1  N2  UNL     1      23.902   7.610  51.294  1.00  0.00    -0.283 N 
HETATM    2  H2  UNL     1      22.971   8.120  51.355  1.00  0.00     0.188 HD
ENDROOT
BRANCH   1   3
HETATM    3  N1  UNL     1      24.183   6.619  52.270  1.00  0.00    -0.250 N 
HETATM    4  C1  UNL     1      23.888   5.222  52.063  1.00  0.00     0.339 C 
HETATM    5  O1  UNL     1      23.369   4.878  50.991  1.00  0.00    -0.245 OA
HETATM    6  N4  UNL     1      24.201   4.293  53.090  1.00  0.00    -0.308 N 
HETATM    7  H11 UNL     1      24.644   4.663  53.980  1.00  0.00     0.170 HD
HETATM    8  H1  UNL     1      24.620   6.948  53.161  1.00  0.00     0.192 HD
BRANCH   6   9
HETATM    9  C10 UNL     1      23.929   2.915  52.931  1.00  0.00     0.036 A 
HETATM   10  C11 UNL     1      22.705   2.346  52.614  1.00  0.00     0.029 A 
HETATM   11  C12 UNL     1      22.618   0.957  52.496  1.00  0.00     0.002 A 
HETATM   12  C13 UNL     1      23.730   0.152  52.690  1.00  0.00     0.000 A 
HETATM   13  C14 UNL     1      24.948   0.715  53.004  1.00  0.00     0.002 A 
HETATM   14  C15 UNL     1      25.023   2.091  53.119  1.00  0.00     0.029 A 
ENDBRANCH   6   9
ENDBRANCH   1   3
BRANCH   1  15
HETATM   15  C2  UNL     1      24.816   7.954  50.230  1.00  0.00     0.123 C 
HETATM   16  N3  UNL     1      26.048   7.714  50.307  1.00  0.00    -0.259 NA
HETATM   17  C3  UNL     1      26.883   8.077  49.230  1.00  0.00     0.175 C 
HETATM   18  S2  UNL     1      25.864   9.312  48.370  1.00  0.00    -0.134 SA
HETATM   19  C9  UNL     1      24.269   8.628  48.993  1.00  0.00     0.155 C 
BRANCH  17  20
HETATM   20  C4  UNL     1      27.146   6.982  48.234  1.00  0.00     0.077 C 
BRANCH  20  21
HETATM   21  C5  UNL     1      28.617   6.782  48.177  1.00  0.00    -0.048 A 
HETATM   22  C6  UNL     1      29.188   5.537  48.110  1.00  0.00     0.015 A 
HETATM   23  C7  UNL     1      30.613   5.459  48.063  1.00  0.00     0.050 A 
HETATM   24  S1  UNL     1      31.145   7.226  48.117  1.00  0.00    -0.113 SA
HETATM   25  C8  UNL     1      29.468   7.932  48.197  1.00  0.00     0.056 A 
ENDBRANCH  20  21
ENDBRANCH  17  20
ENDBRANCH   1  15
TORSDOF 5
ENDMDL
MODEL 6
REMARK VINA RESULT:      -7.1      3.196      7.871
REMARK  5 active torsions:
REMARK  status: ('A' for Active; 'I' for Inactive)
REMARK       I    between atoms: C1_2  and  N1_3 
REMARK       I    between atoms: C1_2  and  N4_16 
REMARK    1  A    between atoms: N1_3  and  N2_4 
REMARK    2  A    between atoms: N2_4  and  C2_5 
REMARK    3  A    between atoms: C3_7  and  C4_8 
REMARK    4  A    between atoms: C4_8  and  C5_9 
REMARK    5  A    between atoms: N4_16  and  C10_17 
ROOT
HETATM    1  N2  UNL     1      27.144   5.142  48.658  1.00  0.00    -0.283 N 
HETATM    2  H2  UNL     1      26.833   5.119  47.642  1.00  0.00     0.188 HD
ENDROOT
BRANCH   1   3
HETATM    3  N1  UNL     1      28.178   6.045  49.017  1.00  0.00    -0.250 N 
HETATM    4  C1  UNL     1      29.544   5.870  48.586  1.00  0.00     0.339 C 
HETATM    5  O1  UNL     1      29.821   4.892  47.877  1.00  0.00    -0.245 OA
HETATM    6  N4  UNL     1      30.519   6.820  48.989  1.00  0.00    -0.308 N 
HETATM    7  H11 UNL     1      30.206   7.630  49.597  1.00  0.00     0.170 HD
HETATM    8  H1  UNL     1      27.905   6.857  49.616  1.00  0.00     0.192 HD
BRANCH   6   9
HETATM    9  C10 UNL     1      31.869   6.688  48.591  1.00  0.00     0.036 A 
HETATM   10  C11 UNL     1      32.785   5.764  49.071  1.00  0.00     0.029 A 
HETATM   11  C12 UNL     1      34.085   5.777  48.561  1.00  0.00     0.002 A 
HETATM   12  C13 UNL     1      34.464   6.694  47.593  1.00  0.00     0.000 A 
HETATM   13  C14 UNL     1      33.557   7.613  47.114  1.00  0.00     0.002 A 
HETATM   14  C15 UNL     1      32.272   7.591  47.625  1.00  0.00     0.029 A 
ENDBRANCH   6   9
ENDBRANCH   1   3
BRANCH   1  15
HETATM   15  C2  UNL     1      26.500   4.261  49.605  1.00  0.00     0.123 C 
HETATM   16  N3  UNL     1      27.002   3.157  49.936  1.00  0.00    -0.259 NA
HETATM   17  C3  UNL     1      26.318   2.347  50.866  1.00  0.00     0.175 C 
HETATM   18  S2  UNL     1      24.631   3.017  50.772  1.00  0.00    -0.134 SA
HETATM   19  C9  UNL     1      25.179   4.685  50.207  1.00  0.00     0.155 C 
BRANCH  17  20
HETATM   20  C4  UNL     1      26.757   2.512  52.295  1.00  0.00     0.077 C 
BRANCH  20  21
HETATM   21  C5  UNL     1      27.399   1.238  52.709  1.00  0.00    -0.048 A 
HETATM   22  C6  UNL     1      26.835   0.015  52.458  1.00  0.00     0.015 A 
HETATM   23  C7  UNL     1      27.537  -1.147  52.903  1.00  0.00     0.050 A 
HETATM   24  S1  UNL     1      29.049  -0.457  53.706  1.00  0.00    -0.113 SA
HETATM   25  C8  UNL     1      28.652   1.293  53.399  1.00  0.00     0.056 A 
ENDBRANCH  20  21
ENDBRANCH  17  20
ENDBRANCH   1  15
TORSDOF 5
ENDMDL
MODEL 7
REMARK VINA RESULT:      -7.1      2.866      4.740
REMARK  5 active torsions:
REMARK  status: ('A' for Active; 'I' for Inactive)
REMARK       I    between atoms: C1_2  and  N1_3 
REMARK       I    between atoms: C1_2  and  N4_16 
REMARK    1  A    between atoms: N1_3  and  N2_4 
REMARK    2  A    between atoms: N2_4  and  C2_5 
REMARK    3  A    between atoms: C3_7  and  C4_8 
REMARK    4  A    between atoms: C4_8  and  C5_9 
REMARK    5  A    between atoms: N4_16  and  C10_17 
ROOT
HETATM    1  N2  UNL     1      26.132   5.365  48.934  1.00  0.00    -0.283 N 
HETATM    2  H2  UNL     1      25.418   5.095  48.194  1.00  0.00     0.188 HD
ENDROOT
BRANCH   1   3
HETATM    3  N1  UNL     1      25.992   4.801  50.230  1.00  0.00    -0.250 N 
HETATM    4  C1  UNL     1      26.456   3.473  50.552  1.00  0.00     0.339 C 
HETATM    5  O1  UNL     1      26.996   2.802  49.660  1.00  0.00    -0.245 OA
HETATM    6  N4  UNL     1      26.278   2.984  51.872  1.00  0.00    -0.308 N 
HETATM    7  H11 UNL     1      25.806   3.617  52.580  1.00  0.00     0.170 HD
HETATM    8  H1  UNL     1      25.531   5.398  50.954  1.00  0.00     0.192 HD
BRANCH   6   9
HETATM    9  C10 UNL     1      26.716   1.689  52.232  1.00  0.00     0.036 A 
HETATM   10  C11 UNL     1      26.083   0.491  51.939  1.00  0.00     0.029 A 
HETATM   11  C12 UNL     1      26.662  -0.702  52.376  1.00  0.00     0.002 A 
HETATM   12  C13 UNL     1      27.849  -0.700  53.092  1.00  0.00     0.000 A 
HETATM   13  C14 UNL     1      28.481   0.488  53.385  1.00  0.00     0.002 A 
HETATM   14  C15 UNL     1      27.899   1.663  52.947  1.00  0.00     0.029 A 
ENDBRANCH   6   9
ENDBRANCH   1   3
BRANCH   1  15
HETATM   15  C2  UNL     1      27.193   6.279  48.581  1.00  0.00     0.123 C 
HETATM   16  N3  UNL     1      27.019   7.524  48.559  1.00  0.00    -0.259 NA
HETATM   17  C3  UNL     1      28.100   8.358  48.204  1.00  0.00     0.175 C 
HETATM   18  S2  UNL     1      29.197   7.196  47.338  1.00  0.00    -0.134 SA
HETATM   19  C9  UNL     1      28.548   5.714  48.222  1.00  0.00     0.155 C 
BRANCH  17  20
HETATM   20  C4  UNL     1      28.891   8.899  49.363  1.00  0.00     0.077 C 
BRANCH  20  21
HETATM   21  C5  UNL     1      29.174  10.329  49.075  1.00  0.00    -0.048 A 
HETATM   22  C6  UNL     1      30.439  10.852  49.126  1.00  0.00     0.015 A 
HETATM   23  C7  UNL     1      30.598  12.242  48.834  1.00  0.00     0.050 A 
HETATM   24  S1  UNL     1      28.878  12.807  48.476  1.00  0.00    -0.113 SA
HETATM   25  C8  UNL     1      28.083  11.190  48.734  1.00  0.00     0.056 A 
ENDBRANCH  20  21
ENDBRANCH  17  20
ENDBRANCH   1  15
TORSDOF 5
ENDMDL
MODEL 8
REMARK VINA RESULT:      -7.1      4.681      8.329
REMARK  5 active torsions:
REMARK  status: ('A' for Active; 'I' for Inactive)
REMARK       I    between atoms: C1_2  and  N1_3 
REMARK       I    between atoms: C1_2  and  N4_16 
REMARK    1  A    between atoms: N1_3  and  N2_4 
REMARK    2  A    between atoms: N2_4  and  C2_5 
REMARK    3  A    between atoms: C3_7  and  C4_8 
REMARK    4  A    between atoms: C4_8  and  C5_9 
REMARK    5  A    between atoms: N4_16  and  C10_17 
ROOT
HETATM    1  N2  UNL     1      23.101   5.100  52.614  1.00  0.00    -0.283 N 
HETATM    2  H2  UNL     1      22.215   5.503  53.041  1.00  0.00     0.188 HD
ENDROOT
BRANCH   1   3
HETATM    3  N1  UNL     1      24.182   5.986  52.366  1.00  0.00    -0.250 N 
HETATM    4  C1  UNL     1      24.534   6.427  51.038  1.00  0.00     0.339 C 
HETATM    5  O1  UNL     1      23.864   6.014  50.080  1.00  0.00    -0.245 OA
HETATM    6  N4  UNL     1      25.629   7.315  50.876  1.00  0.00    -0.308 N 
HETATM    7  H11 UNL     1      26.154   7.624  51.743  1.00  0.00     0.170 HD
HETATM    8  H1  UNL     1      24.723   6.312  53.200  1.00  0.00     0.192 HD
BRANCH   6   9
HETATM    9  C10 UNL     1      26.009   7.773  49.593  1.00  0.00     0.036 A 
HETATM   10  C11 UNL     1      25.535   8.903  48.946  1.00  0.00     0.029 A 
HETATM   11  C12 UNL     1      26.024   9.206  47.673  1.00  0.00     0.002 A 
HETATM   12  C13 UNL     1      26.967   8.397  47.059  1.00  0.00     0.000 A 
HETATM   13  C14 UNL     1      27.441   7.273  47.700  1.00  0.00     0.002 A 
HETATM   14  C15 UNL     1      26.950   6.983  48.959  1.00  0.00     0.029 A 
ENDBRANCH   6   9
ENDBRANCH   1   3
BRANCH   1  15
HETATM   15  C2  UNL     1      23.153   3.688  52.317  1.00  0.00     0.123 C 
HETATM   16  N3  UNL     1      24.240   3.058  52.258  1.00  0.00    -0.259 NA
HETATM   17  C3  UNL     1      24.215   1.680  51.962  1.00  0.00     0.175 C 
HETATM   18  S2  UNL     1      22.577   1.494  51.197  1.00  0.00    -0.134 SA
HETATM   19  C9  UNL     1      21.856   2.953  52.063  1.00  0.00     0.155 C 
BRANCH  17  20
HETATM   20  C4  UNL     1      24.225   0.773  53.161  1.00  0.00     0.077 C 
BRANCH  20  21
HETATM   21  C5  UNL     1      25.632   0.354  53.387  1.00  0.00    -0.048 A 
HETATM   22  C6  UNL     1      26.237  -0.623  52.640  1.00  0.00     0.015 A 
HETATM   23  C7  UNL     1      27.594  -0.950  52.944  1.00  0.00     0.050 A 
HETATM   24  S1  UNL     1      28.008   0.181  54.342  1.00  0.00    -0.113 SA
HETATM   25  C8  UNL     1      26.381   0.995  54.424  1.00  0.00     0.056 A 
ENDBRANCH  20  21
ENDBRANCH  17  20
ENDBRANCH   1  15
TORSDOF 5
ENDMDL
MODEL 9
REMARK VINA RESULT:      -7.1      2.371      3.775
REMARK  5 active torsions:
REMARK  status: ('A' for Active; 'I' for Inactive)
REMARK       I    between atoms: C1_2  and  N1_3 
REMARK       I    between atoms: C1_2  and  N4_16 
REMARK    1  A    between atoms: N1_3  and  N2_4 
REMARK    2  A    between atoms: N2_4  and  C2_5 
REMARK    3  A    between atoms: C3_7  and  C4_8 
REMARK    4  A    between atoms: C4_8  and  C5_9 
REMARK    5  A    between atoms: N4_16  and  C10_17 
ROOT
HETATM    1  N2  UNL     1      24.553   4.021  49.726  1.00  0.00    -0.283 N 
HETATM    2  H2  UNL     1      24.045   3.370  49.057  1.00  0.00     0.188 HD
ENDROOT
BRANCH   1   3
HETATM    3  N1  UNL     1      24.801   3.558  51.045  1.00  0.00    -0.250 N 
HETATM    4  C1  UNL     1      25.977   2.798  51.392  1.00  0.00     0.339 C 
HETATM    5  O1  UNL     1      26.800   2.541  50.501  1.00  0.00    -0.245 OA
HETATM    6  N4  UNL     1      26.150   2.373  52.735  1.00  0.00    -0.308 N 
HETATM    7  H11 UNL     1      25.402   2.631  53.441  1.00  0.00     0.170 HD
HETATM    8  H1  UNL     1      24.083   3.795  51.768  1.00  0.00     0.192 HD
BRANCH   6   9
HETATM    9  C10 UNL     1      27.287   1.626  53.119  1.00  0.00     0.036 A 
HETATM   10  C11 UNL     1      28.473   2.130  53.629  1.00  0.00     0.029 A 
HETATM   11  C12 UNL     1      29.498   1.240  53.958  1.00  0.00     0.002 A 
HETATM   12  C13 UNL     1      29.343  -0.126  53.780  1.00  0.00     0.000 A 
HETATM   13  C14 UNL     1      28.165  -0.630  53.273  1.00  0.00     0.002 A 
HETATM   14  C15 UNL     1      27.157   0.260  52.952  1.00  0.00     0.029 A 
ENDBRANCH   6   9
ENDBRANCH   1   3
BRANCH   1  15
HETATM   15  C2  UNL     1      24.957   5.326  49.258  1.00  0.00     0.123 C 
HETATM   16  N3  UNL     1      26.075   5.823  49.551  1.00  0.00    -0.259 NA
HETATM   17  C3  UNL     1      26.404   7.103  49.058  1.00  0.00     0.175 C 
HETATM   18  S2  UNL     1      24.766   7.774  48.646  1.00  0.00    -0.134 SA
HETATM   19  C9  UNL     1      23.999   6.116  48.395  1.00  0.00     0.155 C 
BRANCH  17  20
HETATM   20  C4  UNL     1      27.194   7.107  47.779  1.00  0.00     0.077 C 
BRANCH  20  21
HETATM   21  C5  UNL     1      28.630   7.010  48.148  1.00  0.00    -0.048 A 
HETATM   22  C6  UNL     1      29.326   5.832  48.090  1.00  0.00     0.015 A 
HETATM   23  C7  UNL     1      30.703   5.851  48.470  1.00  0.00     0.050 A 
HETATM   24  S1  UNL     1      31.001   7.615  48.923  1.00  0.00    -0.113 SA
HETATM   25  C8  UNL     1      29.308   8.193  48.582  1.00  0.00     0.056 A 
ENDBRANCH  20  21
ENDBRANCH  17  20
ENDBRANCH   1  15
TORSDOF 5
ENDMDL
