MODEL 1
REMARK VINA RESULT:      -7.6      0.000      0.000
REMARK  8 active torsions:
REMARK  status: ('A' for Active; 'I' for Inactive)
REMARK    1  A    between atoms: O1_2  and  C2_3 
REMARK    2  A    between atoms: C2_3  and  C3_4 
REMARK    3  A    between atoms: C3_4  and  O2_5 
REMARK    4  A    between atoms: O2_5  and  C4_6 
REMARK    5  A    between atoms: C9_11  and  O3_12 
REMARK    6  A    between atoms: O3_12  and  C10_13 
REMARK    7  A    between atoms: C10_13  and  C11_14 
REMARK    8  A    between atoms: C11_14  and  O4_15 
ROOT
HETATM    1  C4  UNL     1      25.716   0.117  52.825  1.00  0.00     0.104 A 
HETATM    2  C5  UNL     1      24.879  -0.578  53.700  1.00  0.00     0.072 A 
HETATM    3  C6  UNL     1      23.518  -0.355  53.732  1.00  0.00     0.072 A 
HETATM    4  C7  UNL     1      23.073   0.581  52.855  1.00  0.00     0.009 A 
HETATM    5  C8  UNL     1      23.809   1.346  51.922  1.00  0.00     0.054 A 
HETATM    6  C9  UNL     1      25.189   1.081  51.932  1.00  0.00     0.103 A 
HETATM    7  C13 UNL     1      21.670   1.036  52.713  1.00  0.00     0.019 C 
HETATM    8  C14 UNL     1      21.956   2.344  52.479  1.00  0.00    -0.010 C 
HETATM    9  C15 UNL     1      20.927   3.416  52.222  1.00  0.00     0.032 C 
HETATM   10  C16 UNL     1      20.153   3.167  50.982  1.00  0.00     0.032 C 
HETATM   11  C17 UNL     1      18.889   2.410  51.149  1.00  0.00    -0.009 C 
HETATM   12  C18 UNL     1      18.472   1.237  51.661  1.00  0.00     0.085 C 
HETATM   13  N1  UNL     1      19.188   0.160  52.312  1.00  0.00    -0.350 N 
HETATM   14  C19 UNL     1      20.502   0.159  52.880  1.00  0.00     0.139 C 
HETATM   15  N2  UNL     1      20.391  -0.882  53.679  1.00  0.00    -0.224 NA
HETATM   16  C20 UNL     1      21.451  -1.328  54.550  1.00  0.00     0.236 C 
HETATM   17  N3  UNL     1      22.744  -1.149  54.624  1.00  0.00    -0.241 NA
HETATM   18  H24 UNL     1      18.759  -0.774  52.430  1.00  0.00     0.166 HD
ENDROOT
BRANCH   1  19
HETATM   19  O2  UNL     1      27.045  -0.110  52.803  1.00  0.00    -0.346 OA
BRANCH  19  20
HETATM   20  C3  UNL     1      27.959  -0.624  53.676  1.00  0.00     0.201 C 
BRANCH  20  21
HETATM   21  C2  UNL     1      28.492   0.279  54.745  1.00  0.00     0.193 C 
BRANCH  21  22
HETATM   22  O1  UNL     1      28.115   1.612  54.608  1.00  0.00    -0.394 OA
HETATM   23  C1  UNL     1      29.003   2.375  53.871  1.00  0.00     0.201 C 
ENDBRANCH  21  22
ENDBRANCH  20  21
ENDBRANCH  19  20
ENDBRANCH   1  19
BRANCH   6  24
HETATM   24  O3  UNL     1      26.129   1.656  51.156  1.00  0.00    -0.346 OA
BRANCH  24  25
HETATM   25  C10 UNL     1      26.662   2.907  51.078  1.00  0.00     0.201 C 
BRANCH  25  26
HETATM   26  C11 UNL     1      26.285   3.623  49.814  1.00  0.00     0.193 C 
BRANCH  26  27
HETATM   27  O4  UNL     1      27.363   3.892  48.992  1.00  0.00    -0.394 OA
HETATM   28  C12 UNL     1      27.478   5.213  48.602  1.00  0.00     0.201 C 
ENDBRANCH  26  27
ENDBRANCH  25  26
ENDBRANCH  24  25
ENDBRANCH   6  24
TORSDOF 8
ENDMDL
MODEL 2
REMARK VINA RESULT:      -7.5      2.903      6.545
REMARK  8 active torsions:
REMARK  status: ('A' for Active; 'I' for Inactive)
REMARK    1  A    between atoms: O1_2  and  C2_3 
REMARK    2  A    between atoms: C2_3  and  C3_4 
REMARK    3  A    between atoms: C3_4  and  O2_5 
REMARK    4  A    between atoms: O2_5  and  C4_6 
REMARK    5  A    between atoms: C9_11  and  O3_12 
REMARK    6  A    between atoms: O3_12  and  C10_13 
REMARK    7  A    between atoms: C10_13  and  C11_14 
REMARK    8  A    between atoms: C11_14  and  O4_15 
ROOT
HETATM    1  C4  UNL     1      20.979   1.609  52.795  1.00  0.00     0.104 A 
HETATM    2  C5  UNL     1      21.116   0.463  53.582  1.00  0.00     0.072 A 
HETATM    3  C6  UNL     1      22.354  -0.059  53.893  1.00  0.00     0.072 A 
HETATM    4  C7  UNL     1      23.407   0.625  53.377  1.00  0.00     0.009 A 
HETATM    5  C8  UNL     1      23.404   1.789  52.576  1.00  0.00     0.054 A 
HETATM    6  C9  UNL     1      22.119   2.278  52.288  1.00  0.00     0.103 A 
HETATM    7  C13 UNL     1      24.835   0.257  53.526  1.00  0.00     0.019 C 
HETATM    8  C14 UNL     1      25.219   0.625  52.275  1.00  0.00    -0.010 C 
HETATM    9  C15 UNL     1      26.626   0.523  51.744  1.00  0.00     0.032 C 
HETATM   10  C16 UNL     1      27.575   1.382  52.493  1.00  0.00     0.032 C 
HETATM   11  C17 UNL     1      28.274   0.736  53.630  1.00  0.00    -0.009 C 
HETATM   12  C18 UNL     1      27.969   0.065  54.756  1.00  0.00     0.085 C 
HETATM   13  N1  UNL     1      26.698  -0.314  55.339  1.00  0.00    -0.350 N 
HETATM   14  C19 UNL     1      25.402  -0.359  54.735  1.00  0.00     0.139 C 
HETATM   15  N2  UNL     1      24.801  -1.179  55.571  1.00  0.00    -0.224 NA
HETATM   16  C20 UNL     1      23.434  -1.614  55.410  1.00  0.00     0.236 C 
HETATM   17  N3  UNL     1      22.390  -1.200  54.741  1.00  0.00    -0.241 NA
HETATM   18  H24 UNL     1      26.630  -0.615  56.327  1.00  0.00     0.166 HD
ENDROOT
BRANCH   1  19
HETATM   19  O2  UNL     1      19.762   2.110  52.499  1.00  0.00    -0.346 OA
BRANCH  19  20
HETATM   20  C3  UNL     1      18.778   1.810  51.604  1.00  0.00     0.201 C 
BRANCH  20  21
HETATM   21  C2  UNL     1      17.967   2.938  51.048  1.00  0.00     0.193 C 
BRANCH  21  22
HETATM   22  O1  UNL     1      17.545   3.862  52.001  1.00  0.00    -0.394 OA
HETATM   23  C1  UNL     1      16.178   4.077  52.009  1.00  0.00     0.201 C 
ENDBRANCH  21  22
ENDBRANCH  20  21
ENDBRANCH  19  20
ENDBRANCH   1  19
BRANCH   6  24
HETATM   24  O3  UNL     1      21.812   3.366  51.553  1.00  0.00    -0.346 OA
BRANCH  24  25
HETATM   25  C10 UNL     1      22.526   4.423  51.076  1.00  0.00     0.201 C 
BRANCH  25  26
HETATM   26  C11 UNL     1      22.800   4.326  49.604  1.00  0.00     0.193 C 
BRANCH  26  27
HETATM   27  O4  UNL     1      23.652   3.289  49.271  1.00  0.00    -0.394 OA
HETATM   28  C12 UNL     1      24.969   3.482  49.641  1.00  0.00     0.201 C 
ENDBRANCH  26  27
ENDBRANCH  25  26
ENDBRANCH  24  25
ENDBRANCH   6  24
TORSDOF 8
ENDMDL
MODEL 3
REMARK VINA RESULT:      -7.5      2.917      5.157
REMARK  8 active torsions:
REMARK  status: ('A' for Active; 'I' for Inactive)
REMARK    1  A    between atoms: O1_2  and  C2_3 
REMARK    2  A    between atoms: C2_3  and  C3_4 
REMARK    3  A    between atoms: C3_4  and  O2_5 
REMARK    4  A    between atoms: O2_5  and  C4_6 
REMARK    5  A    between atoms: C9_11  and  O3_12 
REMARK    6  A    between atoms: O3_12  and  C10_13 
REMARK    7  A    between atoms: C10_13  and  C11_14 
REMARK    8  A    between atoms: C11_14  and  O4_15 
ROOT
HETATM    1  C4  UNL     1      27.380   0.730  53.773  1.00  0.00     0.104 A 
HETATM    2  C5  UNL     1      27.605   1.542  52.659  1.00  0.00     0.072 A 
HETATM    3  C6  UNL     1      26.564   2.095  51.943  1.00  0.00     0.072 A 
HETATM    4  C7  UNL     1      25.326   1.786  52.406  1.00  0.00     0.009 A 
HETATM    5  C8  UNL     1      24.966   0.985  53.514  1.00  0.00     0.054 A 
HETATM    6  C9  UNL     1      26.063   0.447  54.207  1.00  0.00     0.103 A 
HETATM    7  C13 UNL     1      24.043   2.214  51.800  1.00  0.00     0.019 C 
HETATM    8  C14 UNL     1      23.368   1.058  52.036  1.00  0.00    -0.010 C 
HETATM    9  C15 UNL     1      21.928   0.813  51.663  1.00  0.00     0.032 C 
HETATM   10  C16 UNL     1      20.999   1.723  52.377  1.00  0.00     0.032 C 
HETATM   11  C17 UNL     1      20.658   2.981  51.672  1.00  0.00    -0.009 C 
HETATM   12  C18 UNL     1      21.287   4.035  51.119  1.00  0.00     0.085 C 
HETATM   13  N1  UNL     1      22.693   4.363  50.996  1.00  0.00    -0.350 N 
HETATM   14  C19 UNL     1      23.837   3.518  51.152  1.00  0.00     0.139 C 
HETATM   15  N2  UNL     1      24.724   4.232  50.490  1.00  0.00    -0.224 NA
HETATM   16  C20 UNL     1      26.091   3.812  50.295  1.00  0.00     0.236 C 
HETATM   17  N3  UNL     1      26.897   2.947  50.854  1.00  0.00    -0.241 NA
HETATM   18  H24 UNL     1      23.000   5.323  50.759  1.00  0.00     0.166 HD
ENDROOT
BRANCH   1  19
HETATM   19  O2  UNL     1      28.407   0.196  54.465  1.00  0.00    -0.346 OA
BRANCH  19  20
HETATM   20  C3  UNL     1      29.462  -0.616  54.170  1.00  0.00     0.201 C 
BRANCH  20  21
HETATM   21  C2  UNL     1      29.272  -1.653  53.107  1.00  0.00     0.193 C 
BRANCH  21  22
HETATM   22  O1  UNL     1      28.248  -2.560  53.369  1.00  0.00    -0.394 OA
HETATM   23  C1  UNL     1      27.205  -2.508  52.460  1.00  0.00     0.201 C 
ENDBRANCH  21  22
ENDBRANCH  20  21
ENDBRANCH  19  20
ENDBRANCH   1  19
BRANCH   6  24
HETATM   24  O3  UNL     1      26.022  -0.347  55.295  1.00  0.00    -0.346 OA
BRANCH  24  25
HETATM   25  C10 UNL     1      25.023  -0.815  56.093  1.00  0.00     0.201 C 
BRANCH  25  26
HETATM   26  C11 UNL     1      24.012  -1.634  55.343  1.00  0.00     0.193 C 
BRANCH  26  27
HETATM   27  O4  UNL     1      22.705  -1.305  55.647  1.00  0.00    -0.394 OA
HETATM   28  C12 UNL     1      21.807  -1.489  54.613  1.00  0.00     0.201 C 
ENDBRANCH  26  27
ENDBRANCH  25  26
ENDBRANCH  24  25
ENDBRANCH   6  24
TORSDOF 8
ENDMDL
MODEL 4
REMARK VINA RESULT:      -7.3      3.373      5.505
REMARK  8 active torsions:
REMARK  status: ('A' for Active; 'I' for Inactive)
REMARK    1  A    between atoms: O1_2  and  C2_3 
REMARK    2  A    between atoms: C2_3  and  C3_4 
REMARK    3  A    between atoms: C3_4  and  O2_5 
REMARK    4  A    between atoms: O2_5  and  C4_6 
REMARK    5  A    between atoms: C9_11  and  O3_12 
REMARK    6  A    between atoms: O3_12  and  C10_13 
REMARK    7  A    between atoms: C10_13  and  C11_14 
REMARK    8  A    between atoms: C11_14  and  O4_15 
ROOT
HETATM    1  C4  UNL     1      25.941   0.865  52.550  1.00  0.00     0.104 A 
HETATM    2  C5  UNL     1      26.686   1.678  51.692  1.00  0.00     0.072 A 
HETATM    3  C6  UNL     1      26.079   2.517  50.780  1.00  0.00     0.072 A 
HETATM    4  C7  UNL     1      24.722   2.483  50.789  1.00  0.00     0.009 A 
HETATM    5  C8  UNL     1      23.858   1.715  51.601  1.00  0.00     0.054 A 
HETATM    6  C9  UNL     1      24.526   0.878  52.511  1.00  0.00     0.103 A 
HETATM    7  C13 UNL     1      23.831   3.252  49.889  1.00  0.00     0.019 C 
HETATM    8  C14 UNL     1      22.895   2.279  49.732  1.00  0.00    -0.010 C 
HETATM    9  C15 UNL     1      21.643   2.417  48.903  1.00  0.00     0.032 C 
HETATM   10  C16 UNL     1      20.737   3.470  49.423  1.00  0.00     0.032 C 
HETATM   11  C17 UNL     1      20.915   4.821  48.841  1.00  0.00    -0.009 C 
HETATM   12  C18 UNL     1      21.894   5.729  48.671  1.00  0.00     0.085 C 
HETATM   13  N1  UNL     1      23.295   5.716  49.036  1.00  0.00    -0.350 N 
HETATM   14  C19 UNL     1      24.124   4.611  49.409  1.00  0.00     0.139 C 
HETATM   15  N2  UNL     1      25.307   5.135  49.165  1.00  0.00    -0.224 NA
HETATM   16  C20 UNL     1      26.544   4.414  49.340  1.00  0.00     0.236 C 
HETATM   17  N3  UNL     1      26.923   3.341  49.985  1.00  0.00    -0.241 NA
HETATM   18  H24 UNL     1      23.854   6.588  49.050  1.00  0.00     0.166 HD
ENDROOT
BRANCH   1  19
HETATM   19  O2  UNL     1      26.546   0.049  53.437  1.00  0.00    -0.346 OA
BRANCH  19  20
HETATM   20  C3  UNL     1      27.079   0.192  54.684  1.00  0.00     0.201 C 
BRANCH  20  21
HETATM   21  C2  UNL     1      28.570   0.242  54.809  1.00  0.00     0.193 C 
BRANCH  21  22
HETATM   22  O1  UNL     1      29.075   1.501  55.123  1.00  0.00    -0.394 OA
HETATM   23  C1  UNL     1      29.244   2.329  54.027  1.00  0.00     0.201 C 
ENDBRANCH  21  22
ENDBRANCH  20  21
ENDBRANCH  19  20
ENDBRANCH   1  19
BRANCH   6  24
HETATM   24  O3  UNL     1      23.964   0.039  53.404  1.00  0.00    -0.346 OA
BRANCH  24  25
HETATM   25  C10 UNL     1      22.701  -0.429  53.603  1.00  0.00     0.201 C 
BRANCH  25  26
HETATM   26  C11 UNL     1      22.553  -1.181  54.894  1.00  0.00     0.193 C 
BRANCH  26  27
HETATM   27  O4  UNL     1      21.348  -1.847  55.007  1.00  0.00    -0.394 OA
HETATM   28  C12 UNL     1      20.396  -1.483  54.074  1.00  0.00     0.201 C 
ENDBRANCH  26  27
ENDBRANCH  25  26
ENDBRANCH  24  25
ENDBRANCH   6  24
TORSDOF 8
ENDMDL
MODEL 5
REMARK VINA RESULT:      -7.3      3.063      6.582
REMARK  8 active torsions:
REMARK  status: ('A' for Active; 'I' for Inactive)
REMARK    1  A    between atoms: O1_2  and  C2_3 
REMARK    2  A    between atoms: C2_3  and  C3_4 
REMARK    3  A    between atoms: C3_4  and  O2_5 
REMARK    4  A    between atoms: O2_5  and  C4_6 
REMARK    5  A    between atoms: C9_11  and  O3_12 
REMARK    6  A    between atoms: O3_12  and  C10_13 
REMARK    7  A    between atoms: C10_13  and  C11_14 
REMARK    8  A    between atoms: C11_14  and  O4_15 
ROOT
HETATM    1  C4  UNL     1      20.875   1.021  52.863  1.00  0.00     0.104 A 
HETATM    2  C5  UNL     1      21.112  -0.011  53.774  1.00  0.00     0.072 A 
HETATM    3  C6  UNL     1      22.392  -0.406  54.105  1.00  0.00     0.072 A 
HETATM    4  C7  UNL     1      23.381   0.282  53.479  1.00  0.00     0.009 A 
HETATM    5  C8  UNL     1      23.276   1.340  52.547  1.00  0.00     0.054 A 
HETATM    6  C9  UNL     1      21.952   1.702  52.246  1.00  0.00     0.103 A 
HETATM    7  C13 UNL     1      24.834   0.034  53.624  1.00  0.00     0.019 C 
HETATM    8  C14 UNL     1      25.162   0.276  52.327  1.00  0.00    -0.010 C 
HETATM    9  C15 UNL     1      26.560   0.208  51.768  1.00  0.00     0.032 C 
HETATM   10  C16 UNL     1      27.462   1.213  52.381  1.00  0.00     0.032 C 
HETATM   11  C17 UNL     1      28.232   0.756  53.563  1.00  0.00    -0.009 C 
HETATM   12  C18 UNL     1      28.002   0.205  54.769  1.00  0.00     0.085 C 
HETATM   13  N1  UNL     1      26.776  -0.189  55.432  1.00  0.00    -0.350 N 
HETATM   14  C19 UNL     1      25.473  -0.394  54.879  1.00  0.00     0.139 C 
HETATM   15  N2  UNL     1      24.952  -1.148  55.824  1.00  0.00    -0.224 NA
HETATM   16  C20 UNL     1      23.617  -1.691  55.759  1.00  0.00     0.236 C 
HETATM   17  N3  UNL     1      22.530  -1.433  55.079  1.00  0.00    -0.241 NA
HETATM   18  H24 UNL     1      26.753  -0.373  56.451  1.00  0.00     0.166 HD
ENDROOT
BRANCH   1  19
HETATM   19  O2  UNL     1      19.619   1.399  52.549  1.00  0.00    -0.346 OA
BRANCH  19  20
HETATM   20  C3  UNL     1      18.648   0.942  51.708  1.00  0.00     0.201 C 
BRANCH  20  21
HETATM   21  C2  UNL     1      18.209  -0.482  51.851  1.00  0.00     0.193 C 
BRANCH  21  22
HETATM   22  O1  UNL     1      17.668  -0.790  53.097  1.00  0.00    -0.394 OA
HETATM   23  C1  UNL     1      17.905  -2.090  53.508  1.00  0.00     0.201 C 
ENDBRANCH  21  22
ENDBRANCH  20  21
ENDBRANCH  19  20
ENDBRANCH   1  19
BRANCH   6  24
HETATM   24  O3  UNL     1      21.550   2.670  51.398  1.00  0.00    -0.346 OA
BRANCH  24  25
HETATM   25  C10 UNL     1      21.676   2.872  50.057  1.00  0.00     0.201 C 
BRANCH  25  26
HETATM   26  C11 UNL     1      21.746   4.325  49.689  1.00  0.00     0.193 C 
BRANCH  26  27
HETATM   27  O4  UNL     1      22.430   5.093  50.613  1.00  0.00    -0.394 OA
HETATM   28  C12 UNL     1      21.714   6.160  51.122  1.00  0.00     0.201 C 
ENDBRANCH  26  27
ENDBRANCH  25  26
ENDBRANCH  24  25
ENDBRANCH   6  24
TORSDOF 8
ENDMDL
MODEL 6
REMARK VINA RESULT:      -6.8      3.829      6.727
REMARK  8 active torsions:
REMARK  status: ('A' for Active; 'I' for Inactive)
REMARK    1  A    between atoms: O1_2  and  C2_3 
REMARK    2  A    between atoms: C2_3  and  C3_4 
REMARK    3  A    between atoms: C3_4  and  O2_5 
REMARK    4  A    between atoms: O2_5  and  C4_6 
REMARK    5  A    between atoms: C9_11  and  O3_12 
REMARK    6  A    between atoms: O3_12  and  C10_13 
REMARK    7  A    between atoms: C10_13  and  C11_14 
REMARK    8  A    between atoms: C11_14  and  O4_15 
ROOT
HETATM    1  C4  UNL     1      22.187   0.754  53.226  1.00  0.00     0.104 A 
HETATM    2  C5  UNL     1      23.513   0.348  53.065  1.00  0.00     0.072 A 
HETATM    3  C6  UNL     1      24.375   1.010  52.215  1.00  0.00     0.072 A 
HETATM    4  C7  UNL     1      23.831   2.068  51.561  1.00  0.00     0.009 A 
HETATM    5  C8  UNL     1      22.515   2.579  51.638  1.00  0.00     0.054 A 
HETATM    6  C9  UNL     1      21.680   1.869  52.517  1.00  0.00     0.103 A 
HETATM    7  C13 UNL     1      24.523   2.920  50.567  1.00  0.00     0.019 C 
HETATM    8  C14 UNL     1      23.455   3.094  49.743  1.00  0.00    -0.010 C 
HETATM    9  C15 UNL     1      23.471   3.914  48.479  1.00  0.00     0.032 C 
HETATM   10  C16 UNL     1      23.742   5.349  48.741  1.00  0.00     0.032 C 
HETATM   11  C17 UNL     1      25.164   5.761  48.673  1.00  0.00    -0.009 C 
HETATM   12  C18 UNL     1      26.344   5.423  49.226  1.00  0.00     0.085 C 
HETATM   13  N1  UNL     1      26.696   4.414  50.204  1.00  0.00    -0.350 N 
HETATM   14  C19 UNL     1      25.948   3.276  50.641  1.00  0.00     0.139 C 
HETATM   15  N2  UNL     1      26.929   2.549  51.135  1.00  0.00    -0.224 NA
HETATM   16  C20 UNL     1      26.735   1.235  51.698  1.00  0.00     0.236 C 
HETATM   17  N3  UNL     1      25.720   0.549  52.156  1.00  0.00    -0.241 NA
HETATM   18  H24 UNL     1      27.605   4.444  50.700  1.00  0.00     0.166 HD
ENDROOT
BRANCH   1  19
HETATM   19  O2  UNL     1      21.354   0.099  54.061  1.00  0.00    -0.346 OA
BRANCH  19  20
HETATM   20  C3  UNL     1      20.719  -1.108  54.053  1.00  0.00     0.201 C 
BRANCH  20  21
HETATM   21  C2  UNL     1      19.308  -1.155  53.556  1.00  0.00     0.193 C 
BRANCH  21  22
HETATM   22  O1  UNL     1      18.627  -2.327  53.877  1.00  0.00    -0.394 OA
HETATM   23  C1  UNL     1      17.373  -2.426  53.300  1.00  0.00     0.201 C 
ENDBRANCH  21  22
ENDBRANCH  20  21
ENDBRANCH  19  20
ENDBRANCH   1  19
BRANCH   6  24
HETATM   24  O3  UNL     1      20.385   2.127  52.790  1.00  0.00    -0.346 OA
BRANCH  24  25
HETATM   25  C10 UNL     1      19.255   2.219  52.035  1.00  0.00     0.201 C 
BRANCH  25  26
HETATM   26  C11 UNL     1      19.008   3.607  51.520  1.00  0.00     0.193 C 
BRANCH  26  27
HETATM   27  O4  UNL     1      19.627   3.863  50.311  1.00  0.00    -0.394 OA
HETATM   28  C12 UNL     1      19.156   3.113  49.250  1.00  0.00     0.201 C 
ENDBRANCH  26  27
ENDBRANCH  25  26
ENDBRANCH  24  25
ENDBRANCH   6  24
TORSDOF 8
ENDMDL
MODEL 7
REMARK VINA RESULT:      -6.7      2.471      4.583
REMARK  8 active torsions:
REMARK  status: ('A' for Active; 'I' for Inactive)
REMARK    1  A    between atoms: O1_2  and  C2_3 
REMARK    2  A    between atoms: C2_3  and  C3_4 
REMARK    3  A    between atoms: C3_4  and  O2_5 
REMARK    4  A    between atoms: O2_5  and  C4_6 
REMARK    5  A    between atoms: C9_11  and  O3_12 
REMARK    6  A    between atoms: O3_12  and  C10_13 
REMARK    7  A    between atoms: C10_13  and  C11_14 
REMARK    8  A    between atoms: C11_14  and  O4_15 
ROOT
HETATM    1  C4  UNL     1      25.367   3.195  49.952  1.00  0.00     0.104 A 
HETATM    2  C5  UNL     1      26.025   2.667  51.065  1.00  0.00     0.072 A 
HETATM    3  C6  UNL     1      25.356   1.933  52.022  1.00  0.00     0.072 A 
HETATM    4  C7  UNL     1      24.028   1.772  51.792  1.00  0.00     0.009 A 
HETATM    5  C8  UNL     1      23.249   2.247  50.713  1.00  0.00     0.054 A 
HETATM    6  C9  UNL     1      23.978   2.989  49.769  1.00  0.00     0.103 A 
HETATM    7  C13 UNL     1      23.076   1.063  52.679  1.00  0.00     0.019 C 
HETATM    8  C14 UNL     1      22.027   1.905  52.482  1.00  0.00    -0.010 C 
HETATM    9  C15 UNL     1      20.668   1.746  53.114  1.00  0.00     0.032 C 
HETATM   10  C16 UNL     1      19.991   0.498  52.686  1.00  0.00     0.032 C 
HETATM   11  C17 UNL     1      20.205  -0.685  53.554  1.00  0.00    -0.009 C 
HETATM   12  C18 UNL     1      21.228  -1.397  54.059  1.00  0.00     0.085 C 
HETATM   13  N1  UNL     1      22.663  -1.253  53.925  1.00  0.00    -0.350 N 
HETATM   14  C19 UNL     1      23.422  -0.129  53.468  1.00  0.00     0.139 C 
HETATM   15  N2  UNL     1      24.590  -0.426  53.998  1.00  0.00    -0.224 NA
HETATM   16  C20 UNL     1      25.753   0.419  53.876  1.00  0.00     0.236 C 
HETATM   17  N3  UNL     1      26.125   1.397  53.093  1.00  0.00    -0.241 NA
HETATM   18  H24 UNL     1      23.305  -2.024  54.179  1.00  0.00     0.166 HD
ENDROOT
BRANCH   1  19
HETATM   19  O2  UNL     1      26.032   3.911  49.022  1.00  0.00    -0.346 OA
BRANCH  19  20
HETATM   20  C3  UNL     1      27.225   4.569  48.972  1.00  0.00     0.201 C 
BRANCH  20  21
HETATM   21  C2  UNL     1      27.214   6.011  48.570  1.00  0.00     0.193 C 
BRANCH  21  22
HETATM   22  O1  UNL     1      28.464   6.515  48.218  1.00  0.00    -0.394 OA
HETATM   23  C1  UNL     1      29.454   5.553  48.129  1.00  0.00     0.201 C 
ENDBRANCH  21  22
ENDBRANCH  20  21
ENDBRANCH  19  20
ENDBRANCH   1  19
BRANCH   6  24
HETATM   24  O3  UNL     1      23.501   3.560  48.644  1.00  0.00    -0.346 OA
BRANCH  24  25
HETATM   25  C10 UNL     1      22.652   4.594  48.391  1.00  0.00     0.201 C 
BRANCH  25  26
HETATM   26  C11 UNL     1      23.225   5.928  48.772  1.00  0.00     0.193 C 
BRANCH  26  27
HETATM   27  O4  UNL     1      23.029   6.250  50.102  1.00  0.00    -0.394 OA
HETATM   28  C12 UNL     1      24.170   6.641  50.777  1.00  0.00     0.201 C 
ENDBRANCH  26  27
ENDBRANCH  25  26
ENDBRANCH  24  25
ENDBRANCH   6  24
TORSDOF 8
ENDMDL
MODEL 8
REMARK VINA RESULT:      -6.7      4.180      6.426
REMARK  8 active torsions:
REMARK  status: ('A' for Active; 'I' for Inactive)
REMARK    1  A    between atoms: O1_2  and  C2_3 
REMARK    2  A    between atoms: C2_3  and  C3_4 
REMARK    3  A    between atoms: C3_4  and  O2_5 
REMARK    4  A    between atoms: O2_5  and  C4_6 
REMARK    5  A    between atoms: C9_11  and  O3_12 
REMARK    6  A    between atoms: O3_12  and  C10_13 
REMARK    7  A    between atoms: C10_13  and  C11_14 
REMARK    8  A    between atoms: C11_14  and  O4_15 
ROOT
HETATM    1  C4  UNL     1      25.719   2.036  51.738  1.00  0.00     0.104 A 
HETATM    2  C5  UNL     1      26.654   2.508  50.814  1.00  0.00     0.072 A 
HETATM    3  C6  UNL     1      26.388   3.593  50.003  1.00  0.00     0.072 A 
HETATM    4  C7  UNL     1      25.162   4.148  50.178  1.00  0.00     0.009 A 
HETATM    5  C8  UNL     1      24.135   3.771  51.073  1.00  0.00     0.054 A 
HETATM    6  C9  UNL     1      24.457   2.662  51.873  1.00  0.00     0.103 A 
HETATM    7  C13 UNL     1      24.612   5.291  49.413  1.00  0.00     0.019 C 
HETATM    8  C14 UNL     1      23.333   4.833  49.350  1.00  0.00    -0.010 C 
HETATM    9  C15 UNL     1      22.193   5.560  48.684  1.00  0.00     0.032 C 
HETATM   10  C16 UNL     1      21.896   6.860  49.336  1.00  0.00     0.032 C 
HETATM   11  C17 UNL     1      22.589   8.040  48.768  1.00  0.00    -0.009 C 
HETATM   12  C18 UNL     1      23.844   8.446  48.499  1.00  0.00     0.085 C 
HETATM   13  N1  UNL     1      25.127   7.801  48.688  1.00  0.00    -0.350 N 
HETATM   14  C19 UNL     1      25.421   6.422  48.931  1.00  0.00     0.139 C 
HETATM   15  N2  UNL     1      26.683   6.399  48.556  1.00  0.00    -0.224 NA
HETATM   16  C20 UNL     1      27.489   5.203  48.561  1.00  0.00     0.236 C 
HETATM   17  N3  UNL     1      27.423   4.027  49.129  1.00  0.00    -0.241 NA
HETATM   18  H24 UNL     1      26.009   8.342  48.653  1.00  0.00     0.166 HD
ENDROOT
BRANCH   1  19
HETATM   19  O2  UNL     1      25.992   0.975  52.525  1.00  0.00    -0.346 OA
BRANCH  19  20
HETATM   20  C3  UNL     1      26.367  -0.319  52.318  1.00  0.00     0.201 C 
BRANCH  20  21
HETATM   21  C2  UNL     1      27.567  -0.828  53.055  1.00  0.00     0.193 C 
BRANCH  21  22
HETATM   22  O1  UNL     1      27.563  -0.544  54.418  1.00  0.00    -0.394 OA
HETATM   23  C1  UNL     1      28.656   0.190  54.843  1.00  0.00     0.201 C 
ENDBRANCH  21  22
ENDBRANCH  20  21
ENDBRANCH  19  20
ENDBRANCH   1  19
BRANCH   6  24
HETATM   24  O3  UNL     1      23.677   2.086  52.810  1.00  0.00    -0.346 OA
BRANCH  24  25
HETATM   25  C10 UNL     1      22.502   1.398  52.776  1.00  0.00     0.201 C 
BRANCH  25  26
HETATM   26  C11 UNL     1      22.522   0.166  53.634  1.00  0.00     0.193 C 
BRANCH  26  27
HETATM   27  O4  UNL     1      21.388   0.020  54.411  1.00  0.00    -0.394 OA
HETATM   28  C12 UNL     1      20.237  -0.273  53.705  1.00  0.00     0.201 C 
ENDBRANCH  26  27
ENDBRANCH  25  26
ENDBRANCH  24  25
ENDBRANCH   6  24
TORSDOF 8
ENDMDL
MODEL 9
REMARK VINA RESULT:      -6.6      2.748      4.894
REMARK  8 active torsions:
REMARK  status: ('A' for Active; 'I' for Inactive)
REMARK    1  A    between atoms: O1_2  and  C2_3 
REMARK    2  A    between atoms: C2_3  and  C3_4 
REMARK    3  A    between atoms: C3_4  and  O2_5 
REMARK    4  A    between atoms: O2_5  and  C4_6 
REMARK    5  A    between atoms: C9_11  and  O3_12 
REMARK    6  A    between atoms: O3_12  and  C10_13 
REMARK    7  A    between atoms: C10_13  and  C11_14 
REMARK    8  A    between atoms: C11_14  and  O4_15 
ROOT
HETATM    1  C4  UNL     1      25.620   3.143  50.051  1.00  0.00     0.104 A 
HETATM    2  C5  UNL     1      26.276   2.694  51.200  1.00  0.00     0.072 A 
HETATM    3  C6  UNL     1      25.620   1.967  52.171  1.00  0.00     0.072 A 
HETATM    4  C7  UNL     1      24.307   1.732  51.918  1.00  0.00     0.009 A 
HETATM    5  C8  UNL     1      23.532   2.125  50.803  1.00  0.00     0.054 A 
HETATM    6  C9  UNL     1      24.248   2.863  49.846  1.00  0.00     0.103 A 
HETATM    7  C13 UNL     1      23.368   1.014  52.812  1.00  0.00     0.019 C 
HETATM    8  C14 UNL     1      22.285   1.795  52.557  1.00  0.00    -0.010 C 
HETATM    9  C15 UNL     1      20.920   1.595  53.164  1.00  0.00     0.032 C 
HETATM   10  C16 UNL     1      20.314   0.299  52.773  1.00  0.00     0.032 C 
HETATM   11  C17 UNL     1      20.563  -0.836  53.693  1.00  0.00    -0.009 C 
HETATM   12  C18 UNL     1      21.607  -1.477  54.251  1.00  0.00     0.085 C 
HETATM   13  N1  UNL     1      23.036  -1.268  54.143  1.00  0.00    -0.350 N 
HETATM   14  C19 UNL     1      23.751  -0.127  53.658  1.00  0.00     0.139 C 
HETATM   15  N2  UNL     1      24.919  -0.346  54.225  1.00  0.00    -0.224 NA
HETATM   16  C20 UNL     1      26.043   0.550  54.095  1.00  0.00     0.236 C 
HETATM   17  N3  UNL     1      26.387   1.513  53.280  1.00  0.00    -0.241 NA
HETATM   18  H24 UNL     1      23.708  -1.996  54.444  1.00  0.00     0.166 HD
ENDROOT
BRANCH   1  19
HETATM   19  O2  UNL     1      26.273   3.853  49.108  1.00  0.00    -0.346 OA
BRANCH  19  20
HETATM   20  C3  UNL     1      26.765   5.121  49.012  1.00  0.00     0.201 C 
BRANCH  20  21
HETATM   21  C2  UNL     1      25.802   6.259  49.148  1.00  0.00     0.193 C 
BRANCH  21  22
HETATM   22  O1  UNL     1      25.615   6.696  50.457  1.00  0.00    -0.394 OA
HETATM   23  C1  UNL     1      24.287   6.794  50.833  1.00  0.00     0.201 C 
ENDBRANCH  21  22
ENDBRANCH  20  21
ENDBRANCH  19  20
ENDBRANCH   1  19
BRANCH   6  24
HETATM   24  O3  UNL     1      23.772   3.364  48.688  1.00  0.00    -0.346 OA
BRANCH  24  25
HETATM   25  C10 UNL     1      22.627   4.010  48.332  1.00  0.00     0.201 C 
BRANCH  25  26
HETATM   26  C11 UNL     1      21.959   3.397  47.136  1.00  0.00     0.193 C 
BRANCH  26  27
HETATM   27  O4  UNL     1      21.350   4.325  46.312  1.00  0.00    -0.394 OA
HETATM   28  C12 UNL     1      21.328   3.983  44.973  1.00  0.00     0.201 C 
ENDBRANCH  26  27
ENDBRANCH  25  26
ENDBRANCH  24  25
ENDBRANCH   6  24
TORSDOF 8
ENDMDL
