MODEL 1
REMARK VINA RESULT:      -6.7      0.000      0.000
REMARK  8 active torsions:
REMARK  status: ('A' for Active; 'I' for Inactive)
REMARK    1  A    between atoms: O1_2  and  C2_3 
REMARK    2  A    between atoms: C5_6  and  N1_7 
REMARK       I    between atoms: N1_7  and  C6_8 
REMARK    3  A    between atoms: C6_8  and  C7_10 
REMARK    4  A    between atoms: C10_13  and  N2_14 
REMARK    5  A    between atoms: N2_14  and  C11_15 
REMARK    6  A    between atoms: N2_14  and  C13_18 
REMARK    7  A    between atoms: C11_15  and  C12_16 
REMARK    8  A    between atoms: C13_18  and  C14_19 
ROOT
HETATM    1  C7  UNL     1      26.494   5.065  49.078  1.00  0.00     0.032 A 
HETATM    2  C8  UNL     1      27.821   4.921  48.741  1.00  0.00     0.019 A 
HETATM    3  C9  UNL     1      28.464   5.953  48.095  1.00  0.00     0.030 A 
HETATM    4  C10 UNL     1      27.887   7.153  47.740  1.00  0.00     0.030 A 
HETATM    5  C15 UNL     1      26.568   7.246  48.096  1.00  0.00     0.030 A 
HETATM    6  C16 UNL     1      25.874   6.246  48.744  1.00  0.00     0.019 A 
ENDROOT
BRANCH   1   7
HETATM    7  C6  UNL     1      25.840   3.958  49.762  1.00  0.00     0.252 C 
HETATM    8  N1  UNL     1      26.243   3.437  51.020  1.00  0.00    -0.349 N 
HETATM    9  H8  UNL     1      27.062   3.862  51.505  1.00  0.00     0.163 HD
HETATM   10  O2  UNL     1      24.846   3.396  49.239  1.00  0.00    -0.268 OA
BRANCH   8  11
HETATM   11  C5  UNL     1      25.577   2.333  51.681  1.00  0.00     0.111 A 
HETATM   12  C4  UNL     1      25.411   2.646  53.124  1.00  0.00     0.059 A 
HETATM   13  C3  UNL     1      26.089   1.669  54.018  1.00  0.00     0.012 A 
HETATM   14  C2  UNL     1      26.800   0.587  53.701  1.00  0.00     0.064 A 
HETATM   15  C18 UNL     1      26.940   0.313  52.275  1.00  0.00     0.034 A 
HETATM   16  C17 UNL     1      26.370   1.129  51.405  1.00  0.00     0.001 A 
BRANCH  14  17
HETATM   17  O1  UNL     1      27.319  -0.145  54.741  1.00  0.00    -0.356 OA
HETATM   18  C1  UNL     1      28.730  -0.121  54.970  1.00  0.00     0.210 C 
ENDBRANCH  14  17
ENDBRANCH   8  11
ENDBRANCH   1   7
BRANCH   4  19
HETATM   19  N2  UNL     1      28.568   8.210  47.075  1.00  0.00    -0.379 N 
BRANCH  19  20
HETATM   20  C11 UNL     1      28.893   9.471  47.666  1.00  0.00     0.138 C 
BRANCH  20  21
HETATM   21  C12 UNL     1      29.293   9.376  49.130  1.00  0.00     0.134 C 
HETATM   22 CL1  UNL     1      30.890   8.637  49.333  1.00  0.00    -0.129 Cl
ENDBRANCH  20  21
ENDBRANCH  19  20
BRANCH  19  23
HETATM   23  C13 UNL     1      29.025   8.158  45.728  1.00  0.00     0.138 C 
BRANCH  23  24
HETATM   24  C14 UNL     1      30.491   8.329  45.518  1.00  0.00     0.134 C 
HETATM   25 CL2  UNL     1      31.458   7.041  46.242  1.00  0.00    -0.129 Cl
ENDBRANCH  23  24
ENDBRANCH  19  23
ENDBRANCH   4  19
TORSDOF 8
ENDMDL
MODEL 2
REMARK VINA RESULT:      -6.6      4.356      9.070
REMARK  8 active torsions:
REMARK  status: ('A' for Active; 'I' for Inactive)
REMARK    1  A    between atoms: O1_2  and  C2_3 
REMARK    2  A    between atoms: C5_6  and  N1_7 
REMARK       I    between atoms: N1_7  and  C6_8 
REMARK    3  A    between atoms: C6_8  and  C7_10 
REMARK    4  A    between atoms: C10_13  and  N2_14 
REMARK    5  A    between atoms: N2_14  and  C11_15 
REMARK    6  A    between atoms: N2_14  and  C13_18 
REMARK    7  A    between atoms: C11_15  and  C12_16 
REMARK    8  A    between atoms: C13_18  and  C14_19 
ROOT
HETATM    1  C7  UNL     1      25.048   3.268  50.726  1.00  0.00     0.032 A 
HETATM    2  C8  UNL     1      23.839   2.957  51.306  1.00  0.00     0.019 A 
HETATM    3  C9  UNL     1      23.746   1.836  52.100  1.00  0.00     0.030 A 
HETATM    4  C10 UNL     1      24.780   0.968  52.378  1.00  0.00     0.030 A 
HETATM    5  C15 UNL     1      25.959   1.321  51.778  1.00  0.00     0.030 A 
HETATM    6  C16 UNL     1      26.110   2.432  50.973  1.00  0.00     0.019 A 
ENDROOT
BRANCH   1   7
HETATM    7  C6  UNL     1      25.117   4.460  49.892  1.00  0.00     0.252 C 
HETATM    8  N1  UNL     1      26.096   5.481  50.024  1.00  0.00    -0.349 N 
HETATM    9  H8  UNL     1      26.826   5.390  50.764  1.00  0.00     0.163 HD
HETATM   10  O2  UNL     1      24.272   4.638  48.980  1.00  0.00    -0.268 OA
BRANCH   8  11
HETATM   11  C5  UNL     1      26.144   6.660  49.183  1.00  0.00     0.111 A 
HETATM   12  C4  UNL     1      27.346   6.598  48.310  1.00  0.00     0.059 A 
HETATM   13  C3  UNL     1      28.278   7.738  48.514  1.00  0.00     0.012 A 
HETATM   14  C2  UNL     1      28.177   8.772  49.349  1.00  0.00     0.064 A 
HETATM   15  C18 UNL     1      26.985   8.798  50.189  1.00  0.00     0.034 A 
HETATM   16  C17 UNL     1      26.099   7.824  50.076  1.00  0.00     0.001 A 
BRANCH  14  17
HETATM   17  O1  UNL     1      29.198   9.692  49.330  1.00  0.00    -0.356 OA
HETATM   18  C1  UNL     1      30.547   9.230  49.242  1.00  0.00     0.210 C 
ENDBRANCH  14  17
ENDBRANCH   8  11
ENDBRANCH   1   7
BRANCH   4  19
HETATM   19  N2  UNL     1      24.667  -0.184  53.203  1.00  0.00    -0.379 N 
BRANCH  19  20
HETATM   20  C11 UNL     1      25.738  -0.754  53.960  1.00  0.00     0.138 C 
BRANCH  20  21
HETATM   21  C12 UNL     1      26.344   0.199  54.978  1.00  0.00     0.134 C 
HETATM   22 CL1  UNL     1      28.105   0.297  54.829  1.00  0.00    -0.129 Cl
ENDBRANCH  20  21
ENDBRANCH  19  20
BRANCH  19  23
HETATM   23  C13 UNL     1      23.469  -0.929  53.396  1.00  0.00     0.138 C 
BRANCH  23  24
HETATM   24  C14 UNL     1      22.805  -0.787  54.723  1.00  0.00     0.134 C 
HETATM   25 CL2  UNL     1      21.248   0.042  54.644  1.00  0.00    -0.129 Cl
ENDBRANCH  23  24
ENDBRANCH  19  23
ENDBRANCH   4  19
TORSDOF 8
ENDMDL
MODEL 3
REMARK VINA RESULT:      -6.6      4.201      8.877
REMARK  8 active torsions:
REMARK  status: ('A' for Active; 'I' for Inactive)
REMARK    1  A    between atoms: O1_2  and  C2_3 
REMARK    2  A    between atoms: C5_6  and  N1_7 
REMARK       I    between atoms: N1_7  and  C6_8 
REMARK    3  A    between atoms: C6_8  and  C7_10 
REMARK    4  A    between atoms: C10_13  and  N2_14 
REMARK    5  A    between atoms: N2_14  and  C11_15 
REMARK    6  A    between atoms: N2_14  and  C13_18 
REMARK    7  A    between atoms: C11_15  and  C12_16 
REMARK    8  A    between atoms: C13_18  and  C14_19 
ROOT
HETATM    1  C7  UNL     1      25.419   3.557  50.926  1.00  0.00     0.032 A 
HETATM    2  C8  UNL     1      26.371   2.571  50.798  1.00  0.00     0.019 A 
HETATM    3  C9  UNL     1      26.360   1.511  51.676  1.00  0.00     0.030 A 
HETATM    4  C10 UNL     1      25.459   1.337  52.704  1.00  0.00     0.030 A 
HETATM    5  C15 UNL     1      24.533   2.343  52.789  1.00  0.00     0.030 A 
HETATM    6  C16 UNL     1      24.497   3.428  51.938  1.00  0.00     0.019 A 
ENDROOT
BRANCH   1   7
HETATM    7  C6  UNL     1      25.454   4.666  49.983  1.00  0.00     0.252 C 
HETATM    8  N1  UNL     1      26.354   5.762  50.061  1.00  0.00    -0.349 N 
HETATM    9  H8  UNL     1      27.047   5.794  50.840  1.00  0.00     0.163 HD
HETATM   10  O2  UNL     1      24.651   4.696  49.019  1.00  0.00    -0.268 OA
BRANCH   8  11
HETATM   11  C5  UNL     1      26.370   6.856  49.111  1.00  0.00     0.111 A 
HETATM   12  C4  UNL     1      27.554   6.726  48.223  1.00  0.00     0.059 A 
HETATM   13  C3  UNL     1      28.475   7.892  48.299  1.00  0.00     0.012 A 
HETATM   14  C2  UNL     1      28.376   8.999  49.034  1.00  0.00     0.064 A 
HETATM   15  C18 UNL     1      27.200   9.090  49.892  1.00  0.00     0.034 A 
HETATM   16  C17 UNL     1      26.326   8.099  49.891  1.00  0.00     0.001 A 
BRANCH  14  17
HETATM   17  O1  UNL     1      29.383   9.925  48.907  1.00  0.00    -0.356 OA
HETATM   18  C1  UNL     1      30.690   9.599  49.384  1.00  0.00     0.210 C 
ENDBRANCH  14  17
ENDBRANCH   8  11
ENDBRANCH   1   7
BRANCH   4  19
HETATM   19  N2  UNL     1      25.460   0.233  53.600  1.00  0.00    -0.379 N 
BRANCH  19  20
HETATM   20  C11 UNL     1      24.651  -0.938  53.453  1.00  0.00     0.138 C 
BRANCH  20  21
HETATM   21  C12 UNL     1      23.230  -0.768  53.965  1.00  0.00     0.134 C 
HETATM   22 CL1  UNL     1      22.082  -0.474  52.649  1.00  0.00    -0.129 Cl
ENDBRANCH  20  21
ENDBRANCH  19  20
BRANCH  19  23
HETATM   23  C13 UNL     1      26.270   0.137  54.767  1.00  0.00     0.138 C 
BRANCH  23  24
HETATM   24  C14 UNL     1      27.744   0.206  54.558  1.00  0.00     0.134 C 
HETATM   25 CL2  UNL     1      28.343  -0.965  53.380  1.00  0.00    -0.129 Cl
ENDBRANCH  23  24
ENDBRANCH  19  23
ENDBRANCH   4  19
TORSDOF 8
ENDMDL
MODEL 4
REMARK VINA RESULT:      -6.6      0.318      1.996
REMARK  8 active torsions:
REMARK  status: ('A' for Active; 'I' for Inactive)
REMARK    1  A    between atoms: O1_2  and  C2_3 
REMARK    2  A    between atoms: C5_6  and  N1_7 
REMARK       I    between atoms: N1_7  and  C6_8 
REMARK    3  A    between atoms: C6_8  and  C7_10 
REMARK    4  A    between atoms: C10_13  and  N2_14 
REMARK    5  A    between atoms: N2_14  and  C11_15 
REMARK    6  A    between atoms: N2_14  and  C13_18 
REMARK    7  A    between atoms: C11_15  and  C12_16 
REMARK    8  A    between atoms: C13_18  and  C14_19 
ROOT
HETATM    1  C7  UNL     1      26.608   5.028  49.053  1.00  0.00     0.032 A 
HETATM    2  C8  UNL     1      25.883   6.165  48.776  1.00  0.00     0.019 A 
HETATM    3  C9  UNL     1      26.501   7.212  48.129  1.00  0.00     0.030 A 
HETATM    4  C10 UNL     1      27.817   7.232  47.721  1.00  0.00     0.030 A 
HETATM    5  C15 UNL     1      28.494   6.079  48.020  1.00  0.00     0.030 A 
HETATM    6  C16 UNL     1      27.927   5.000  48.665  1.00  0.00     0.019 A 
ENDROOT
BRANCH   1   7
HETATM    7  C6  UNL     1      25.929   3.936  49.737  1.00  0.00     0.252 C 
HETATM    8  N1  UNL     1      26.315   3.412  51.000  1.00  0.00    -0.349 N 
HETATM    9  H8  UNL     1      27.138   3.824  51.489  1.00  0.00     0.163 HD
HETATM   10  O2  UNL     1      24.929   3.390  49.209  1.00  0.00    -0.268 OA
BRANCH   8  11
HETATM   11  C5  UNL     1      25.624   2.323  51.661  1.00  0.00     0.111 A 
HETATM   12  C4  UNL     1      25.450   2.647  53.100  1.00  0.00     0.059 A 
HETATM   13  C3  UNL     1      26.102   1.665  54.006  1.00  0.00     0.012 A 
HETATM   14  C2  UNL     1      26.799   0.569  53.702  1.00  0.00     0.064 A 
HETATM   15  C18 UNL     1      26.948   0.285  52.279  1.00  0.00     0.034 A 
HETATM   16  C17 UNL     1      26.400   1.105  51.399  1.00  0.00     0.001 A 
BRANCH  14  17
HETATM   17  O1  UNL     1      27.296  -0.165  54.751  1.00  0.00    -0.356 OA
HETATM   18  C1  UNL     1      28.696  -0.111  55.034  1.00  0.00     0.210 C 
ENDBRANCH  14  17
ENDBRANCH   8  11
ENDBRANCH   1   7
BRANCH   4  19
HETATM   19  N2  UNL     1      28.438   8.321  47.051  1.00  0.00    -0.379 N 
BRANCH  19  20
HETATM   20  C11 UNL     1      28.829   8.317  45.675  1.00  0.00     0.138 C 
BRANCH  20  21
HETATM   21  C12 UNL     1      30.219   8.885  45.432  1.00  0.00     0.134 C 
HETATM   22 CL1  UNL     1      31.397   7.616  45.061  1.00  0.00    -0.129 Cl
ENDBRANCH  20  21
ENDBRANCH  19  20
BRANCH  19  23
HETATM   23  C13 UNL     1      28.753   9.571  47.655  1.00  0.00     0.138 C 
BRANCH  23  24
HETATM   24  C14 UNL     1      29.201   9.526  49.076  1.00  0.00     0.134 C 
HETATM   25 CL2  UNL     1      30.781   8.765  49.290  1.00  0.00    -0.129 Cl
ENDBRANCH  23  24
ENDBRANCH  19  23
ENDBRANCH   4  19
TORSDOF 8
ENDMDL
MODEL 5
REMARK VINA RESULT:      -6.5      1.341      1.421
REMARK  8 active torsions:
REMARK  status: ('A' for Active; 'I' for Inactive)
REMARK    1  A    between atoms: O1_2  and  C2_3 
REMARK    2  A    between atoms: C5_6  and  N1_7 
REMARK       I    between atoms: N1_7  and  C6_8 
REMARK    3  A    between atoms: C6_8  and  C7_10 
REMARK    4  A    between atoms: C10_13  and  N2_14 
REMARK    5  A    between atoms: N2_14  and  C11_15 
REMARK    6  A    between atoms: N2_14  and  C13_18 
REMARK    7  A    between atoms: C11_15  and  C12_16 
REMARK    8  A    between atoms: C13_18  and  C14_19 
ROOT
HETATM    1  C7  UNL     1      26.469   5.155  49.049  1.00  0.00     0.032 A 
HETATM    2  C8  UNL     1      27.781   4.983  48.669  1.00  0.00     0.019 A 
HETATM    3  C9  UNL     1      28.433   6.011  48.029  1.00  0.00     0.030 A 
HETATM    4  C10 UNL     1      27.882   7.236  47.721  1.00  0.00     0.030 A 
HETATM    5  C15 UNL     1      26.577   7.357  48.119  1.00  0.00     0.030 A 
HETATM    6  C16 UNL     1      25.874   6.361  48.763  1.00  0.00     0.019 A 
ENDROOT
BRANCH   1   7
HETATM    7  C6  UNL     1      25.804   4.050  49.726  1.00  0.00     0.252 C 
HETATM    8  N1  UNL     1      26.231   3.483  50.956  1.00  0.00    -0.349 N 
HETATM    9  H8  UNL     1      27.079   3.871  51.425  1.00  0.00     0.163 HD
HETATM   10  O2  UNL     1      24.777   3.532  49.222  1.00  0.00    -0.268 OA
BRANCH   8  11
HETATM   11  C5  UNL     1      25.554   2.383  51.611  1.00  0.00     0.111 A 
HETATM   12  C4  UNL     1      25.405   2.681  53.059  1.00  0.00     0.059 A 
HETATM   13  C3  UNL     1      26.074   1.684  53.936  1.00  0.00     0.012 A 
HETATM   14  C2  UNL     1      26.766   0.595  53.600  1.00  0.00     0.064 A 
HETATM   15  C18 UNL     1      26.890   0.335  52.170  1.00  0.00     0.034 A 
HETATM   16  C17 UNL     1      26.326   1.170  51.315  1.00  0.00     0.001 A 
BRANCH  14  17
HETATM   17  O1  UNL     1      27.282  -0.157  54.627  1.00  0.00    -0.356 OA
HETATM   18  C1  UNL     1      28.649   0.026  55.002  1.00  0.00     0.210 C 
ENDBRANCH  14  17
ENDBRANCH   8  11
ENDBRANCH   1   7
BRANCH   4  19
HETATM   19  N2  UNL     1      28.572   8.289  47.061  1.00  0.00    -0.379 N 
BRANCH  19  20
HETATM   20  C11 UNL     1      29.964   8.579  47.221  1.00  0.00     0.138 C 
BRANCH  20  21
HETATM   21  C12 UNL     1      30.313   9.182  48.573  1.00  0.00     0.134 C 
HETATM   22 CL1  UNL     1      31.354   8.113  49.526  1.00  0.00    -0.129 Cl
ENDBRANCH  20  21
ENDBRANCH  19  20
BRANCH  19  23
HETATM   23  C13 UNL     1      27.975   9.201  46.146  1.00  0.00     0.138 C 
BRANCH  23  24
HETATM   24  C14 UNL     1      27.763   8.703  44.757  1.00  0.00     0.134 C 
HETATM   25 CL2  UNL     1      26.087   8.264  44.417  1.00  0.00    -0.129 Cl
ENDBRANCH  23  24
ENDBRANCH  19  23
ENDBRANCH   4  19
TORSDOF 8
ENDMDL
MODEL 6
REMARK VINA RESULT:      -6.4      4.380      8.249
REMARK  8 active torsions:
REMARK  status: ('A' for Active; 'I' for Inactive)
REMARK    1  A    between atoms: O1_2  and  C2_3 
REMARK    2  A    between atoms: C5_6  and  N1_7 
REMARK       I    between atoms: N1_7  and  C6_8 
REMARK    3  A    between atoms: C6_8  and  C7_10 
REMARK    4  A    between atoms: C10_13  and  N2_14 
REMARK    5  A    between atoms: N2_14  and  C11_15 
REMARK    6  A    between atoms: N2_14  and  C13_18 
REMARK    7  A    between atoms: C11_15  and  C12_16 
REMARK    8  A    between atoms: C13_18  and  C14_19 
ROOT
HETATM    1  C7  UNL     1      26.780   5.448  48.888  1.00  0.00     0.032 A 
HETATM    2  C8  UNL     1      25.526   5.928  49.192  1.00  0.00     0.019 A 
HETATM    3  C9  UNL     1      24.593   5.070  49.730  1.00  0.00     0.030 A 
HETATM    4  C10 UNL     1      24.801   3.735  50.002  1.00  0.00     0.030 A 
HETATM    5  C15 UNL     1      26.062   3.307  49.682  1.00  0.00     0.030 A 
HETATM    6  C16 UNL     1      27.035   4.121  49.141  1.00  0.00     0.019 A 
ENDROOT
BRANCH   1   7
HETATM    7  C6  UNL     1      27.747   6.378  48.321  1.00  0.00     0.252 C 
HETATM    8  N1  UNL     1      29.133   6.387  48.630  1.00  0.00    -0.349 N 
HETATM    9  H8  UNL     1      29.506   5.688  49.308  1.00  0.00     0.163 HD
HETATM   10  O2  UNL     1      27.372   7.248  47.497  1.00  0.00    -0.268 OA
BRANCH   8  11
HETATM   11  C5  UNL     1      30.077   7.323  48.053  1.00  0.00     0.111 A 
HETATM   12  C4  UNL     1      31.004   6.598  47.146  1.00  0.00     0.059 A 
HETATM   13  C3  UNL     1      32.431   6.711  47.553  1.00  0.00     0.012 A 
HETATM   14  C2  UNL     1      32.964   7.358  48.589  1.00  0.00     0.064 A 
HETATM   15  C18 UNL     1      32.023   8.057  49.456  1.00  0.00     0.034 A 
HETATM   16  C17 UNL     1      30.733   8.012  49.172  1.00  0.00     0.001 A 
BRANCH  14  17
HETATM   17  O1  UNL     1      34.329   7.295  48.728  1.00  0.00    -0.356 OA
HETATM   18  C1  UNL     1      34.973   6.019  48.693  1.00  0.00     0.210 C 
ENDBRANCH  14  17
ENDBRANCH   8  11
ENDBRANCH   1   7
BRANCH   4  19
HETATM   19  N2  UNL     1      23.826   2.864  50.562  1.00  0.00    -0.379 N 
BRANCH  19  20
HETATM   20  C11 UNL     1      22.452   2.815  50.166  1.00  0.00     0.138 C 
BRANCH  20  21
HETATM   21  C12 UNL     1      22.133   1.682  49.204  1.00  0.00     0.134 C 
HETATM   22 CL1  UNL     1      22.625   2.060  47.546  1.00  0.00    -0.129 Cl
ENDBRANCH  20  21
ENDBRANCH  19  20
BRANCH  19  23
HETATM   23  C13 UNL     1      24.082   1.917  51.592  1.00  0.00     0.138 C 
BRANCH  23  24
HETATM   24  C14 UNL     1      24.203   2.458  52.976  1.00  0.00     0.134 C 
HETATM   25 CL2  UNL     1      25.805   2.227  53.683  1.00  0.00    -0.129 Cl
ENDBRANCH  23  24
ENDBRANCH  19  23
ENDBRANCH   4  19
TORSDOF 8
ENDMDL
MODEL 7
REMARK VINA RESULT:      -6.3      7.008      9.915
REMARK  8 active torsions:
REMARK  status: ('A' for Active; 'I' for Inactive)
REMARK    1  A    between atoms: O1_2  and  C2_3 
REMARK    2  A    between atoms: C5_6  and  N1_7 
REMARK       I    between atoms: N1_7  and  C6_8 
REMARK    3  A    between atoms: C6_8  and  C7_10 
REMARK    4  A    between atoms: C10_13  and  N2_14 
REMARK    5  A    between atoms: N2_14  and  C11_15 
REMARK    6  A    between atoms: N2_14  and  C13_18 
REMARK    7  A    between atoms: C11_15  and  C12_16 
REMARK    8  A    between atoms: C13_18  and  C14_19 
ROOT
HETATM    1  C7  UNL     1      21.973   0.823  52.905  1.00  0.00     0.032 A 
HETATM    2  C8  UNL     1      22.918   1.730  52.483  1.00  0.00     0.019 A 
HETATM    3  C9  UNL     1      24.252   1.438  52.656  1.00  0.00     0.030 A 
HETATM    4  C10 UNL     1      24.747   0.287  53.230  1.00  0.00     0.030 A 
HETATM    5  C15 UNL     1      23.768  -0.582  53.633  1.00  0.00     0.030 A 
HETATM    6  C16 UNL     1      22.418  -0.341  53.485  1.00  0.00     0.019 A 
ENDROOT
BRANCH   1   7
HETATM    7  C6  UNL     1      20.569   1.158  52.709  1.00  0.00     0.252 C 
HETATM    8  N1  UNL     1      19.622   0.319  52.062  1.00  0.00    -0.349 N 
HETATM    9  H8  UNL     1      19.934  -0.606  51.695  1.00  0.00     0.163 HD
HETATM   10  O2  UNL     1      20.122   2.255  53.125  1.00  0.00    -0.268 OA
BRANCH   8  11
HETATM   11  C5  UNL     1      18.230   0.675  51.877  1.00  0.00     0.111 A 
HETATM   12  C4  UNL     1      17.366  -0.358  52.505  1.00  0.00     0.059 A 
HETATM   13  C3  UNL     1      16.450  -1.022  51.540  1.00  0.00     0.012 A 
HETATM   14  C2  UNL     1      16.310  -0.816  50.230  1.00  0.00     0.064 A 
HETATM   15  C18 UNL     1      17.175   0.205  49.651  1.00  0.00     0.034 A 
HETATM   16  C17 UNL     1      18.022   0.849  50.434  1.00  0.00     0.001 A 
BRANCH  14  17
HETATM   17  O1  UNL     1      15.376  -1.581  49.575  1.00  0.00    -0.356 OA
HETATM   18  C1  UNL     1      15.233  -1.440  48.160  1.00  0.00     0.210 C 
ENDBRANCH  14  17
ENDBRANCH   8  11
ENDBRANCH   1   7
BRANCH   4  19
HETATM   19  N2  UNL     1      26.130  -0.001  53.397  1.00  0.00    -0.379 N 
BRANCH  19  20
HETATM   20  C11 UNL     1      26.900   0.341  54.553  1.00  0.00     0.138 C 
BRANCH  20  21
HETATM   21  C12 UNL     1      28.314   0.799  54.233  1.00  0.00     0.134 C 
HETATM   22 CL1  UNL     1      28.354   2.472  53.654  1.00  0.00    -0.129 Cl
ENDBRANCH  20  21
ENDBRANCH  19  20
BRANCH  19  23
HETATM   23  C13 UNL     1      26.940  -0.673  52.439  1.00  0.00     0.138 C 
BRANCH  23  24
HETATM   24  C14 UNL     1      26.984  -2.160  52.535  1.00  0.00     0.134 C 
HETATM   25 CL2  UNL     1      28.575  -2.788  52.975  1.00  0.00    -0.129 Cl
ENDBRANCH  23  24
ENDBRANCH  19  23
ENDBRANCH   4  19
TORSDOF 8
ENDMDL
MODEL 8
REMARK VINA RESULT:      -6.2      4.513      7.771
REMARK  8 active torsions:
REMARK  status: ('A' for Active; 'I' for Inactive)
REMARK    1  A    between atoms: O1_2  and  C2_3 
REMARK    2  A    between atoms: C5_6  and  N1_7 
REMARK       I    between atoms: N1_7  and  C6_8 
REMARK    3  A    between atoms: C6_8  and  C7_10 
REMARK    4  A    between atoms: C10_13  and  N2_14 
REMARK    5  A    between atoms: N2_14  and  C11_15 
REMARK    6  A    between atoms: N2_14  and  C13_18 
REMARK    7  A    between atoms: C11_15  and  C12_16 
REMARK    8  A    between atoms: C13_18  and  C14_19 
ROOT
HETATM    1  C7  UNL     1      26.569   5.427  49.048  1.00  0.00     0.032 A 
HETATM    2  C8  UNL     1      26.646   4.096  49.388  1.00  0.00     0.019 A 
HETATM    3  C9  UNL     1      25.571   3.499  50.007  1.00  0.00     0.030 A 
HETATM    4  C10 UNL     1      24.388   4.126  50.329  1.00  0.00     0.030 A 
HETATM    5  C15 UNL     1      24.361   5.448  49.971  1.00  0.00     0.030 A 
HETATM    6  C16 UNL     1      25.407   6.098  49.350  1.00  0.00     0.019 A 
ENDROOT
BRANCH   1   7
HETATM    7  C6  UNL     1      27.721   6.032  48.394  1.00  0.00     0.252 C 
HETATM    8  N1  UNL     1      29.074   5.695  48.670  1.00  0.00    -0.349 N 
HETATM    9  H8  UNL     1      29.278   4.966  49.386  1.00  0.00     0.163 HD
HETATM   10  O2  UNL     1      27.553   6.918  47.521  1.00  0.00    -0.268 OA
BRANCH   8  11
HETATM   11  C5  UNL     1      30.204   6.313  48.007  1.00  0.00     0.111 A 
HETATM   12  C4  UNL     1      31.046   5.262  47.379  1.00  0.00     0.059 A 
HETATM   13  C3  UNL     1      32.440   5.238  47.897  1.00  0.00     0.012 A 
HETATM   14  C2  UNL     1      33.010   6.013  48.821  1.00  0.00     0.064 A 
HETATM   15  C18 UNL     1      32.152   7.032  49.413  1.00  0.00     0.034 A 
HETATM   16  C17 UNL     1      30.896   7.127  49.013  1.00  0.00     0.001 A 
BRANCH  14  17
HETATM   17  O1  UNL     1      34.330   5.768  49.111  1.00  0.00    -0.356 OA
HETATM   18  C1  UNL     1      35.000   4.693  48.449  1.00  0.00     0.210 C 
ENDBRANCH  14  17
ENDBRANCH   8  11
ENDBRANCH   1   7
BRANCH   4  19
HETATM   19  N2  UNL     1      23.285   3.493  50.965  1.00  0.00    -0.379 N 
BRANCH  19  20
HETATM   20  C11 UNL     1      23.178   3.261  52.372  1.00  0.00     0.138 C 
BRANCH  20  21
HETATM   21  C12 UNL     1      23.893   2.004  52.842  1.00  0.00     0.134 C 
HETATM   22 CL1  UNL     1      25.490   2.362  53.516  1.00  0.00    -0.129 Cl
ENDBRANCH  20  21
ENDBRANCH  19  20
BRANCH  19  23
HETATM   23  C13 UNL     1      22.131   3.004  50.290  1.00  0.00     0.138 C 
BRANCH  23  24
HETATM   24  C14 UNL     1      22.313   1.770  49.473  1.00  0.00     0.134 C 
HETATM   25 CL2  UNL     1      22.530   2.094  47.751  1.00  0.00    -0.129 Cl
ENDBRANCH  23  24
ENDBRANCH  19  23
ENDBRANCH   4  19
TORSDOF 8
ENDMDL
MODEL 9
REMARK VINA RESULT:      -5.8      2.566      2.997
REMARK  8 active torsions:
REMARK  status: ('A' for Active; 'I' for Inactive)
REMARK    1  A    between atoms: O1_2  and  C2_3 
REMARK    2  A    between atoms: C5_6  and  N1_7 
REMARK       I    between atoms: N1_7  and  C6_8 
REMARK    3  A    between atoms: C6_8  and  C7_10 
REMARK    4  A    between atoms: C10_13  and  N2_14 
REMARK    5  A    between atoms: N2_14  and  C11_15 
REMARK    6  A    between atoms: N2_14  and  C13_18 
REMARK    7  A    between atoms: C11_15  and  C12_16 
REMARK    8  A    between atoms: C13_18  and  C14_19 
ROOT
HETATM    1  C7  UNL     1      26.816   5.780  48.753  1.00  0.00     0.032 A 
HETATM    2  C8  UNL     1      27.000   7.114  48.472  1.00  0.00     0.019 A 
HETATM    3  C9  UNL     1      28.233   7.544  48.038  1.00  0.00     0.030 A 
HETATM    4  C10 UNL     1      29.337   6.741  47.852  1.00  0.00     0.030 A 
HETATM    5  C15 UNL     1      29.104   5.423  48.146  1.00  0.00     0.030 A 
HETATM    6  C16 UNL     1      27.890   4.937  48.585  1.00  0.00     0.019 A 
ENDROOT
BRANCH   1   7
HETATM    7  C6  UNL     1      25.501   5.353  49.210  1.00  0.00     0.252 C 
HETATM    8  N1  UNL     1      25.265   4.578  50.378  1.00  0.00    -0.349 N 
HETATM    9  H8  UNL     1      26.077   4.284  50.963  1.00  0.00     0.163 HD
HETATM   10  O2  UNL     1      24.477   5.669  48.557  1.00  0.00    -0.268 OA
BRANCH   8  11
HETATM   11  C5  UNL     1      23.946   4.164  50.812  1.00  0.00     0.111 A 
HETATM   12  C4  UNL     1      23.837   4.320  52.286  1.00  0.00     0.059 A 
HETATM   13  C3  UNL     1      23.547   3.043  52.991  1.00  0.00     0.012 A 
HETATM   14  C2  UNL     1      23.378   1.820  52.488  1.00  0.00     0.064 A 
HETATM   15  C18 UNL     1      23.492   1.708  51.038  1.00  0.00     0.034 A 
HETATM   16  C17 UNL     1      23.749   2.792  50.328  1.00  0.00     0.001 A 
BRANCH  14  17
HETATM   17  O1  UNL     1      23.118   0.809  53.380  1.00  0.00    -0.356 OA
HETATM   18  C1  UNL     1      22.456  -0.371  52.918  1.00  0.00     0.210 C 
ENDBRANCH  14  17
ENDBRANCH   8  11
ENDBRANCH   1   7
BRANCH   4  19
HETATM   19  N2  UNL     1      30.604   7.201  47.399  1.00  0.00    -0.379 N 
BRANCH  19  20
HETATM   20  C11 UNL     1      30.826   8.439  46.718  1.00  0.00     0.138 C 
BRANCH  20  21
HETATM   21  C12 UNL     1      31.636   9.444  47.521  1.00  0.00     0.134 C 
HETATM   22 CL1  UNL     1      30.847   9.858  49.051  1.00  0.00    -0.129 Cl
ENDBRANCH  20  21
ENDBRANCH  19  20
BRANCH  19  23
HETATM   23  C13 UNL     1      31.830   6.496  47.565  1.00  0.00     0.138 C 
BRANCH  23  24
HETATM   24  C14 UNL     1      32.342   5.767  46.370  1.00  0.00     0.134 C 
HETATM   25 CL2  UNL     1      33.682   6.590  45.567  1.00  0.00    -0.129 Cl
ENDBRANCH  23  24
ENDBRANCH  19  23
ENDBRANCH   4  19
TORSDOF 8
ENDMDL
