MODEL 1
REMARK VINA RESULT:      -9.2      0.000      0.000
REMARK  5 active torsions:
REMARK  status: ('A' for Active; 'I' for Inactive)
REMARK       I    between atoms: C1_2  and  N1_3 
REMARK    1  A    between atoms: C1_2  and  C17_23 
REMARK    2  A    between atoms: N1_3  and  C2_4 
REMARK    3  A    between atoms: C6_8  and  N2_9 
REMARK    4  A    between atoms: N2_9  and  C7_10 
REMARK    5  A    between atoms: C10_14  and  C11_15 
ROOT
HETATM    1  C2  UNL     1      28.943   5.797  48.072  1.00  0.00     0.037 A 
HETATM    2  C3  UNL     1      28.659   7.148  48.005  1.00  0.00     0.029 A 
HETATM    3  C4  UNL     1      27.416   7.597  48.395  1.00  0.00     0.004 A 
HETATM    4  C5  UNL     1      26.432   6.717  48.858  1.00  0.00     0.030 A 
HETATM    5  C6  UNL     1      26.745   5.375  48.913  1.00  0.00     0.051 A 
HETATM    6  C16 UNL     1      27.979   4.894  48.531  1.00  0.00     0.059 A 
ENDROOT
BRANCH   5   7
HETATM    7  N2  UNL     1      25.794   4.438  49.357  1.00  0.00    -0.188 N 
HETATM    8  H5  UNL     1      24.953   4.169  48.784  1.00  0.00     0.184 HD
BRANCH   7   9
HETATM    9  C7  UNL     1      25.692   3.676  50.539  1.00  0.00     0.727 A 
HETATM   10  N3  UNL     1      24.517   3.907  51.191  1.00  0.00    -0.075 NA
HETATM   11  C8  UNL     1      24.197   3.282  52.335  1.00  0.00     0.139 A 
HETATM   12  C9  UNL     1      25.101   2.388  52.836  1.00  0.00     0.053 A 
HETATM   13  C10 UNL     1      26.296   2.125  52.214  1.00  0.00     0.089 A 
HETATM   14  N5  UNL     1      26.549   2.784  51.077  1.00  0.00    -0.062 NA
BRANCH  13  15
HETATM   15  C11 UNL     1      27.263   1.169  52.728  1.00  0.00     0.011 A 
HETATM   16  C12 UNL     1      27.071  -0.187  52.573  1.00  0.00     0.017 A 
HETATM   17  C13 UNL     1      28.006  -1.087  53.073  1.00  0.00     0.020 A 
HETATM   18  C14 UNL     1      29.119  -0.633  53.721  1.00  0.00     0.116 A 
HETATM   19  N4  UNL     1      29.294   0.703  53.865  1.00  0.00    -0.272 NA
HETATM   20  C15 UNL     1      28.393   1.573  53.383  1.00  0.00     0.130 A 
ENDBRANCH  13  15
ENDBRANCH   7   9
ENDBRANCH   5   7
BRANCH   1  21
HETATM   21  N1  UNL     1      30.181   5.155  47.701  1.00  0.00    -0.323 N 
HETATM   22  C1  UNL     1      31.302   5.496  48.496  1.00  0.00     0.256 C 
HETATM   23  O1  UNL     1      31.043   6.330  49.427  1.00  0.00    -0.267 OA
HETATM   24  H1  UNL     1      30.261   4.485  46.907  1.00  0.00     0.169 HD
BRANCH  22  25
HETATM   25  C17 UNL     1      32.625   4.939  48.261  1.00  0.00     0.035 A 
HETATM   26  C18 UNL     1      33.802   5.599  48.565  1.00  0.00     0.036 A 
HETATM   27  C19 UNL     1      34.965   4.906  48.274  1.00  0.00     0.117 A 
HETATM   28  N6  UNL     1      34.973   3.681  47.736  1.00  0.00    -0.273 NA
HETATM   29  C20 UNL     1      33.829   3.012  47.429  1.00  0.00     0.117 A 
HETATM   30  C21 UNL     1      32.649   3.670  47.704  1.00  0.00     0.036 A 
ENDBRANCH  22  25
ENDBRANCH   1  21
TORSDOF 5
ENDMDL
MODEL 2
REMARK VINA RESULT:      -9.0      3.787      7.902
REMARK  5 active torsions:
REMARK  status: ('A' for Active; 'I' for Inactive)
REMARK       I    between atoms: C1_2  and  N1_3 
REMARK    1  A    between atoms: C1_2  and  C17_23 
REMARK    2  A    between atoms: N1_3  and  C2_4 
REMARK    3  A    between atoms: C6_8  and  N2_9 
REMARK    4  A    between atoms: N2_9  and  C7_10 
REMARK    5  A    between atoms: C10_14  and  C11_15 
ROOT
HETATM    1  C2  UNL     1      23.433  -0.401  53.590  1.00  0.00     0.037 A 
HETATM    2  C3  UNL     1      22.504  -0.753  54.551  1.00  0.00     0.029 A 
HETATM    3  C4  UNL     1      21.263  -0.154  54.543  1.00  0.00     0.004 A 
HETATM    4  C5  UNL     1      20.919   0.803  53.583  1.00  0.00     0.030 A 
HETATM    5  C6  UNL     1      21.867   1.134  52.637  1.00  0.00     0.051 A 
HETATM    6  C16 UNL     1      23.116   0.553  52.618  1.00  0.00     0.059 A 
ENDROOT
BRANCH   5   7
HETATM    7  N2  UNL     1      21.587   2.100  51.653  1.00  0.00    -0.188 N 
HETATM    8  H5  UNL     1      20.761   2.026  51.005  1.00  0.00     0.184 HD
BRANCH   7   9
HETATM    9  C7  UNL     1      22.235   3.298  51.287  1.00  0.00     0.727 A 
HETATM   10  N3  UNL     1      21.500   4.395  51.625  1.00  0.00    -0.075 NA
HETATM   11  C8  UNL     1      21.926   5.645  51.383  1.00  0.00     0.139 A 
HETATM   12  C9  UNL     1      23.143   5.788  50.777  1.00  0.00     0.053 A 
HETATM   13  C10 UNL     1      23.916   4.711  50.420  1.00  0.00     0.089 A 
HETATM   14  N5  UNL     1      23.429   3.495  50.691  1.00  0.00    -0.062 NA
BRANCH  13  15
HETATM   15  C11 UNL     1      25.217   4.846  49.786  1.00  0.00     0.011 A 
HETATM   16  C12 UNL     1      25.599   6.031  49.196  1.00  0.00     0.017 A 
HETATM   17  C13 UNL     1      26.847   6.142  48.593  1.00  0.00     0.020 A 
HETATM   18  C14 UNL     1      27.702   5.076  48.581  1.00  0.00     0.116 A 
HETATM   19  N4  UNL     1      27.312   3.918  49.165  1.00  0.00    -0.272 NA
HETATM   20  C15 UNL     1      26.108   3.809  49.748  1.00  0.00     0.130 A 
ENDBRANCH  13  15
ENDBRANCH   7   9
ENDBRANCH   5   7
BRANCH   1  21
HETATM   21  N1  UNL     1      24.773  -0.918  53.454  1.00  0.00    -0.323 N 
HETATM   22  C1  UNL     1      25.809   0.007  53.733  1.00  0.00     0.256 C 
HETATM   23  O1  UNL     1      25.393   1.168  54.063  1.00  0.00    -0.267 OA
HETATM   24  H1  UNL     1      24.981  -1.898  53.172  1.00  0.00     0.169 HD
BRANCH  22  25
HETATM   25  C17 UNL     1      27.217  -0.349  53.648  1.00  0.00     0.035 A 
HETATM   26  C18 UNL     1      27.680  -1.524  53.082  1.00  0.00     0.036 A 
HETATM   27  C19 UNL     1      29.055  -1.685  53.088  1.00  0.00     0.117 A 
HETATM   28  N6  UNL     1      29.897  -0.779  53.599  1.00  0.00    -0.273 NA
HETATM   29  C20 UNL     1      29.466   0.382  54.160  1.00  0.00     0.117 A 
HETATM   30  C21 UNL     1      28.101   0.580  54.173  1.00  0.00     0.036 A 
ENDBRANCH  22  25
ENDBRANCH   1  21
TORSDOF 5
ENDMDL
MODEL 3
REMARK VINA RESULT:      -9.0      4.048      6.074
REMARK  5 active torsions:
REMARK  status: ('A' for Active; 'I' for Inactive)
REMARK       I    between atoms: C1_2  and  N1_3 
REMARK    1  A    between atoms: C1_2  and  C17_23 
REMARK    2  A    between atoms: N1_3  and  C2_4 
REMARK    3  A    between atoms: C6_8  and  N2_9 
REMARK    4  A    between atoms: N2_9  and  C7_10 
REMARK    5  A    between atoms: C10_14  and  C11_15 
ROOT
HETATM    1  C2  UNL     1      22.801   3.281  49.330  1.00  0.00     0.037 A 
HETATM    2  C3  UNL     1      22.390   2.551  48.230  1.00  0.00     0.029 A 
HETATM    3  C4  UNL     1      21.743   1.349  48.421  1.00  0.00     0.004 A 
HETATM    4  C5  UNL     1      21.492   0.848  49.702  1.00  0.00     0.030 A 
HETATM    5  C6  UNL     1      21.915   1.598  50.780  1.00  0.00     0.051 A 
HETATM    6  C16 UNL     1      22.564   2.804  50.623  1.00  0.00     0.059 A 
ENDROOT
BRANCH   5   7
HETATM    7  N2  UNL     1      21.704   1.142  52.094  1.00  0.00    -0.188 N 
HETATM    8  H5  UNL     1      20.801   1.300  52.610  1.00  0.00     0.184 HD
BRANCH   7   9
HETATM    9  C7  UNL     1      22.523   0.432  52.995  1.00  0.00     0.727 A 
HETATM   10  N3  UNL     1      21.788  -0.248  53.920  1.00  0.00    -0.075 NA
HETATM   11  C8  UNL     1      22.357  -1.004  54.872  1.00  0.00     0.139 A 
HETATM   12  C9  UNL     1      23.722  -1.076  54.886  1.00  0.00     0.053 A 
HETATM   13  C10 UNL     1      24.501  -0.409  53.974  1.00  0.00     0.089 A 
HETATM   14  N5  UNL     1      23.867   0.327  53.053  1.00  0.00    -0.062 NA
BRANCH  13  15
HETATM   15  C11 UNL     1      25.953  -0.484  53.968  1.00  0.00     0.011 A 
HETATM   16  C12 UNL     1      26.625  -1.122  52.949  1.00  0.00     0.017 A 
HETATM   17  C13 UNL     1      28.014  -1.186  52.961  1.00  0.00     0.020 A 
HETATM   18  C14 UNL     1      28.720  -0.616  53.982  1.00  0.00     0.116 A 
HETATM   19  N4  UNL     1      28.045   0.008  54.977  1.00  0.00    -0.272 NA
HETATM   20  C15 UNL     1      26.704   0.070  54.967  1.00  0.00     0.130 A 
ENDBRANCH  13  15
ENDBRANCH   7   9
ENDBRANCH   5   7
BRANCH   1  21
HETATM   21  N1  UNL     1      23.494   4.546  49.317  1.00  0.00    -0.323 N 
HETATM   22  C1  UNL     1      24.908   4.461  49.310  1.00  0.00     0.256 C 
HETATM   23  O1  UNL     1      25.356   3.266  49.319  1.00  0.00    -0.267 OA
HETATM   24  H1  UNL     1      23.004   5.465  49.312  1.00  0.00     0.169 HD
BRANCH  22  25
HETATM   25  C17 UNL     1      25.760   5.640  49.294  1.00  0.00     0.035 A 
HETATM   26  C18 UNL     1      26.924   5.737  48.550  1.00  0.00     0.036 A 
HETATM   27  C19 UNL     1      27.600   6.940  48.659  1.00  0.00     0.117 A 
HETATM   28  N6  UNL     1      27.176   7.953  49.423  1.00  0.00    -0.273 NA
HETATM   29  C20 UNL     1      26.037   7.881  50.162  1.00  0.00     0.117 A 
HETATM   30  C21 UNL     1      25.334   6.698  50.081  1.00  0.00     0.036 A 
ENDBRANCH  22  25
ENDBRANCH   1  21
TORSDOF 5
ENDMDL
MODEL 4
REMARK VINA RESULT:      -8.9      4.358      8.055
REMARK  5 active torsions:
REMARK  status: ('A' for Active; 'I' for Inactive)
REMARK       I    between atoms: C1_2  and  N1_3 
REMARK    1  A    between atoms: C1_2  and  C17_23 
REMARK    2  A    between atoms: N1_3  and  C2_4 
REMARK    3  A    between atoms: C6_8  and  N2_9 
REMARK    4  A    between atoms: N2_9  and  C7_10 
REMARK    5  A    between atoms: C10_14  and  C11_15 
ROOT
HETATM    1  C2  UNL     1      23.670  -0.660  53.787  1.00  0.00     0.037 A 
HETATM    2  C3  UNL     1      22.894  -1.010  54.876  1.00  0.00     0.029 A 
HETATM    3  C4  UNL     1      21.579  -0.602  54.928  1.00  0.00     0.004 A 
HETATM    4  C5  UNL     1      21.009   0.160  53.903  1.00  0.00     0.030 A 
HETATM    5  C6  UNL     1      21.807   0.495  52.829  1.00  0.00     0.051 A 
HETATM    6  C16 UNL     1      23.126   0.101  52.748  1.00  0.00     0.059 A 
ENDROOT
BRANCH   5   7
HETATM    7  N2  UNL     1      21.296   1.271  51.773  1.00  0.00    -0.188 N 
HETATM    8  H5  UNL     1      20.299   1.605  51.747  1.00  0.00     0.184 HD
BRANCH   7   9
HETATM    9  C7  UNL     1      21.883   1.770  50.592  1.00  0.00     0.727 A 
HETATM   10  N3  UNL     1      21.270   1.281  49.476  1.00  0.00    -0.075 NA
HETATM   11  C8  UNL     1      21.653   1.630  48.238  1.00  0.00     0.139 A 
HETATM   12  C9  UNL     1      22.695   2.507  48.126  1.00  0.00     0.053 A 
HETATM   13  C10 UNL     1      23.340   3.024  49.222  1.00  0.00     0.089 A 
HETATM   14  N5  UNL     1      22.906   2.633  50.425  1.00  0.00    -0.062 NA
BRANCH  13  15
HETATM   15  C11 UNL     1      24.442   3.967  49.120  1.00  0.00     0.011 A 
HETATM   16  C12 UNL     1      25.740   3.569  49.355  1.00  0.00     0.017 A 
HETATM   17  C13 UNL     1      26.781   4.485  49.255  1.00  0.00     0.020 A 
HETATM   18  C14 UNL     1      26.524   5.786  48.924  1.00  0.00     0.116 A 
HETATM   19  N4  UNL     1      25.243   6.162  48.697  1.00  0.00    -0.272 NA
HETATM   20  C15 UNL     1      24.236   5.279  48.793  1.00  0.00     0.130 A 
ENDBRANCH  13  15
ENDBRANCH   7   9
ENDBRANCH   5   7
BRANCH   1  21
HETATM   21  N1  UNL     1      25.058  -0.992  53.573  1.00  0.00    -0.323 N 
HETATM   22  C1  UNL     1      25.979   0.044  53.864  1.00  0.00     0.256 C 
HETATM   23  O1  UNL     1      25.435   1.123  54.273  1.00  0.00    -0.267 OA
HETATM   24  H1  UNL     1      25.375  -1.922  53.229  1.00  0.00     0.169 HD
BRANCH  22  25
HETATM   25  C17 UNL     1      27.416  -0.123  53.706  1.00  0.00     0.035 A 
HETATM   26  C18 UNL     1      28.336   0.885  53.936  1.00  0.00     0.036 A 
HETATM   27  C19 UNL     1      29.661   0.537  53.738  1.00  0.00     0.117 A 
HETATM   28  N6  UNL     1      30.048  -0.685  53.351  1.00  0.00    -0.273 NA
HETATM   29  C20 UNL     1      29.163  -1.691  53.119  1.00  0.00     0.117 A 
HETATM   30  C21 UNL     1      27.832  -1.383  53.306  1.00  0.00     0.036 A 
ENDBRANCH  22  25
ENDBRANCH   1  21
TORSDOF 5
ENDMDL
MODEL 5
REMARK VINA RESULT:      -8.9      2.973      4.848
REMARK  5 active torsions:
REMARK  status: ('A' for Active; 'I' for Inactive)
REMARK       I    between atoms: C1_2  and  N1_3 
REMARK    1  A    between atoms: C1_2  and  C17_23 
REMARK    2  A    between atoms: N1_3  and  C2_4 
REMARK    3  A    between atoms: C6_8  and  N2_9 
REMARK    4  A    between atoms: N2_9  and  C7_10 
REMARK    5  A    between atoms: C10_14  and  C11_15 
ROOT
HETATM    1  C2  UNL     1      24.168   5.353  50.837  1.00  0.00     0.037 A 
HETATM    2  C3  UNL     1      23.190   6.317  50.993  1.00  0.00     0.029 A 
HETATM    3  C4  UNL     1      21.916   5.934  51.355  1.00  0.00     0.004 A 
HETATM    4  C5  UNL     1      21.589   4.592  51.570  1.00  0.00     0.030 A 
HETATM    5  C6  UNL     1      22.587   3.653  51.407  1.00  0.00     0.051 A 
HETATM    6  C16 UNL     1      23.870   4.004  51.045  1.00  0.00     0.059 A 
ENDROOT
BRANCH   5   7
HETATM    7  N2  UNL     1      22.318   2.285  51.596  1.00  0.00    -0.188 N 
HETATM    8  H5  UNL     1      21.548   1.783  51.082  1.00  0.00     0.184 HD
BRANCH   7   9
HETATM    9  C7  UNL     1      22.915   1.304  52.414  1.00  0.00     0.727 A 
HETATM   10  N3  UNL     1      21.986   0.475  52.969  1.00  0.00    -0.075 NA
HETATM   11  C8  UNL     1      22.326  -0.543  53.776  1.00  0.00     0.139 A 
HETATM   12  C9  UNL     1      23.657  -0.727  54.028  1.00  0.00     0.053 A 
HETATM   13  C10 UNL     1      24.625   0.083  53.490  1.00  0.00     0.089 A 
HETATM   14  N5  UNL     1      24.214   1.078  52.695  1.00  0.00    -0.062 NA
BRANCH  13  15
HETATM   15  C11 UNL     1      26.045  -0.106  53.739  1.00  0.00     0.011 A 
HETATM   16  C12 UNL     1      26.852  -0.721  52.807  1.00  0.00     0.017 A 
HETATM   17  C13 UNL     1      28.207  -0.896  53.063  1.00  0.00     0.020 A 
HETATM   18  C14 UNL     1      28.747  -0.460  54.240  1.00  0.00     0.116 A 
HETATM   19  N4  UNL     1      27.941   0.142  55.146  1.00  0.00    -0.272 NA
HETATM   20  C15 UNL     1      26.632   0.312  54.901  1.00  0.00     0.130 A 
ENDBRANCH  13  15
ENDBRANCH   7   9
ENDBRANCH   5   7
BRANCH   1  21
HETATM   21  N1  UNL     1      25.543   5.572  50.456  1.00  0.00    -0.323 N 
HETATM   22  C1  UNL     1      25.757   5.818  49.078  1.00  0.00     0.256 C 
HETATM   23  O1  UNL     1      24.690   5.806  48.377  1.00  0.00    -0.267 OA
HETATM   24  H1  UNL     1      26.333   5.553  51.134  1.00  0.00     0.169 HD
BRANCH  22  25
HETATM   25  C17 UNL     1      27.080   6.061  48.525  1.00  0.00     0.035 A 
HETATM   26  C18 UNL     1      28.129   5.163  48.618  1.00  0.00     0.036 A 
HETATM   27  C19 UNL     1      29.313   5.569  48.026  1.00  0.00     0.117 A 
HETATM   28  N6  UNL     1      29.456   6.743  47.400  1.00  0.00    -0.273 NA
HETATM   29  C20 UNL     1      28.439   7.641  47.296  1.00  0.00     0.117 A 
HETATM   30  C21 UNL     1      27.243   7.274  47.873  1.00  0.00     0.036 A 
ENDBRANCH  22  25
ENDBRANCH   1  21
TORSDOF 5
ENDMDL
MODEL 6
REMARK VINA RESULT:      -8.8      4.531      6.249
REMARK  5 active torsions:
REMARK  status: ('A' for Active; 'I' for Inactive)
REMARK       I    between atoms: C1_2  and  N1_3 
REMARK    1  A    between atoms: C1_2  and  C17_23 
REMARK    2  A    between atoms: N1_3  and  C2_4 
REMARK    3  A    between atoms: C6_8  and  N2_9 
REMARK    4  A    between atoms: N2_9  and  C7_10 
REMARK    5  A    between atoms: C10_14  and  C11_15 
ROOT
HETATM    1  C2  UNL     1      25.577   3.561  49.840  1.00  0.00     0.037 A 
HETATM    2  C3  UNL     1      25.728   4.851  49.366  1.00  0.00     0.029 A 
HETATM    3  C4  UNL     1      24.650   5.492  48.796  1.00  0.00     0.004 A 
HETATM    4  C5  UNL     1      23.403   4.868  48.685  1.00  0.00     0.030 A 
HETATM    5  C6  UNL     1      23.282   3.581  49.167  1.00  0.00     0.051 A 
HETATM    6  C16 UNL     1      24.341   2.913  49.743  1.00  0.00     0.059 A 
ENDROOT
BRANCH   5   7
HETATM    7  N2  UNL     1      22.058   2.895  49.072  1.00  0.00    -0.188 N 
HETATM    8  H5  UNL     1      21.423   2.982  48.238  1.00  0.00     0.184 HD
BRANCH   7   9
HETATM    9  C7  UNL     1      21.400   2.003  49.944  1.00  0.00     0.727 A 
HETATM   10  N3  UNL     1      20.111   1.778  49.559  1.00  0.00    -0.075 NA
HETATM   11  C8  UNL     1      19.296   0.952  50.234  1.00  0.00     0.139 A 
HETATM   12  C9  UNL     1      19.807   0.330  51.340  1.00  0.00     0.053 A 
HETATM   13  C10 UNL     1      21.097   0.528  51.762  1.00  0.00     0.089 A 
HETATM   14  N5  UNL     1      21.853   1.365  51.042  1.00  0.00    -0.062 NA
BRANCH  13  15
HETATM   15  C11 UNL     1      21.659  -0.134  52.929  1.00  0.00     0.011 A 
HETATM   16  C12 UNL     1      23.006  -0.058  53.207  1.00  0.00     0.017 A 
HETATM   17  C13 UNL     1      23.526  -0.699  54.326  1.00  0.00     0.020 A 
HETATM   18  C14 UNL     1      22.705  -1.409  55.155  1.00  0.00     0.116 A 
HETATM   19  N4  UNL     1      21.383  -1.474  54.869  1.00  0.00    -0.272 NA
HETATM   20  C15 UNL     1      20.879  -0.856  53.789  1.00  0.00     0.130 A 
ENDBRANCH  13  15
ENDBRANCH   7   9
ENDBRANCH   5   7
BRANCH   1  21
HETATM   21  N1  UNL     1      26.593   2.742  50.455  1.00  0.00    -0.323 N 
HETATM   22  C1  UNL     1      26.376   2.433  51.821  1.00  0.00     0.256 C 
HETATM   23  O1  UNL     1      25.306   2.935  52.302  1.00  0.00    -0.267 OA
HETATM   24  H1  UNL     1      27.431   2.394  49.946  1.00  0.00     0.169 HD
BRANCH  22  25
HETATM   25  C17 UNL     1      27.300   1.616  52.592  1.00  0.00     0.035 A 
HETATM   26  C18 UNL     1      28.330   2.135  53.357  1.00  0.00     0.036 A 
HETATM   27  C19 UNL     1      29.103   1.201  54.025  1.00  0.00     0.117 A 
HETATM   28  N6  UNL     1      28.886  -0.118  53.952  1.00  0.00    -0.273 NA
HETATM   29  C20 UNL     1      27.880  -0.651  53.208  1.00  0.00     0.117 A 
HETATM   30  C21 UNL     1      27.088   0.248  52.526  1.00  0.00     0.036 A 
ENDBRANCH  22  25
ENDBRANCH   1  21
TORSDOF 5
ENDMDL
MODEL 7
REMARK VINA RESULT:      -8.7      2.483      7.341
REMARK  5 active torsions:
REMARK  status: ('A' for Active; 'I' for Inactive)
REMARK       I    between atoms: C1_2  and  N1_3 
REMARK    1  A    between atoms: C1_2  and  C17_23 
REMARK    2  A    between atoms: N1_3  and  C2_4 
REMARK    3  A    between atoms: C6_8  and  N2_9 
REMARK    4  A    between atoms: N2_9  and  C7_10 
REMARK    5  A    between atoms: C10_14  and  C11_15 
ROOT
HETATM    1  C2  UNL     1      24.840   2.445  52.033  1.00  0.00     0.037 A 
HETATM    2  C3  UNL     1      24.205   3.114  53.062  1.00  0.00     0.029 A 
HETATM    3  C4  UNL     1      23.656   4.355  52.825  1.00  0.00     0.004 A 
HETATM    4  C5  UNL     1      23.726   4.957  51.565  1.00  0.00     0.030 A 
HETATM    5  C6  UNL     1      24.366   4.266  50.557  1.00  0.00     0.051 A 
HETATM    6  C16 UNL     1      24.925   3.023  50.762  1.00  0.00     0.059 A 
ENDROOT
BRANCH   5   7
HETATM    7  N2  UNL     1      24.482   4.824  49.270  1.00  0.00    -0.188 N 
HETATM    8  H5  UNL     1      23.825   4.580  48.486  1.00  0.00     0.184 HD
BRANCH   7   9
HETATM    9  C7  UNL     1      25.386   5.754  48.717  1.00  0.00     0.727 A 
HETATM   10  N3  UNL     1      24.739   6.777  48.090  1.00  0.00    -0.075 NA
HETATM   11  C8  UNL     1      25.398   7.786  47.499  1.00  0.00     0.139 A 
HETATM   12  C9  UNL     1      26.764   7.758  47.547  1.00  0.00     0.053 A 
HETATM   13  C10 UNL     1      27.456   6.747  48.167  1.00  0.00     0.089 A 
HETATM   14  N5  UNL     1      26.734   5.774  48.735  1.00  0.00    -0.062 NA
BRANCH  13  15
HETATM   15  C11 UNL     1      28.907   6.708  48.236  1.00  0.00     0.011 A 
HETATM   16  C12 UNL     1      29.596   5.533  48.031  1.00  0.00     0.017 A 
HETATM   17  C13 UNL     1      30.984   5.514  48.103  1.00  0.00     0.020 A 
HETATM   18  C14 UNL     1      31.674   6.660  48.380  1.00  0.00     0.116 A 
HETATM   19  N4  UNL     1      30.984   7.808  48.579  1.00  0.00    -0.272 NA
HETATM   20  C15 UNL     1      29.643   7.828  48.510  1.00  0.00     0.130 A 
ENDBRANCH  13  15
ENDBRANCH   7   9
ENDBRANCH   5   7
BRANCH   1  21
HETATM   21  N1  UNL     1      25.473   1.151  52.104  1.00  0.00    -0.323 N 
HETATM   22  C1  UNL     1      26.721   1.124  52.774  1.00  0.00     0.256 C 
HETATM   23  O1  UNL     1      27.098   2.261  53.215  1.00  0.00    -0.267 OA
HETATM   24  H1  UNL     1      25.056   0.288  51.697  1.00  0.00     0.169 HD
BRANCH  22  25
HETATM   25  C17 UNL     1      27.492  -0.099  52.939  1.00  0.00     0.035 A 
HETATM   26  C18 UNL     1      28.788  -0.130  53.423  1.00  0.00     0.036 A 
HETATM   27  C19 UNL     1      29.359  -1.388  53.513  1.00  0.00     0.117 A 
HETATM   28  N6  UNL     1      28.719  -2.511  53.163  1.00  0.00    -0.273 NA
HETATM   29  C20 UNL     1      27.445  -2.504  52.686  1.00  0.00     0.117 A 
HETATM   30  C21 UNL     1      26.842  -1.269  52.581  1.00  0.00     0.036 A 
ENDBRANCH  22  25
ENDBRANCH   1  21
TORSDOF 5
ENDMDL
MODEL 8
REMARK VINA RESULT:      -8.6      2.356      3.768
REMARK  5 active torsions:
REMARK  status: ('A' for Active; 'I' for Inactive)
REMARK       I    between atoms: C1_2  and  N1_3 
REMARK    1  A    between atoms: C1_2  and  C17_23 
REMARK    2  A    between atoms: N1_3  and  C2_4 
REMARK    3  A    between atoms: C6_8  and  N2_9 
REMARK    4  A    between atoms: N2_9  and  C7_10 
REMARK    5  A    between atoms: C10_14  and  C11_15 
ROOT
HETATM    1  C2  UNL     1      25.236   5.611  49.214  1.00  0.00     0.037 A 
HETATM    2  C3  UNL     1      24.096   5.451  48.449  1.00  0.00     0.029 A 
HETATM    3  C4  UNL     1      23.056   4.691  48.938  1.00  0.00     0.004 A 
HETATM    4  C5  UNL     1      23.125   4.076  50.192  1.00  0.00     0.030 A 
HETATM    5  C6  UNL     1      24.275   4.253  50.932  1.00  0.00     0.051 A 
HETATM    6  C16 UNL     1      25.333   5.008  50.472  1.00  0.00     0.059 A 
ENDROOT
BRANCH   5   7
HETATM    7  N2  UNL     1      24.412   3.650  52.196  1.00  0.00    -0.188 N 
HETATM    8  H5  UNL     1      24.414   4.203  53.090  1.00  0.00     0.184 HD
BRANCH   7   9
HETATM    9  C7  UNL     1      24.565   2.306  52.594  1.00  0.00     0.727 A 
HETATM   10  N3  UNL     1      23.368   1.731  52.906  1.00  0.00    -0.075 NA
HETATM   11  C8  UNL     1      23.269   0.451  53.300  1.00  0.00     0.139 A 
HETATM   12  C9  UNL     1      24.426  -0.273  53.380  1.00  0.00     0.053 A 
HETATM   13  C10 UNL     1      25.651   0.265  53.075  1.00  0.00     0.089 A 
HETATM   14  N5  UNL     1      25.675   1.546  52.689  1.00  0.00    -0.062 NA
BRANCH  13  15
HETATM   15  C11 UNL     1      26.889  -0.495  53.143  1.00  0.00     0.011 A 
HETATM   16  C12 UNL     1      28.078   0.116  53.476  1.00  0.00     0.017 A 
HETATM   17  C13 UNL     1      29.252  -0.626  53.535  1.00  0.00     0.020 A 
HETATM   18  C14 UNL     1      29.234  -1.965  53.261  1.00  0.00     0.116 A 
HETATM   19  N4  UNL     1      28.058  -2.551  52.936  1.00  0.00    -0.272 NA
HETATM   20  C15 UNL     1      26.922  -1.836  52.879  1.00  0.00     0.130 A 
ENDBRANCH  13  15
ENDBRANCH   7   9
ENDBRANCH   5   7
BRANCH   1  21
HETATM   21  N1  UNL     1      26.417   6.360  48.858  1.00  0.00    -0.323 N 
HETATM   22  C1  UNL     1      27.568   5.582  48.586  1.00  0.00     0.256 C 
HETATM   23  O1  UNL     1      27.383   4.324  48.700  1.00  0.00    -0.267 OA
HETATM   24  H1  UNL     1      26.437   7.400  48.801  1.00  0.00     0.169 HD
BRANCH  22  25
HETATM   25  C17 UNL     1      28.841   6.176  48.210  1.00  0.00     0.035 A 
HETATM   26  C18 UNL     1      29.971   5.440  47.897  1.00  0.00     0.036 A 
HETATM   27  C19 UNL     1      31.089   6.183  47.558  1.00  0.00     0.117 A 
HETATM   28  N6  UNL     1      31.100   7.521  47.528  1.00  0.00    -0.273 NA
HETATM   29  C20 UNL     1      30.002   8.265  47.831  1.00  0.00     0.117 A 
HETATM   30  C21 UNL     1      28.868   7.562  48.174  1.00  0.00     0.036 A 
ENDBRANCH  22  25
ENDBRANCH   1  21
TORSDOF 5
ENDMDL
MODEL 9
REMARK VINA RESULT:      -8.4      3.327      7.610
REMARK  5 active torsions:
REMARK  status: ('A' for Active; 'I' for Inactive)
REMARK       I    between atoms: C1_2  and  N1_3 
REMARK    1  A    between atoms: C1_2  and  C17_23 
REMARK    2  A    between atoms: N1_3  and  C2_4 
REMARK    3  A    between atoms: C6_8  and  N2_9 
REMARK    4  A    between atoms: N2_9  and  C7_10 
REMARK    5  A    between atoms: C10_14  and  C11_15 
ROOT
HETATM    1  C2  UNL     1      23.264   1.023  52.334  1.00  0.00     0.037 A 
HETATM    2  C3  UNL     1      22.100   0.579  52.933  1.00  0.00     0.029 A 
HETATM    3  C4  UNL     1      20.886   1.042  52.475  1.00  0.00     0.004 A 
HETATM    4  C5  UNL     1      20.802   1.953  51.417  1.00  0.00     0.030 A 
HETATM    5  C6  UNL     1      21.980   2.378  50.840  1.00  0.00     0.051 A 
HETATM    6  C16 UNL     1      23.210   1.933  51.274  1.00  0.00     0.059 A 
ENDROOT
BRANCH   5   7
HETATM    7  N2  UNL     1      21.963   3.304  49.781  1.00  0.00    -0.188 N 
HETATM    8  H5  UNL     1      21.284   3.236  48.980  1.00  0.00     0.184 HD
BRANCH   7   9
HETATM    9  C7  UNL     1      22.740   4.449  49.508  1.00  0.00     0.727 A 
HETATM   10  N3  UNL     1      21.997   5.591  49.569  1.00  0.00    -0.075 NA
HETATM   11  C8  UNL     1      22.531   6.804  49.356  1.00  0.00     0.139 A 
HETATM   12  C9  UNL     1      23.867   6.862  49.071  1.00  0.00     0.053 A 
HETATM   13  C10 UNL     1      24.651   5.738  48.999  1.00  0.00     0.089 A 
HETATM   14  N5  UNL     1      24.053   4.562  49.223  1.00  0.00    -0.062 NA
BRANCH  13  15
HETATM   15  C11 UNL     1      26.075   5.784  48.709  1.00  0.00     0.011 A 
HETATM   16  C12 UNL     1      26.659   6.922  48.199  1.00  0.00     0.017 A 
HETATM   17  C13 UNL     1      28.022   6.947  47.925  1.00  0.00     0.020 A 
HETATM   18  C14 UNL     1      28.790   5.843  48.161  1.00  0.00     0.116 A 
HETATM   19  N4  UNL     1      28.202   4.731  48.663  1.00  0.00    -0.272 NA
HETATM   20  C15 UNL     1      26.886   4.705  48.927  1.00  0.00     0.130 A 
ENDBRANCH  13  15
ENDBRANCH   7   9
ENDBRANCH   5   7
BRANCH   1  21
HETATM   21  N1  UNL     1      24.613   0.652  52.687  1.00  0.00    -0.323 N 
HETATM   22  C1  UNL     1      25.380   1.671  53.302  1.00  0.00     0.256 C 
HETATM   23  O1  UNL     1      24.753   2.774  53.449  1.00  0.00    -0.267 OA
HETATM   24  H1  UNL     1      25.010  -0.294  52.509  1.00  0.00     0.169 HD
BRANCH  22  25
HETATM   25  C17 UNL     1      26.756   1.466  53.724  1.00  0.00     0.035 A 
HETATM   26  C18 UNL     1      27.792   2.332  53.417  1.00  0.00     0.036 A 
HETATM   27  C19 UNL     1      29.034   1.971  53.910  1.00  0.00     0.117 A 
HETATM   28  N6  UNL     1      29.242   0.866  54.637  1.00  0.00    -0.273 NA
HETATM   29  C20 UNL     1      28.241   0.001  54.951  1.00  0.00     0.117 A 
HETATM   30  C21 UNL     1      26.988   0.325  54.477  1.00  0.00     0.036 A 
ENDBRANCH  22  25
ENDBRANCH   1  21
TORSDOF 5
ENDMDL
