MODEL 1
REMARK VINA RESULT:      -7.8      0.000      0.000
REMARK  5 active torsions:
REMARK  status: ('A' for Active; 'I' for Inactive)
REMARK       I    between atoms: C2_2  and  N1_4 
REMARK    1  A    between atoms: N1_4  and  C3_5 
REMARK    2  A    between atoms: C8_12  and  N4_13 
REMARK    3  A    between atoms: N4_13  and  C9_14 
REMARK    4  A    between atoms: C10_15  and  C11_16 
REMARK    5  A    between atoms: C12_17  and  C13_18 
ROOT
HETATM    1  C3  UNL     1      24.857  -0.734  54.300  1.00  0.00     0.035 A 
HETATM    2  C4  UNL     1      24.028  -1.287  55.244  1.00  0.00     0.032 A 
HETATM    3  C5  UNL     1      22.654  -1.190  55.204  1.00  0.00     0.035 A 
HETATM    4  C6  UNL     1      22.046  -0.518  54.189  1.00  0.00     0.072 A 
HETATM    5  N2  UNL     1      20.701  -0.395  54.104  1.00  0.00    -0.241 NA
HETATM    6  C7  UNL     1      20.134   0.287  53.069  1.00  0.00     0.236 A 
HETATM    7  N3  UNL     1      20.955   0.819  52.157  1.00  0.00    -0.224 NA
HETATM    8  C8  UNL     1      22.290   0.733  52.185  1.00  0.00     0.141 A 
HETATM    9  C15 UNL     1      22.852   0.041  53.235  1.00  0.00     0.041 A 
HETATM   10  C16 UNL     1      24.215  -0.062  53.286  1.00  0.00     0.047 A 
ENDROOT
BRANCH   8  11
HETATM   11  N4  UNL     1      23.066   1.344  51.150  1.00  0.00    -0.350 N 
HETATM   12  H8  UNL     1      24.029   1.322  51.529  1.00  0.00     0.166 HD
BRANCH  11  13
HETATM   13  C9  UNL     1      22.344   1.758  50.017  1.00  0.00     0.090 C 
HETATM   14  C10 UNL     1      22.850   2.623  49.155  1.00  0.00     0.017 C 
BRANCH  14  15
HETATM   15  C11 UNL     1      24.167   3.220  49.281  1.00  0.00    -0.002 C 
HETATM   16  C12 UNL     1      24.446   4.456  49.686  1.00  0.00    -0.011 C 
BRANCH  16  17
HETATM   17  C13 UNL     1      25.814   4.993  49.789  1.00  0.00     0.076 C 
HETATM   18  C14 UNL     1      26.827   3.972  49.337  1.00  0.00     0.026 C 
HETATM   19 BR1  UNL     1      26.030   6.542  48.619  1.00  0.00    -0.087 Br
ENDBRANCH  16  17
ENDBRANCH  14  15
ENDBRANCH  11  13
ENDBRANCH   8  11
BRANCH   1  20
HETATM   20  N1  UNL     1      26.270  -0.785  54.261  1.00  0.00    -0.327 N 
HETATM   21  C2  UNL     1      27.216   0.220  54.574  1.00  0.00     0.218 C 
HETATM   22  C1  UNL     1      28.675   0.078  54.505  1.00  0.00     0.117 C 
HETATM   23  O1  UNL     1      26.805   1.346  54.948  1.00  0.00    -0.274 OA
HETATM   24  H4  UNL     1      26.758  -1.658  53.968  1.00  0.00     0.169 HD
ENDBRANCH   1  20
TORSDOF 5
ENDMDL
MODEL 2
REMARK VINA RESULT:      -7.6      2.826      5.146
REMARK  5 active torsions:
REMARK  status: ('A' for Active; 'I' for Inactive)
REMARK       I    between atoms: C2_2  and  N1_4 
REMARK    1  A    between atoms: N1_4  and  C3_5 
REMARK    2  A    between atoms: C8_12  and  N4_13 
REMARK    3  A    between atoms: N4_13  and  C9_14 
REMARK    4  A    between atoms: C10_15  and  C11_16 
REMARK    5  A    between atoms: C12_17  and  C13_18 
ROOT
HETATM    1  C3  UNL     1      24.235  -0.476  53.808  1.00  0.00     0.035 A 
HETATM    2  C4  UNL     1      24.982  -0.714  54.934  1.00  0.00     0.032 A 
HETATM    3  C5  UNL     1      26.215  -0.145  55.167  1.00  0.00     0.035 A 
HETATM    4  C6  UNL     1      26.758   0.705  54.254  1.00  0.00     0.072 A 
HETATM    5  N2  UNL     1      27.964   1.290  54.435  1.00  0.00    -0.241 NA
HETATM    6  C7  UNL     1      28.470   2.137  53.494  1.00  0.00     0.236 A 
HETATM    7  N3  UNL     1      27.730   2.359  52.403  1.00  0.00    -0.224 NA
HETATM    8  C8  UNL     1      26.532   1.813  52.165  1.00  0.00     0.141 A 
HETATM    9  C15 UNL     1      26.031   0.958  53.123  1.00  0.00     0.041 A 
HETATM   10  C16 UNL     1      24.808   0.387  52.904  1.00  0.00     0.047 A 
ENDROOT
BRANCH   8  11
HETATM   11  N4  UNL     1      25.831   2.127  50.957  1.00  0.00    -0.350 N 
HETATM   12  H8  UNL     1      25.678   1.200  50.522  1.00  0.00     0.166 HD
BRANCH  11  13
HETATM   13  C9  UNL     1      25.581   3.493  50.742  1.00  0.00     0.090 C 
HETATM   14  C10 UNL     1      24.350   3.975  50.729  1.00  0.00     0.017 C 
BRANCH  14  15
HETATM   15  C11 UNL     1      23.160   3.169  50.930  1.00  0.00    -0.002 C 
HETATM   16  C12 UNL     1      22.509   2.981  52.074  1.00  0.00    -0.011 C 
BRANCH  16  17
HETATM   17  C13 UNL     1      21.303   2.146  52.200  1.00  0.00     0.076 C 
HETATM   18  C14 UNL     1      20.055   2.983  52.083  1.00  0.00     0.026 C 
HETATM   19 BR1  UNL     1      21.224   0.834  50.755  1.00  0.00    -0.087 Br
ENDBRANCH  16  17
ENDBRANCH  14  15
ENDBRANCH  11  13
ENDBRANCH   8  11
BRANCH   1  20
HETATM   20  N1  UNL     1      22.966  -1.013  53.489  1.00  0.00    -0.327 N 
HETATM   21  C2  UNL     1      21.738  -0.894  54.183  1.00  0.00     0.218 C 
HETATM   22  C1  UNL     1      20.459  -1.490  53.776  1.00  0.00     0.117 C 
HETATM   23  O1  UNL     1      21.702  -0.226  55.245  1.00  0.00    -0.274 OA
HETATM   24  H4  UNL     1      22.839  -1.593  52.632  1.00  0.00     0.169 HD
ENDBRANCH   1  20
TORSDOF 5
ENDMDL
MODEL 3
REMARK VINA RESULT:      -7.5      2.176      3.224
REMARK  5 active torsions:
REMARK  status: ('A' for Active; 'I' for Inactive)
REMARK       I    between atoms: C2_2  and  N1_4 
REMARK    1  A    between atoms: N1_4  and  C3_5 
REMARK    2  A    between atoms: C8_12  and  N4_13 
REMARK    3  A    between atoms: N4_13  and  C9_14 
REMARK    4  A    between atoms: C10_15  and  C11_16 
REMARK    5  A    between atoms: C12_17  and  C13_18 
ROOT
HETATM    1  C3  UNL     1      26.406  -0.200  52.834  1.00  0.00     0.035 A 
HETATM    2  C4  UNL     1      25.219  -0.723  53.281  1.00  0.00     0.032 A 
HETATM    3  C5  UNL     1      24.013  -0.061  53.196  1.00  0.00     0.035 A 
HETATM    4  C6  UNL     1      23.953   1.181  52.644  1.00  0.00     0.072 A 
HETATM    5  N2  UNL     1      22.795   1.871  52.536  1.00  0.00    -0.241 NA
HETATM    6  C7  UNL     1      22.781   3.114  51.975  1.00  0.00     0.236 A 
HETATM    7  N3  UNL     1      23.945   3.609  51.543  1.00  0.00    -0.224 NA
HETATM    8  C8  UNL     1      25.122   2.978  51.621  1.00  0.00     0.141 A 
HETATM    9  C15 UNL     1      25.125   1.723  52.190  1.00  0.00     0.041 A 
HETATM   10  C16 UNL     1      26.315   1.056  52.281  1.00  0.00     0.047 A 
ENDROOT
BRANCH   8  11
HETATM   11  N4  UNL     1      26.306   3.610  51.123  1.00  0.00    -0.350 N 
HETATM   12  H8  UNL     1      26.715   4.048  51.967  1.00  0.00     0.166 HD
BRANCH  11  13
HETATM   13  C9  UNL     1      26.539   3.457  49.746  1.00  0.00     0.090 C 
HETATM   14  C10 UNL     1      26.478   4.486  48.918  1.00  0.00     0.017 C 
BRANCH  14  15
HETATM   15  C11 UNL     1      26.172   5.843  49.330  1.00  0.00    -0.002 C 
HETATM   16  C12 UNL     1      25.072   6.534  49.046  1.00  0.00    -0.011 C 
BRANCH  16  17
HETATM   17  C13 UNL     1      24.832   7.914  49.502  1.00  0.00     0.076 C 
HETATM   18  C14 UNL     1      23.953   7.929  50.727  1.00  0.00     0.026 C 
HETATM   19 BR1  UNL     1      26.512   8.766  50.018  1.00  0.00    -0.087 Br
ENDBRANCH  16  17
ENDBRANCH  14  15
ENDBRANCH  11  13
ENDBRANCH   8  11
BRANCH   1  20
HETATM   20  N1  UNL     1      27.683  -0.805  52.880  1.00  0.00    -0.327 N 
HETATM   21  C2  UNL     1      28.727  -0.635  53.820  1.00  0.00     0.218 C 
HETATM   22  C1  UNL     1      30.031  -1.310  53.790  1.00  0.00     0.117 C 
HETATM   23  O1  UNL     1      28.557   0.156  54.781  1.00  0.00    -0.274 OA
HETATM   24  H4  UNL     1      27.970  -1.488  52.146  1.00  0.00     0.169 HD
ENDBRANCH   1  20
TORSDOF 5
ENDMDL
MODEL 4
REMARK VINA RESULT:      -7.5      2.561      4.874
REMARK  5 active torsions:
REMARK  status: ('A' for Active; 'I' for Inactive)
REMARK       I    between atoms: C2_2  and  N1_4 
REMARK    1  A    between atoms: N1_4  and  C3_5 
REMARK    2  A    between atoms: C8_12  and  N4_13 
REMARK    3  A    between atoms: N4_13  and  C9_14 
REMARK    4  A    between atoms: C10_15  and  C11_16 
REMARK    5  A    between atoms: C12_17  and  C13_18 
ROOT
HETATM    1  C3  UNL     1      22.428   0.604  52.461  1.00  0.00     0.035 A 
HETATM    2  C4  UNL     1      22.376  -0.510  53.261  1.00  0.00     0.032 A 
HETATM    3  C5  UNL     1      23.415  -0.921  54.068  1.00  0.00     0.035 A 
HETATM    4  C6  UNL     1      24.574  -0.209  54.103  1.00  0.00     0.072 A 
HETATM    5  N2  UNL     1      25.623  -0.570  54.878  1.00  0.00    -0.241 NA
HETATM    6  C7  UNL     1      26.765   0.173  54.883  1.00  0.00     0.236 A 
HETATM    7  N3  UNL     1      26.801   1.256  54.100  1.00  0.00    -0.224 NA
HETATM    8  C8  UNL     1      25.800   1.665  53.311  1.00  0.00     0.141 A 
HETATM    9  C15 UNL     1      24.650   0.906  53.314  1.00  0.00     0.041 A 
HETATM   10  C16 UNL     1      23.612   1.303  52.518  1.00  0.00     0.047 A 
ENDROOT
BRANCH   8  11
HETATM   11  N4  UNL     1      25.954   2.844  52.515  1.00  0.00    -0.350 N 
HETATM   12  H8  UNL     1      25.356   3.537  52.998  1.00  0.00     0.166 HD
BRANCH  11  13
HETATM   13  C9  UNL     1      26.804   2.716  51.403  1.00  0.00     0.090 C 
HETATM   14  C10 UNL     1      26.407   3.054  50.189  1.00  0.00     0.017 C 
BRANCH  14  15
HETATM   15  C11 UNL     1      25.089   3.578  49.882  1.00  0.00    -0.002 C 
HETATM   16  C12 UNL     1      24.091   2.928  49.291  1.00  0.00    -0.011 C 
BRANCH  16  17
HETATM   17  C13 UNL     1      22.776   3.530  49.011  1.00  0.00     0.076 C 
HETATM   18  C14 UNL     1      22.922   4.776  48.176  1.00  0.00     0.026 C 
HETATM   19 BR1  UNL     1      21.666   2.299  47.978  1.00  0.00    -0.087 Br
ENDBRANCH  16  17
ENDBRANCH  14  15
ENDBRANCH  11  13
ENDBRANCH   8  11
BRANCH   1  20
HETATM   20  N1  UNL     1      21.415   1.097  51.607  1.00  0.00    -0.327 N 
HETATM   21  C2  UNL     1      20.368   2.008  51.885  1.00  0.00     0.218 C 
HETATM   22  C1  UNL     1      19.353   2.468  50.930  1.00  0.00     0.117 C 
HETATM   23  O1  UNL     1      20.270   2.487  53.041  1.00  0.00    -0.274 OA
HETATM   24  H4  UNL     1      21.367   0.788  50.613  1.00  0.00     0.169 HD
ENDBRANCH   1  20
TORSDOF 5
ENDMDL
MODEL 5
REMARK VINA RESULT:      -7.1      3.355      5.959
REMARK  5 active torsions:
REMARK  status: ('A' for Active; 'I' for Inactive)
REMARK       I    between atoms: C2_2  and  N1_4 
REMARK    1  A    between atoms: N1_4  and  C3_5 
REMARK    2  A    between atoms: C8_12  and  N4_13 
REMARK    3  A    between atoms: N4_13  and  C9_14 
REMARK    4  A    between atoms: C10_15  and  C11_16 
REMARK    5  A    between atoms: C12_17  and  C13_18 
ROOT
HETATM    1  C3  UNL     1      26.123   2.685  51.014  1.00  0.00     0.035 A 
HETATM    2  C4  UNL     1      26.728   3.295  49.944  1.00  0.00     0.032 A 
HETATM    3  C5  UNL     1      26.212   4.402  49.305  1.00  0.00     0.035 A 
HETATM    4  C6  UNL     1      25.041   4.951  49.728  1.00  0.00     0.072 A 
HETATM    5  N2  UNL     1      24.494   6.037  49.135  1.00  0.00    -0.241 NA
HETATM    6  C7  UNL     1      23.318   6.554  49.592  1.00  0.00     0.236 A 
HETATM    7  N3  UNL     1      22.742   5.949  50.635  1.00  0.00    -0.224 NA
HETATM    8  C8  UNL     1      23.231   4.874  51.264  1.00  0.00     0.141 A 
HETATM    9  C15 UNL     1      24.420   4.359  50.794  1.00  0.00     0.041 A 
HETATM   10  C16 UNL     1      24.942   3.261  51.419  1.00  0.00     0.047 A 
ENDROOT
BRANCH   8  11
HETATM   11  N4  UNL     1      22.524   4.312  52.374  1.00  0.00    -0.350 N 
HETATM   12  H8  UNL     1      23.224   4.327  53.136  1.00  0.00     0.166 HD
BRANCH  11  13
HETATM   13  C9  UNL     1      21.194   3.937  52.115  1.00  0.00     0.090 C 
HETATM   14  C10 UNL     1      20.779   2.696  52.299  1.00  0.00     0.017 C 
BRANCH  14  15
HETATM   15  C11 UNL     1      21.627   1.618  52.774  1.00  0.00    -0.002 C 
HETATM   16  C12 UNL     1      21.587   0.345  52.390  1.00  0.00    -0.011 C 
BRANCH  16  17
HETATM   17  C13 UNL     1      22.484  -0.696  52.920  1.00  0.00     0.076 C 
HETATM   18  C14 UNL     1      23.820  -0.111  53.303  1.00  0.00     0.026 C 
HETATM   19 BR1  UNL     1      21.738  -1.481  54.545  1.00  0.00    -0.087 Br
ENDBRANCH  16  17
ENDBRANCH  14  15
ENDBRANCH  11  13
ENDBRANCH   8  11
BRANCH   1  20
HETATM   20  N1  UNL     1      26.579   1.552  51.728  1.00  0.00    -0.327 N 
HETATM   21  C2  UNL     1      27.654   1.437  52.641  1.00  0.00     0.218 C 
HETATM   22  C1  UNL     1      28.060   0.212  53.341  1.00  0.00     0.117 C 
HETATM   23  O1  UNL     1      28.344   2.453  52.900  1.00  0.00    -0.274 OA
HETATM   24  H4  UNL     1      26.104   0.632  51.615  1.00  0.00     0.169 HD
ENDBRANCH   1  20
TORSDOF 5
ENDMDL
MODEL 6
REMARK VINA RESULT:      -7.1      3.101      6.240
REMARK  5 active torsions:
REMARK  status: ('A' for Active; 'I' for Inactive)
REMARK       I    between atoms: C2_2  and  N1_4 
REMARK    1  A    between atoms: N1_4  and  C3_5 
REMARK    2  A    between atoms: C8_12  and  N4_13 
REMARK    3  A    between atoms: N4_13  and  C9_14 
REMARK    4  A    between atoms: C10_15  and  C11_16 
REMARK    5  A    between atoms: C12_17  and  C13_18 
ROOT
HETATM    1  C3  UNL     1      25.022   2.236  51.167  1.00  0.00     0.035 A 
HETATM    2  C4  UNL     1      26.246   2.814  51.394  1.00  0.00     0.032 A 
HETATM    3  C5  UNL     1      27.101   2.419  52.400  1.00  0.00     0.035 A 
HETATM    4  C6  UNL     1      26.750   1.404  53.236  1.00  0.00     0.072 A 
HETATM    5  N2  UNL     1      27.553   0.979  54.238  1.00  0.00    -0.241 NA
HETATM    6  C7  UNL     1      27.162  -0.042  55.051  1.00  0.00     0.236 A 
HETATM    7  N3  UNL     1      25.967  -0.595  54.816  1.00  0.00    -0.224 NA
HETATM    8  C8  UNL     1      25.127  -0.221  53.844  1.00  0.00     0.141 A 
HETATM    9  C15 UNL     1      25.533   0.812  53.028  1.00  0.00     0.041 A 
HETATM   10  C16 UNL     1      24.694   1.213  52.026  1.00  0.00     0.047 A 
ENDROOT
BRANCH   8  11
HETATM   11  N4  UNL     1      23.872  -0.889  53.688  1.00  0.00    -0.350 N 
HETATM   12  H8  UNL     1      23.883  -1.191  52.698  1.00  0.00     0.166 HD
BRANCH  11  13
HETATM   13  C9  UNL     1      23.064  -0.932  54.837  1.00  0.00     0.090 C 
HETATM   14  C10 UNL     1      21.763  -0.703  54.775  1.00  0.00     0.017 C 
BRANCH  14  15
HETATM   15  C11 UNL     1      21.051  -0.392  53.549  1.00  0.00    -0.002 C 
HETATM   16  C12 UNL     1      20.951   0.799  52.966  1.00  0.00    -0.011 C 
BRANCH  16  17
HETATM   17  C13 UNL     1      20.208   1.038  51.717  1.00  0.00     0.076 C 
HETATM   18  C14 UNL     1      20.998   0.566  50.523  1.00  0.00     0.026 C 
HETATM   19 BR1  UNL     1      18.538   0.025  51.710  1.00  0.00    -0.087 Br
ENDBRANCH  16  17
ENDBRANCH  14  15
ENDBRANCH  11  13
ENDBRANCH   8  11
BRANCH   1  20
HETATM   20  N1  UNL     1      24.085   2.575  50.162  1.00  0.00    -0.327 N 
HETATM   21  C2  UNL     1      23.044   3.533  50.188  1.00  0.00     0.218 C 
HETATM   22  C1  UNL     1      22.112   3.820  49.091  1.00  0.00     0.117 C 
HETATM   23  O1  UNL     1      22.874   4.218  51.226  1.00  0.00    -0.274 OA
HETATM   24  H4  UNL     1      24.102   2.088  49.241  1.00  0.00     0.169 HD
ENDBRANCH   1  20
TORSDOF 5
ENDMDL
MODEL 7
REMARK VINA RESULT:      -7.1      2.297      4.805
REMARK  5 active torsions:
REMARK  status: ('A' for Active; 'I' for Inactive)
REMARK       I    between atoms: C2_2  and  N1_4 
REMARK    1  A    between atoms: N1_4  and  C3_5 
REMARK    2  A    between atoms: C8_12  and  N4_13 
REMARK    3  A    between atoms: N4_13  and  C9_14 
REMARK    4  A    between atoms: C10_15  and  C11_16 
REMARK    5  A    between atoms: C12_17  and  C13_18 
ROOT
HETATM    1  C3  UNL     1      23.336   0.298  52.920  1.00  0.00     0.035 A 
HETATM    2  C4  UNL     1      23.782  -0.607  53.850  1.00  0.00     0.032 A 
HETATM    3  C5  UNL     1      25.067  -0.620  54.349  1.00  0.00     0.035 A 
HETATM    4  C6  UNL     1      25.974   0.299  53.921  1.00  0.00     0.072 A 
HETATM    5  N2  UNL     1      27.247   0.329  54.380  1.00  0.00    -0.241 NA
HETATM    6  C7  UNL     1      28.123   1.268  53.924  1.00  0.00     0.236 A 
HETATM    7  N3  UNL     1      27.674   2.144  53.019  1.00  0.00    -0.224 NA
HETATM    8  C8  UNL     1      26.430   2.166  52.526  1.00  0.00     0.141 A 
HETATM    9  C15 UNL     1      25.552   1.213  52.994  1.00  0.00     0.041 A 
HETATM   10  C16 UNL     1      24.275   1.215  52.507  1.00  0.00     0.047 A 
ENDROOT
BRANCH   8  11
HETATM   11  N4  UNL     1      26.063   3.155  51.558  1.00  0.00    -0.350 N 
HETATM   12  H8  UNL     1      25.466   3.806  52.097  1.00  0.00     0.166 HD
BRANCH  11  13
HETATM   13  C9  UNL     1      26.584   2.959  50.268  1.00  0.00     0.090 C 
HETATM   14  C10 UNL     1      26.509   3.901  49.344  1.00  0.00     0.017 C 
BRANCH  14  15
HETATM   15  C11 UNL     1      25.898   5.201  49.556  1.00  0.00    -0.002 C 
HETATM   16  C12 UNL     1      26.370   6.378  49.155  1.00  0.00    -0.011 C 
BRANCH  16  17
HETATM   17  C13 UNL     1      25.691   7.660  49.409  1.00  0.00     0.076 C 
HETATM   18  C14 UNL     1      24.655   7.513  50.495  1.00  0.00     0.026 C 
HETATM   19 BR1  UNL     1      26.967   8.997  50.039  1.00  0.00    -0.087 Br
ENDBRANCH  16  17
ENDBRANCH  14  15
ENDBRANCH  11  13
ENDBRANCH   8  11
BRANCH   1  20
HETATM   20  N1  UNL     1      22.042   0.386  52.357  1.00  0.00    -0.327 N 
HETATM   21  C2  UNL     1      20.791   0.554  52.998  1.00  0.00     0.218 C 
HETATM   22  C1  UNL     1      19.487   0.635  52.330  1.00  0.00     0.117 C 
HETATM   23  O1  UNL     1      20.757   0.648  54.249  1.00  0.00    -0.274 OA
HETATM   24  H4  UNL     1      21.910   0.324  51.325  1.00  0.00     0.169 HD
ENDBRANCH   1  20
TORSDOF 5
ENDMDL
MODEL 8
REMARK VINA RESULT:      -7.0      2.378      3.920
REMARK  5 active torsions:
REMARK  status: ('A' for Active; 'I' for Inactive)
REMARK       I    between atoms: C2_2  and  N1_4 
REMARK    1  A    between atoms: N1_4  and  C3_5 
REMARK    2  A    between atoms: C8_12  and  N4_13 
REMARK    3  A    between atoms: N4_13  and  C9_14 
REMARK    4  A    between atoms: C10_15  and  C11_16 
REMARK    5  A    between atoms: C12_17  and  C13_18 
ROOT
HETATM    1  C3  UNL     1      25.204   2.745  51.736  1.00  0.00     0.035 A 
HETATM    2  C4  UNL     1      26.004   2.111  52.654  1.00  0.00     0.032 A 
HETATM    3  C5  UNL     1      25.600   1.021  53.395  1.00  0.00     0.035 A 
HETATM    4  C6  UNL     1      24.347   0.515  53.238  1.00  0.00     0.072 A 
HETATM    5  N2  UNL     1      23.903  -0.552  53.941  1.00  0.00    -0.241 NA
HETATM    6  C7  UNL     1      22.640  -1.027  53.751  1.00  0.00     0.236 A 
HETATM    7  N3  UNL     1      21.873  -0.399  52.854  1.00  0.00    -0.224 NA
HETATM    8  C8  UNL     1      22.252   0.660  52.128  1.00  0.00     0.141 A 
HETATM    9  C15 UNL     1      23.532   1.131  52.328  1.00  0.00     0.041 A 
HETATM   10  C16 UNL     1      23.944   2.211  51.599  1.00  0.00     0.047 A 
ENDROOT
BRANCH   8  11
HETATM   11  N4  UNL     1      21.342   1.249  51.195  1.00  0.00    -0.350 N 
HETATM   12  H8  UNL     1      20.973   2.069  51.707  1.00  0.00     0.166 HD
BRANCH  11  13
HETATM   13  C9  UNL     1      21.231   0.588  49.960  1.00  0.00     0.090 C 
HETATM   14  C10 UNL     1      21.386   1.233  48.816  1.00  0.00     0.017 C 
BRANCH  14  15
HETATM   15  C11 UNL     1      21.679   2.651  48.716  1.00  0.00    -0.002 C 
HETATM   16  C12 UNL     1      22.807   3.202  48.277  1.00  0.00    -0.011 C 
BRANCH  16  17
HETATM   17  C13 UNL     1      23.031   4.656  48.205  1.00  0.00     0.076 C 
HETATM   18  C14 UNL     1      22.284   5.258  47.042  1.00  0.00     0.026 C 
HETATM   19 BR1  UNL     1      22.352   5.534  49.811  1.00  0.00    -0.087 Br
ENDBRANCH  16  17
ENDBRANCH  14  15
ENDBRANCH  11  13
ENDBRANCH   8  11
BRANCH   1  20
HETATM   20  N1  UNL     1      25.534   3.862  50.935  1.00  0.00    -0.327 N 
HETATM   21  C2  UNL     1      26.360   3.935  49.788  1.00  0.00     0.218 C 
HETATM   22  C1  UNL     1      26.650   5.147  49.012  1.00  0.00     0.117 C 
HETATM   23  O1  UNL     1      26.909   2.887  49.367  1.00  0.00    -0.274 OA
HETATM   24  H4  UNL     1      25.152   4.805  51.162  1.00  0.00     0.169 HD
ENDBRANCH   1  20
TORSDOF 5
ENDMDL
MODEL 9
REMARK VINA RESULT:      -6.9      2.330      3.106
REMARK  5 active torsions:
REMARK  status: ('A' for Active; 'I' for Inactive)
REMARK       I    between atoms: C2_2  and  N1_4 
REMARK    1  A    between atoms: N1_4  and  C3_5 
REMARK    2  A    between atoms: C8_12  and  N4_13 
REMARK    3  A    between atoms: N4_13  and  C9_14 
REMARK    4  A    between atoms: C10_15  and  C11_16 
REMARK    5  A    between atoms: C12_17  and  C13_18 
ROOT
HETATM    1  C3  UNL     1      25.472   1.009  53.043  1.00  0.00     0.035 A 
HETATM    2  C4  UNL     1      24.452   0.127  53.298  1.00  0.00     0.032 A 
HETATM    3  C5  UNL     1      23.117   0.442  53.156  1.00  0.00     0.035 A 
HETATM    4  C6  UNL     1      22.749   1.684  52.743  1.00  0.00     0.072 A 
HETATM    5  N2  UNL     1      21.453   2.042  52.589  1.00  0.00    -0.241 NA
HETATM    6  C7  UNL     1      21.129   3.299  52.172  1.00  0.00     0.236 A 
HETATM    7  N3  UNL     1      22.134   4.147  51.927  1.00  0.00    -0.224 NA
HETATM    8  C8  UNL     1      23.433   3.854  52.061  1.00  0.00     0.141 A 
HETATM    9  C15 UNL     1      23.749   2.581  52.483  1.00  0.00     0.041 A 
HETATM   10  C16 UNL     1      25.069   2.257  52.627  1.00  0.00     0.047 A 
ENDROOT
BRANCH   8  11
HETATM   11  N4  UNL     1      24.422   4.846  51.768  1.00  0.00    -0.350 N 
HETATM   12  H8  UNL     1      25.298   4.299  51.709  1.00  0.00     0.166 HD
BRANCH  11  13
HETATM   13  C9  UNL     1      23.943   6.163  51.658  1.00  0.00     0.090 C 
HETATM   14  C10 UNL     1      24.404   6.990  50.735  1.00  0.00     0.017 C 
BRANCH  14  15
HETATM   15  C11 UNL     1      25.426   6.637  49.767  1.00  0.00    -0.002 C 
HETATM   16  C12 UNL     1      26.397   7.423  49.312  1.00  0.00    -0.011 C 
BRANCH  16  17
HETATM   17  C13 UNL     1      27.402   6.993  48.325  1.00  0.00     0.076 C 
HETATM   18  C14 UNL     1      28.686   7.766  48.493  1.00  0.00     0.026 C 
HETATM   19 BR1  UNL     1      27.853   5.110  48.583  1.00  0.00    -0.087 Br
ENDBRANCH  16  17
ENDBRANCH  14  15
ENDBRANCH  11  13
ENDBRANCH   8  11
BRANCH   1  20
HETATM   20  N1  UNL     1      26.861   0.773  53.160  1.00  0.00    -0.327 N 
HETATM   21  C2  UNL     1      27.585   0.160  54.210  1.00  0.00     0.218 C 
HETATM   22  C1  UNL     1      29.039  -0.045  54.247  1.00  0.00     0.117 C 
HETATM   23  O1  UNL     1      26.961  -0.259  55.215  1.00  0.00    -0.274 OA
HETATM   24  H4  UNL     1      27.511   1.067  52.400  1.00  0.00     0.169 HD
ENDBRANCH   1  20
TORSDOF 5
ENDMDL
