MODEL 1
REMARK VINA RESULT:      -8.6      0.000      0.000
REMARK  3 active torsions:
REMARK  status: ('A' for Active; 'I' for Inactive)
REMARK    1  A    between atoms: O1_2  and  C2_3 
REMARK    2  A    between atoms: C7_8  and  C8_9 
REMARK    3  A    between atoms: C14_19  and  O2_20 
ROOT
HETATM    1  C2  UNL     1      18.358  -0.979  53.054  1.00  0.00     0.054 C 
HETATM    2  C3  UNL     1      19.655  -0.866  53.180  1.00  0.00     0.081 C 
HETATM    3  C4  UNL     1      21.068  -0.917  53.484  1.00  0.00     0.015 C 
HETATM    4  C5  UNL     1      22.040  -0.151  52.955  1.00  0.00     0.057 A 
HETATM    5  C6  UNL     1      23.440  -0.392  53.421  1.00  0.00     0.122 A 
HETATM    6  C7  UNL     1      24.267   0.545  52.704  1.00  0.00     0.072 A 
HETATM    7  N1  UNL     1      23.506   1.245  51.951  1.00  0.00    -0.155 NA
HETATM    8  N2  UNL     1      22.175   0.913  52.032  1.00  0.00    -0.176 N 
HETATM    9  N3  UNL     1      21.584   1.858  51.118  1.00  0.00    -0.256 N 
HETATM   10  C14 UNL     1      21.322   3.233  51.515  1.00  0.00     0.174 C 
HETATM   11  C15 UNL     1      20.167   3.651  51.952  1.00  0.00     0.061 C 
HETATM   12  S1  UNL     1      18.848   3.043  51.203  1.00  0.00    -0.188 SA
HETATM   13  C16 UNL     1      18.922   1.312  50.850  1.00  0.00     0.092 C 
HETATM   14  C17 UNL     1      17.585   0.727  51.222  1.00  0.00    -0.015 C 
HETATM   15  C18 UNL     1      17.520  -0.217  52.155  1.00  0.00     0.029 C 
HETATM   16  H12 UNL     1      21.331   1.626  50.132  1.00  0.00     0.191 HD
HETATM   17  H14 UNL     1      17.649   3.631  51.652  1.00  0.00     0.096 HD
ENDROOT
BRANCH   6  18
HETATM   18  C8  UNL     1      25.684   0.438  53.027  1.00  0.00    -0.009 A 
HETATM   19  C9  UNL     1      26.564   1.336  53.580  1.00  0.00     0.015 A 
HETATM   20  C10 UNL     1      27.863   0.977  53.780  1.00  0.00     0.020 A 
HETATM   21  C11 UNL     1      28.315  -0.278  53.435  1.00  0.00     0.011 A 
HETATM   22 BR1  UNL     1      30.176  -0.622  53.785  1.00  0.00    -0.051 Br
HETATM   23  C12 UNL     1      27.469  -1.213  52.878  1.00  0.00     0.020 A 
HETATM   24  C13 UNL     1      26.135  -0.840  52.674  1.00  0.00     0.015 A 
ENDBRANCH   6  18
BRANCH  10  25
HETATM   25  O2  UNL     1      22.605   3.734  51.254  1.00  0.00    -0.344 OA
HETATM   26  H13 UNL     1      23.072   4.404  51.850  1.00  0.00     0.219 HD
ENDBRANCH  10  25
BRANCH   1  27
HETATM   27  O1  UNL     1      17.418  -1.812  53.685  1.00  0.00    -0.360 OA
HETATM   28  C1  UNL     1      17.432  -3.199  53.650  1.00  0.00     0.209 C 
ENDBRANCH   1  27
TORSDOF 3
ENDMDL
MODEL 2
REMARK VINA RESULT:      -8.6      5.161      6.456
REMARK  3 active torsions:
REMARK  status: ('A' for Active; 'I' for Inactive)
REMARK    1  A    between atoms: O1_2  and  C2_3 
REMARK    2  A    between atoms: C7_8  and  C8_9 
REMARK    3  A    between atoms: C14_19  and  O2_20 
ROOT
HETATM    1  C2  UNL     1      21.405   0.665  51.192  1.00  0.00     0.054 C 
HETATM    2  C3  UNL     1      22.252   1.504  50.653  1.00  0.00     0.081 C 
HETATM    3  C4  UNL     1      23.021   2.456  49.884  1.00  0.00     0.015 C 
HETATM    4  C5  UNL     1      24.249   2.928  50.170  1.00  0.00     0.057 A 
HETATM    5  C6  UNL     1      24.847   3.919  49.223  1.00  0.00     0.122 A 
HETATM    6  C7  UNL     1      26.140   4.256  49.761  1.00  0.00     0.072 A 
HETATM    7  N1  UNL     1      26.309   3.578  50.834  1.00  0.00    -0.155 NA
HETATM    8  N2  UNL     1      25.251   2.762  51.156  1.00  0.00    -0.176 N 
HETATM    9  N3  UNL     1      25.729   2.130  52.359  1.00  0.00    -0.256 N 
HETATM   10  C14 UNL     1      26.652   1.006  52.309  1.00  0.00     0.174 C 
HETATM   11  C15 UNL     1      26.275  -0.241  52.366  1.00  0.00     0.061 C 
HETATM   12  S1  UNL     1      25.063  -0.582  53.407  1.00  0.00    -0.188 SA
HETATM   13  C16 UNL     1      23.740   0.590  53.421  1.00  0.00     0.092 C 
HETATM   14  C17 UNL     1      22.454  -0.195  53.434  1.00  0.00    -0.015 C 
HETATM   15  C18 UNL     1      21.589  -0.050  52.436  1.00  0.00     0.029 C 
HETATM   16  H12 UNL     1      25.464   2.442  53.319  1.00  0.00     0.191 HD
HETATM   17  H14 UNL     1      24.796  -1.963  53.496  1.00  0.00     0.096 HD
ENDROOT
BRANCH   6  18
HETATM   18  C8  UNL     1      26.867   5.236  48.964  1.00  0.00    -0.009 A 
HETATM   19  C9  UNL     1      28.173   5.279  48.541  1.00  0.00     0.015 A 
HETATM   20  C10 UNL     1      28.607   6.331  47.789  1.00  0.00     0.020 A 
HETATM   21  C11 UNL     1      27.756   7.357  47.444  1.00  0.00     0.011 A 
HETATM   22 BR1  UNL     1      28.529   8.762  46.381  1.00  0.00    -0.051 Br
HETATM   23  C12 UNL     1      26.437   7.355  47.845  1.00  0.00     0.020 A 
HETATM   24  C13 UNL     1      25.994   6.274  48.616  1.00  0.00     0.015 A 
ENDBRANCH   6  18
BRANCH  10  25
HETATM   25  O2  UNL     1      27.831   1.757  52.198  1.00  0.00    -0.344 OA
HETATM   26  H13 UNL     1      28.411   1.761  51.370  1.00  0.00     0.219 HD
ENDBRANCH  10  25
BRANCH   1  27
HETATM   27  O1  UNL     1      20.136   0.217  50.789  1.00  0.00    -0.360 OA
HETATM   28  C1  UNL     1      19.003   0.203  51.592  1.00  0.00     0.209 C 
ENDBRANCH   1  27
TORSDOF 3
ENDMDL
MODEL 3
REMARK VINA RESULT:      -8.5      4.620      5.722
REMARK  3 active torsions:
REMARK  status: ('A' for Active; 'I' for Inactive)
REMARK    1  A    between atoms: O1_2  and  C2_3 
REMARK    2  A    between atoms: C7_8  and  C8_9 
REMARK    3  A    between atoms: C14_19  and  O2_20 
ROOT
HETATM    1  C2  UNL     1      23.845  -0.095  53.456  1.00  0.00     0.054 C 
HETATM    2  C3  UNL     1      24.451   0.822  52.745  1.00  0.00     0.081 C 
HETATM    3  C4  UNL     1      25.321   1.767  52.081  1.00  0.00     0.015 C 
HETATM    4  C5  UNL     1      24.973   2.669  51.143  1.00  0.00     0.057 A 
HETATM    5  C6  UNL     1      26.054   3.542  50.591  1.00  0.00     0.122 A 
HETATM    6  C7  UNL     1      25.420   4.396  49.619  1.00  0.00     0.072 A 
HETATM    7  N1  UNL     1      24.173   4.108  49.597  1.00  0.00    -0.155 NA
HETATM    8  N2  UNL     1      23.811   3.106  50.464  1.00  0.00    -0.176 N 
HETATM    9  N3  UNL     1      22.391   3.024  50.237  1.00  0.00    -0.256 N 
HETATM   10  C14 UNL     1      21.470   3.966  50.856  1.00  0.00     0.174 C 
HETATM   11  C15 UNL     1      20.829   3.727  51.965  1.00  0.00     0.061 C 
HETATM   12  S1  UNL     1      20.260   2.207  52.157  1.00  0.00    -0.188 SA
HETATM   13  C16 UNL     1      21.368   0.926  51.653  1.00  0.00     0.092 C 
HETATM   14  C17 UNL     1      21.331  -0.137  52.720  1.00  0.00    -0.015 C 
HETATM   15  C18 UNL     1      22.445  -0.445  53.376  1.00  0.00     0.029 C 
HETATM   16  H12 UNL     1      21.946   2.314  49.615  1.00  0.00     0.191 HD
HETATM   17  H14 UNL     1      19.481   2.062  53.322  1.00  0.00     0.096 HD
ENDROOT
BRANCH   6  18
HETATM   18  C8  UNL     1      26.340   5.314  48.961  1.00  0.00    -0.009 A 
HETATM   19  C9  UNL     1      26.173   6.596  48.495  1.00  0.00     0.015 A 
HETATM   20  C10 UNL     1      27.217   7.245  47.907  1.00  0.00     0.020 A 
HETATM   21  C11 UNL     1      28.445   6.637  47.768  1.00  0.00     0.011 A 
HETATM   22 BR1  UNL     1      29.810   7.692  46.916  1.00  0.00    -0.051 Br
HETATM   23  C12 UNL     1      28.660   5.352  48.221  1.00  0.00     0.020 A 
HETATM   24  C13 UNL     1      27.585   4.688  48.825  1.00  0.00     0.015 A 
ENDBRANCH   6  18
BRANCH  10  25
HETATM   25  O2  UNL     1      21.597   4.983  49.898  1.00  0.00    -0.344 OA
HETATM   26  H13 UNL     1      20.984   5.786  49.856  1.00  0.00     0.219 HD
ENDBRANCH  10  25
BRANCH   1  27
HETATM   27  O1  UNL     1      24.307  -0.980  54.444  1.00  0.00    -0.360 OA
HETATM   28  C1  UNL     1      23.590  -1.364  55.569  1.00  0.00     0.209 C 
ENDBRANCH   1  27
TORSDOF 3
ENDMDL
MODEL 4
REMARK VINA RESULT:      -8.0      3.857      7.626
REMARK  3 active torsions:
REMARK  status: ('A' for Active; 'I' for Inactive)
REMARK    1  A    between atoms: O1_2  and  C2_3 
REMARK    2  A    between atoms: C7_8  and  C8_9 
REMARK    3  A    between atoms: C14_19  and  O2_20 
ROOT
HETATM    1  C2  UNL     1      25.644   0.110  54.209  1.00  0.00     0.054 C 
HETATM    2  C3  UNL     1      24.405  -0.267  54.022  1.00  0.00     0.081 C 
HETATM    3  C4  UNL     1      23.111  -0.900  53.898  1.00  0.00     0.015 C 
HETATM    4  C5  UNL     1      21.976  -0.341  53.439  1.00  0.00     0.057 A 
HETATM    5  C6  UNL     1      20.749  -1.195  53.409  1.00  0.00     0.122 A 
HETATM    6  C7  UNL     1      19.695  -0.363  52.888  1.00  0.00     0.072 A 
HETATM    7  N1  UNL     1      20.194   0.787  52.628  1.00  0.00    -0.155 NA
HETATM    8  N2  UNL     1      21.533   0.897  52.915  1.00  0.00    -0.176 N 
HETATM    9  N3  UNL     1      21.806   2.252  52.508  1.00  0.00    -0.256 N 
HETATM   10  C14 UNL     1      22.022   2.594  51.110  1.00  0.00     0.174 C 
HETATM   11  C15 UNL     1      23.201   2.692  50.564  1.00  0.00     0.061 C 
HETATM   12  S1  UNL     1      24.365   3.388  51.477  1.00  0.00    -0.188 SA
HETATM   13  C16 UNL     1      24.376   2.893  53.174  1.00  0.00     0.092 C 
HETATM   14  C17 UNL     1      25.812   2.641  53.551  1.00  0.00    -0.015 C 
HETATM   15  C18 UNL     1      26.177   1.432  53.963  1.00  0.00     0.029 C 
HETATM   16  H12 UNL     1      21.848   3.056  53.172  1.00  0.00     0.191 HD
HETATM   17  H14 UNL     1      25.573   3.563  50.774  1.00  0.00     0.096 HD
ENDROOT
BRANCH   6  18
HETATM   18  C8  UNL     1      18.406  -1.037  52.804  1.00  0.00    -0.009 A 
HETATM   19  C9  UNL     1      17.237  -0.695  52.168  1.00  0.00     0.015 A 
HETATM   20  C10 UNL     1      16.155  -1.520  52.249  1.00  0.00     0.020 A 
HETATM   21  C11 UNL     1      16.210  -2.698  52.961  1.00  0.00     0.011 A 
HETATM   22 BR1  UNL     1      14.596  -3.745  52.973  1.00  0.00    -0.051 Br
HETATM   23  C12 UNL     1      17.362  -3.083  53.614  1.00  0.00     0.020 A 
HETATM   24  C13 UNL     1      18.472  -2.233  53.529  1.00  0.00     0.015 A 
ENDBRANCH   6  18
BRANCH  10  25
HETATM   25  O2  UNL     1      20.671   2.727  50.757  1.00  0.00    -0.344 OA
HETATM   26  H13 UNL     1      19.937   2.146  51.139  1.00  0.00     0.219 HD
ENDBRANCH  10  25
BRANCH   1  27
HETATM   27  O1  UNL     1      26.778  -0.574  54.679  1.00  0.00    -0.360 OA
HETATM   28  C1  UNL     1      28.077  -0.088  54.636  1.00  0.00     0.209 C 
ENDBRANCH   1  27
TORSDOF 3
ENDMDL
MODEL 5
REMARK VINA RESULT:      -7.9      6.365      9.435
REMARK  3 active torsions:
REMARK  status: ('A' for Active; 'I' for Inactive)
REMARK    1  A    between atoms: O1_2  and  C2_3 
REMARK    2  A    between atoms: C7_8  and  C8_9 
REMARK    3  A    between atoms: C14_19  and  O2_20 
ROOT
HETATM    1  C2  UNL     1      28.963   6.913  47.772  1.00  0.00     0.054 C 
HETATM    2  C3  UNL     1      28.120   6.048  48.274  1.00  0.00     0.081 C 
HETATM    3  C4  UNL     1      27.304   4.929  48.693  1.00  0.00     0.015 C 
HETATM    4  C5  UNL     1      26.267   4.957  49.550  1.00  0.00     0.057 A 
HETATM    5  C6  UNL     1      25.574   3.663  49.838  1.00  0.00     0.122 A 
HETATM    6  C7  UNL     1      24.523   3.972  50.773  1.00  0.00     0.072 A 
HETATM    7  N1  UNL     1      24.556   5.232  51.000  1.00  0.00    -0.155 NA
HETATM    8  N2  UNL     1      25.546   5.899  50.321  1.00  0.00    -0.176 N 
HETATM    9  N3  UNL     1      25.324   7.258  50.747  1.00  0.00    -0.256 N 
HETATM   10  C14 UNL     1      24.284   8.079  50.147  1.00  0.00     0.174 C 
HETATM   11  C15 UNL     1      24.498   8.918  49.173  1.00  0.00     0.061 C 
HETATM   12  S1  UNL     1      25.887   9.776  49.250  1.00  0.00    -0.188 SA
HETATM   13  C16 UNL     1      27.306   8.851  49.753  1.00  0.00     0.092 C 
HETATM   14  C17 UNL     1      28.438   9.247  48.841  1.00  0.00    -0.015 C 
HETATM   15  C18 UNL     1      29.021   8.324  48.084  1.00  0.00     0.029 C 
HETATM   16  H12 UNL     1      25.870   7.721  51.507  1.00  0.00     0.191 HD
HETATM   17  H14 UNL     1      25.986  10.741  48.228  1.00  0.00     0.096 HD
ENDROOT
BRANCH   6  18
HETATM   18  C8  UNL     1      23.745   2.810  51.182  1.00  0.00    -0.009 A 
HETATM   19  C9  UNL     1      22.742   2.116  50.551  1.00  0.00     0.015 A 
HETATM   20  C10 UNL     1      22.170   1.042  51.166  1.00  0.00     0.020 A 
HETATM   21  C11 UNL     1      22.581   0.637  52.416  1.00  0.00     0.011 A 
HETATM   22 BR1  UNL     1      21.670  -0.896  53.140  1.00  0.00    -0.051 Br
HETATM   23  C12 UNL     1      23.584   1.302  53.088  1.00  0.00     0.020 A 
HETATM   24  C13 UNL     1      24.170   2.405  52.453  1.00  0.00     0.015 A 
ENDBRANCH   6  18
BRANCH  10  25
HETATM   25  O2  UNL     1      23.224   7.622  50.945  1.00  0.00    -0.344 OA
HETATM   26  H13 UNL     1      22.964   8.052  51.822  1.00  0.00     0.219 HD
ENDBRANCH  10  25
BRANCH   1  27
HETATM   27  O1  UNL     1      30.012   6.779  46.848  1.00  0.00    -0.360 OA
HETATM   28  C1  UNL     1      31.340   6.546  47.178  1.00  0.00     0.209 C 
ENDBRANCH   1  27
TORSDOF 3
ENDMDL
MODEL 6
REMARK VINA RESULT:      -7.6      3.939      6.820
REMARK  3 active torsions:
REMARK  status: ('A' for Active; 'I' for Inactive)
REMARK    1  A    between atoms: O1_2  and  C2_3 
REMARK    2  A    between atoms: C7_8  and  C8_9 
REMARK    3  A    between atoms: C14_19  and  O2_20 
ROOT
HETATM    1  C2  UNL     1      24.315   7.368  47.986  1.00  0.00     0.054 C 
HETATM    2  C3  UNL     1      24.864   6.346  48.591  1.00  0.00     0.081 C 
HETATM    3  C4  UNL     1      25.645   5.237  49.093  1.00  0.00     0.015 C 
HETATM    4  C5  UNL     1      25.350   4.446  50.141  1.00  0.00     0.057 A 
HETATM    5  C6  UNL     1      26.319   3.358  50.479  1.00  0.00     0.122 A 
HETATM    6  C7  UNL     1      25.772   2.678  51.625  1.00  0.00     0.072 A 
HETATM    7  N1  UNL     1      24.660   3.238  51.921  1.00  0.00    -0.155 NA
HETATM    8  N2  UNL     1      24.323   4.287  51.101  1.00  0.00    -0.176 N 
HETATM    9  N3  UNL     1      23.051   4.687  51.649  1.00  0.00    -0.256 N 
HETATM   10  C14 UNL     1      21.827   3.969  51.326  1.00  0.00     0.174 C 
HETATM   11  C15 UNL     1      21.003   4.335  50.384  1.00  0.00     0.061 C 
HETATM   12  S1  UNL     1      20.744   5.941  50.235  1.00  0.00    -0.188 SA
HETATM   13  C16 UNL     1      22.191   6.946  50.381  1.00  0.00     0.092 C 
HETATM   14  C17 UNL     1      22.124   7.979  49.287  1.00  0.00    -0.015 C 
HETATM   15  C18 UNL     1      23.085   8.024  48.370  1.00  0.00     0.029 C 
HETATM   16  H12 UNL     1      22.934   5.485  52.312  1.00  0.00     0.191 HD
HETATM   17  H14 UNL     1      19.756   6.245  49.278  1.00  0.00     0.096 HD
ENDROOT
BRANCH   6  18
HETATM   18  C8  UNL     1      26.606   1.584  52.107  1.00  0.00    -0.009 A 
HETATM   19  C9  UNL     1      26.460   0.220  52.022  1.00  0.00     0.015 A 
HETATM   20  C10 UNL     1      27.404  -0.597  52.567  1.00  0.00     0.020 A 
HETATM   21  C11 UNL     1      28.509  -0.080  53.207  1.00  0.00     0.011 A 
HETATM   22 BR1  UNL     1      29.744  -1.372  53.920  1.00  0.00    -0.051 Br
HETATM   23  C12 UNL     1      28.698   1.281  53.316  1.00  0.00     0.020 A 
HETATM   24  C13 UNL     1      27.726   2.118  52.754  1.00  0.00     0.015 A 
ENDBRANCH   6  18
BRANCH  10  25
HETATM   25  O2  UNL     1      21.962   2.959  52.290  1.00  0.00    -0.344 OA
HETATM   26  H13 UNL     1      21.189   2.611  52.841  1.00  0.00     0.219 HD
ENDBRANCH  10  25
BRANCH   1  27
HETATM   27  O1  UNL     1      24.702   8.118  46.863  1.00  0.00    -0.360 OA
HETATM   28  C1  UNL     1      26.000   8.519  46.580  1.00  0.00     0.209 C 
ENDBRANCH   1  27
TORSDOF 3
ENDMDL
MODEL 7
REMARK VINA RESULT:      -7.5      3.083      4.076
REMARK  3 active torsions:
REMARK  status: ('A' for Active; 'I' for Inactive)
REMARK    1  A    between atoms: O1_2  and  C2_3 
REMARK    2  A    between atoms: C7_8  and  C8_9 
REMARK    3  A    between atoms: C14_19  and  O2_20 
ROOT
HETATM    1  C2  UNL     1      19.541   3.804  50.555  1.00  0.00     0.054 C 
HETATM    2  C3  UNL     1      20.687   3.313  50.951  1.00  0.00     0.081 C 
HETATM    3  C4  UNL     1      21.820   2.605  51.507  1.00  0.00     0.015 C 
HETATM    4  C5  UNL     1      23.122   2.905  51.346  1.00  0.00     0.057 A 
HETATM    5  C6  UNL     1      24.123   2.018  52.016  1.00  0.00     0.122 A 
HETATM    6  C7  UNL     1      25.418   2.553  51.682  1.00  0.00     0.072 A 
HETATM    7  N1  UNL     1      25.239   3.591  50.955  1.00  0.00    -0.155 NA
HETATM    8  N2  UNL     1      23.920   3.883  50.706  1.00  0.00    -0.176 N 
HETATM    9  N3  UNL     1      24.032   5.078  49.908  1.00  0.00    -0.256 N 
HETATM   10  C14 UNL     1      24.260   6.378  50.521  1.00  0.00     0.174 C 
HETATM   11  C15 UNL     1      23.307   7.222  50.801  1.00  0.00     0.061 C 
HETATM   12  S1  UNL     1      22.105   7.345  49.700  1.00  0.00    -0.188 SA
HETATM   13  C16 UNL     1      21.556   5.809  49.021  1.00  0.00     0.092 C 
HETATM   14  C17 UNL     1      20.050   5.849  48.998  1.00  0.00    -0.015 C 
HETATM   15  C18 UNL     1      19.361   4.946  49.686  1.00  0.00     0.029 C 
HETATM   16  H12 UNL     1      23.977   5.083  48.866  1.00  0.00     0.191 HD
HETATM   17  H14 UNL     1      21.180   8.359  50.019  1.00  0.00     0.096 HD
ENDROOT
BRANCH   6  18
HETATM   18  C8  UNL     1      26.526   1.793  52.245  1.00  0.00    -0.009 A 
HETATM   19  C9  UNL     1      27.679   2.193  52.876  1.00  0.00     0.015 A 
HETATM   20  C10 UNL     1      28.569   1.259  53.317  1.00  0.00     0.020 A 
HETATM   21  C11 UNL     1      28.335  -0.086  53.140  1.00  0.00     0.011 A 
HETATM   22 BR1  UNL     1      29.691  -1.269  53.820  1.00  0.00    -0.051 Br
HETATM   23  C12 UNL     1      27.191  -0.534  52.512  1.00  0.00     0.020 A 
HETATM   24  C13 UNL     1      26.279   0.427  52.061  1.00  0.00     0.015 A 
ENDBRANCH   6  18
BRANCH  10  25
HETATM   25  O2  UNL     1      25.656   6.276  50.623  1.00  0.00    -0.344 OA
HETATM   26  H13 UNL     1      26.211   6.856  51.237  1.00  0.00     0.219 HD
ENDBRANCH  10  25
BRANCH   1  27
HETATM   27  O1  UNL     1      18.214   3.421  50.806  1.00  0.00    -0.360 OA
HETATM   28  C1  UNL     1      17.827   2.229  51.403  1.00  0.00     0.209 C 
ENDBRANCH   1  27
TORSDOF 3
ENDMDL
MODEL 8
REMARK VINA RESULT:      -7.5      2.086      4.599
REMARK  3 active torsions:
REMARK  status: ('A' for Active; 'I' for Inactive)
REMARK    1  A    between atoms: O1_2  and  C2_3 
REMARK    2  A    between atoms: C7_8  and  C8_9 
REMARK    3  A    between atoms: C14_19  and  O2_20 
ROOT
HETATM    1  C2  UNL     1      20.641   4.841  49.196  1.00  0.00     0.054 C 
HETATM    2  C3  UNL     1      21.640   4.140  49.667  1.00  0.00     0.081 C 
HETATM    3  C4  UNL     1      22.876   3.475  50.015  1.00  0.00     0.015 C 
HETATM    4  C5  UNL     1      23.059   2.558  50.984  1.00  0.00     0.057 A 
HETATM    5  C6  UNL     1      24.438   2.011  51.166  1.00  0.00     0.122 A 
HETATM    6  C7  UNL     1      24.355   1.069  52.253  1.00  0.00     0.072 A 
HETATM    7  N1  UNL     1      23.139   1.035  52.651  1.00  0.00    -0.155 NA
HETATM    8  N2  UNL     1      22.297   1.874  51.961  1.00  0.00    -0.176 N 
HETATM    9  N3  UNL     1      21.034   1.605  52.599  1.00  0.00    -0.256 N 
HETATM   10  C14 UNL     1      20.242   0.435  52.250  1.00  0.00     0.174 C 
HETATM   11  C15 UNL     1      19.266   0.455  51.386  1.00  0.00     0.061 C 
HETATM   12  S1  UNL     1      18.299   1.773  51.419  1.00  0.00    -0.188 SA
HETATM   13  C16 UNL     1      19.144   3.313  51.615  1.00  0.00     0.092 C 
HETATM   14  C17 UNL     1      18.527   4.282  50.640  1.00  0.00    -0.015 C 
HETATM   15  C18 UNL     1      19.284   4.831  49.696  1.00  0.00     0.029 C 
HETATM   16  H12 UNL     1      20.625   2.209  53.347  1.00  0.00     0.191 HD
HETATM   17  H14 UNL     1      17.203   1.664  50.540  1.00  0.00     0.096 HD
ENDROOT
BRANCH   6  18
HETATM   18  C8  UNL     1      25.629   0.443  52.582  1.00  0.00    -0.009 A 
HETATM   19  C9  UNL     1      25.998  -0.876  52.682  1.00  0.00     0.015 A 
HETATM   20  C10 UNL     1      27.281  -1.198  53.011  1.00  0.00     0.020 A 
HETATM   21  C11 UNL     1      28.221  -0.219  53.247  1.00  0.00     0.011 A 
HETATM   22 BR1  UNL     1      29.983  -0.844  53.700  1.00  0.00    -0.051 Br
HETATM   23  C12 UNL     1      27.897   1.118  53.157  1.00  0.00     0.020 A 
HETATM   24  C13 UNL     1      26.579   1.445  52.819  1.00  0.00     0.015 A 
ENDBRANCH   6  18
BRANCH  10  25
HETATM   25  O2  UNL     1      20.898  -0.473  53.094  1.00  0.00    -0.344 OA
HETATM   26  H13 UNL     1      21.722  -0.238  53.629  1.00  0.00     0.219 HD
ENDBRANCH  10  25
BRANCH   1  27
HETATM   27  O1  UNL     1      20.552   5.769  48.145  1.00  0.00    -0.360 OA
HETATM   28  C1  UNL     1      21.461   6.791  47.904  1.00  0.00     0.209 C 
ENDBRANCH   1  27
TORSDOF 3
ENDMDL
MODEL 9
REMARK VINA RESULT:      -7.4      4.878      7.270
REMARK  3 active torsions:
REMARK  status: ('A' for Active; 'I' for Inactive)
REMARK    1  A    between atoms: O1_2  and  C2_3 
REMARK    2  A    between atoms: C7_8  and  C8_9 
REMARK    3  A    between atoms: C14_19  and  O2_20 
ROOT
HETATM    1  C2  UNL     1      22.250   5.911  45.933  1.00  0.00     0.054 C 
HETATM    2  C3  UNL     1      22.331   5.068  46.930  1.00  0.00     0.081 C 
HETATM    3  C4  UNL     1      22.266   4.001  47.904  1.00  0.00     0.015 C 
HETATM    4  C5  UNL     1      22.904   3.943  49.088  1.00  0.00     0.057 A 
HETATM    5  C6  UNL     1      22.686   2.727  49.930  1.00  0.00     0.122 A 
HETATM    6  C7  UNL     1      23.476   2.918  51.120  1.00  0.00     0.072 A 
HETATM    7  N1  UNL     1      24.056   4.055  51.028  1.00  0.00    -0.155 NA
HETATM    8  N2  UNL     1      23.777   4.737  49.868  1.00  0.00    -0.176 N 
HETATM    9  N3  UNL     1      24.529   5.951  50.057  1.00  0.00    -0.256 N 
HETATM   10  C14 UNL     1      24.020   7.037  50.882  1.00  0.00     0.174 C 
HETATM   11  C15 UNL     1      23.379   8.066  50.405  1.00  0.00     0.061 C 
HETATM   12  S1  UNL     1      23.935   8.674  48.994  1.00  0.00    -0.188 SA
HETATM   13  C16 UNL     1      24.389   7.464  47.788  1.00  0.00     0.092 C 
HETATM   14  C17 UNL     1      23.836   7.928  46.466  1.00  0.00    -0.015 C 
HETATM   15  C18 UNL     1      22.958   7.167  45.821  1.00  0.00     0.029 C 
HETATM   16  H12 UNL     1      25.472   6.117  49.640  1.00  0.00     0.191 HD
HETATM   17  H14 UNL     1      23.265   9.852  48.609  1.00  0.00     0.096 HD
ENDROOT
BRANCH   6  18
HETATM   18  C8  UNL     1      23.396   1.807  52.059  1.00  0.00    -0.009 A 
HETATM   19  C9  UNL     1      24.363   0.988  52.589  1.00  0.00     0.015 A 
HETATM   20  C10 UNL     1      24.014   0.004  53.465  1.00  0.00     0.020 A 
HETATM   21  C11 UNL     1      22.700  -0.188  53.831  1.00  0.00     0.011 A 
HETATM   22 BR1  UNL     1      22.379  -1.619  55.076  1.00  0.00    -0.051 Br
HETATM   23  C12 UNL     1      21.695   0.610  53.326  1.00  0.00     0.020 A 
HETATM   24  C13 UNL     1      22.058   1.620  52.427  1.00  0.00     0.015 A 
ENDBRANCH   6  18
BRANCH  10  25
HETATM   25  O2  UNL     1      24.460   6.535  52.116  1.00  0.00    -0.344 OA
HETATM   26  H13 UNL     1      25.011   7.073  52.770  1.00  0.00     0.219 HD
ENDBRANCH  10  25
BRANCH   1  27
HETATM   27  O1  UNL     1      21.521   5.884  44.733  1.00  0.00    -0.360 OA
HETATM   28  C1  UNL     1      20.849   4.777  44.232  1.00  0.00     0.209 C 
ENDBRANCH   1  27
TORSDOF 3
ENDMDL
