MODEL 1
REMARK VINA RESULT:      -7.5      0.000      0.000
REMARK  7 active torsions:
REMARK  status: ('A' for Active; 'I' for Inactive)
REMARK    1  A    between atoms: N1_2  and  C2_3 
REMARK    2  A    between atoms: N1_2  and  C12_17 
REMARK    3  A    between atoms: C4_7  and  N4_8 
REMARK    4  A    between atoms: C5_9  and  C6_10 
REMARK    5  A    between atoms: C10_14  and  O1_15 
REMARK    6  A    between atoms: C14_19  and  C15_20 
REMARK    7  A    between atoms: C15_20  and  N5_21 
ROOT
HETATM    1  C2  UNL     1      22.765   0.428  53.368  1.00  0.00     0.142 A 
HETATM    2  N2  UNL     1      21.540   0.161  53.866  1.00  0.00    -0.224 NA
HETATM    3  C3  UNL     1      21.432  -0.692  54.913  1.00  0.00     0.237 A 
HETATM    4  N3  UNL     1      22.476  -1.320  55.528  1.00  0.00    -0.224 NA
HETATM    5  C4  UNL     1      23.694  -1.047  55.026  1.00  0.00     0.137 A 
HETATM    6  C5  UNL     1      23.871  -0.189  53.960  1.00  0.00     0.066 A 
ENDROOT
BRANCH   1   7
HETATM    7  N1  UNL     1      22.794   1.328  52.273  1.00  0.00    -0.365 N 
HETATM    8  C1  UNL     1      22.446   0.979  50.886  1.00  0.00     0.151 C 
BRANCH   7   9
HETATM    9  C12 UNL     1      23.184   2.692  52.461  1.00  0.00     0.086 A 
HETATM   10  C13 UNL     1      24.185   3.293  51.534  1.00  0.00     0.031 A 
HETATM   11  C14 UNL     1      23.171   4.272  51.036  1.00  0.00     0.018 A 
HETATM   12  C19 UNL     1      22.118   3.619  51.874  1.00  0.00     0.031 A 
BRANCH  11  13
HETATM   13  C15 UNL     1      23.388   5.715  51.505  1.00  0.00     0.277 C 
BRANCH  13  14
HETATM   14  N5  UNL     1      23.388   6.608  50.382  1.00  0.00     0.088 N 
HETATM   15  C16 UNL     1      23.946   7.902  50.722  1.00  0.00     0.274 C 
HETATM   16  C17 UNL     1      25.316   7.339  50.426  1.00  0.00     0.060 C 
HETATM   17  C18 UNL     1      24.549   6.373  49.546  1.00  0.00     0.274 C 
ENDBRANCH  13  14
ENDBRANCH  11  13
ENDBRANCH   7   9
ENDBRANCH   1   7
BRANCH   6  18
HETATM   18  C6  UNL     1      25.163   0.147  53.370  1.00  0.00    -0.016 A 
HETATM   19  C7  UNL     1      25.835  -0.473  52.335  1.00  0.00     0.012 A 
HETATM   20  C8  UNL     1      27.066   0.040  51.949  1.00  0.00     0.004 A 
HETATM   21  C9  UNL     1      27.618   1.125  52.563  1.00  0.00     0.036 A 
HETATM   22  C10 UNL     1      26.957   1.760  53.606  1.00  0.00     0.066 A 
HETATM   23  C11 UNL     1      25.746   1.259  53.987  1.00  0.00     0.049 A 
BRANCH  22  24
HETATM   24  O1  UNL     1      27.565   2.863  54.197  1.00  0.00    -0.361 OA
HETATM   25  H10 UNL     1      28.515   3.056  53.878  1.00  0.00     0.217 HD
ENDBRANCH  22  24
ENDBRANCH   6  18
BRANCH   5  26
HETATM   26  N4  UNL     1      24.870  -1.634  55.571  1.00  0.00    -0.383 N 
HETATM   27  H5  UNL     1      25.768  -1.272  55.184  1.00  0.00     0.157 HD
HETATM   28  H6  UNL     1      25.176  -2.334  56.255  1.00  0.00     0.157 HD
ENDBRANCH   5  26
TORSDOF 7
ENDMDL
MODEL 2
REMARK VINA RESULT:      -7.4      2.861      5.980
REMARK  7 active torsions:
REMARK  status: ('A' for Active; 'I' for Inactive)
REMARK    1  A    between atoms: N1_2  and  C2_3 
REMARK    2  A    between atoms: N1_2  and  C12_17 
REMARK    3  A    between atoms: C4_7  and  N4_8 
REMARK    4  A    between atoms: C5_9  and  C6_10 
REMARK    5  A    between atoms: C10_14  and  O1_15 
REMARK    6  A    between atoms: C14_19  and  C15_20 
REMARK    7  A    between atoms: C15_20  and  N5_21 
ROOT
HETATM    1  C2  UNL     1      22.509   2.360  50.982  1.00  0.00     0.142 A 
HETATM    2  N2  UNL     1      21.392   1.636  51.203  1.00  0.00    -0.224 NA
HETATM    3  C3  UNL     1      20.742   1.096  50.144  1.00  0.00     0.237 A 
HETATM    4  N3  UNL     1      21.125   1.220  48.839  1.00  0.00    -0.224 NA
HETATM    5  C4  UNL     1      22.240   1.943  48.628  1.00  0.00     0.137 A 
HETATM    6  C5  UNL     1      22.946   2.519  49.664  1.00  0.00     0.066 A 
ENDROOT
BRANCH   1   7
HETATM    7  N1  UNL     1      23.130   2.891  52.140  1.00  0.00    -0.365 N 
HETATM    8  C1  UNL     1      23.145   4.316  52.510  1.00  0.00     0.151 C 
BRANCH   7   9
HETATM    9  C12 UNL     1      23.811   2.032  53.061  1.00  0.00     0.086 A 
HETATM   10  C13 UNL     1      24.489   0.810  52.543  1.00  0.00     0.031 A 
HETATM   11  C14 UNL     1      25.820   1.338  52.971  1.00  0.00     0.018 A 
HETATM   12  C19 UNL     1      25.181   2.621  53.398  1.00  0.00     0.031 A 
BRANCH  11  13
HETATM   13  C15 UNL     1      26.431   0.630  54.186  1.00  0.00     0.277 C 
BRANCH  13  14
HETATM   14  N5  UNL     1      27.673   0.010  53.827  1.00  0.00     0.088 N 
HETATM   15  C16 UNL     1      28.520   0.901  53.059  1.00  0.00     0.274 C 
HETATM   16  C17 UNL     1      29.038   1.460  54.362  1.00  0.00     0.060 C 
HETATM   17  C18 UNL     1      28.625   0.112  54.915  1.00  0.00     0.274 C 
ENDBRANCH  13  14
ENDBRANCH  11  13
ENDBRANCH   7   9
ENDBRANCH   1   7
BRANCH   6  18
HETATM   18  C6  UNL     1      24.161   3.313  49.501  1.00  0.00    -0.016 A 
HETATM   19  C7  UNL     1      25.478   2.933  49.667  1.00  0.00     0.012 A 
HETATM   20  C8  UNL     1      26.469   3.880  49.451  1.00  0.00     0.004 A 
HETATM   21  C9  UNL     1      26.173   5.160  49.084  1.00  0.00     0.036 A 
HETATM   22  C10 UNL     1      24.854   5.560  48.913  1.00  0.00     0.066 A 
HETATM   23  C11 UNL     1      23.877   4.630  49.124  1.00  0.00     0.049 A 
BRANCH  22  24
HETATM   24  O1  UNL     1      24.608   6.876  48.539  1.00  0.00    -0.361 OA
HETATM   25  H10 UNL     1      25.096   7.582  49.091  1.00  0.00     0.217 HD
ENDBRANCH  22  24
ENDBRANCH   6  18
BRANCH   5  26
HETATM   26  N4  UNL     1      22.751   2.152  47.317  1.00  0.00    -0.383 N 
HETATM   27  H5  UNL     1      23.742   2.473  47.272  1.00  0.00     0.157 HD
HETATM   28  H6  UNL     1      22.479   2.098  46.329  1.00  0.00     0.157 HD
ENDBRANCH   5  26
TORSDOF 7
ENDMDL
MODEL 3
REMARK VINA RESULT:      -6.9      3.095      7.211
REMARK  7 active torsions:
REMARK  status: ('A' for Active; 'I' for Inactive)
REMARK    1  A    between atoms: N1_2  and  C2_3 
REMARK    2  A    between atoms: N1_2  and  C12_17 
REMARK    3  A    between atoms: C4_7  and  N4_8 
REMARK    4  A    between atoms: C5_9  and  C6_10 
REMARK    5  A    between atoms: C10_14  and  O1_15 
REMARK    6  A    between atoms: C14_19  and  C15_20 
REMARK    7  A    between atoms: C15_20  and  N5_21 
ROOT
HETATM    1  C2  UNL     1      24.356   4.023  50.484  1.00  0.00     0.142 A 
HETATM    2  N2  UNL     1      25.273   4.963  50.174  1.00  0.00    -0.224 NA
HETATM    3  C3  UNL     1      25.034   5.788  49.126  1.00  0.00     0.237 A 
HETATM    4  N3  UNL     1      23.921   5.756  48.337  1.00  0.00    -0.224 NA
HETATM    5  C4  UNL     1      23.012   4.816  48.653  1.00  0.00     0.137 A 
HETATM    6  C5  UNL     1      23.197   3.945  49.707  1.00  0.00     0.066 A 
ENDROOT
BRANCH   1   7
HETATM    7  N1  UNL     1      24.679   3.199  51.591  1.00  0.00    -0.365 N 
HETATM    8  C1  UNL     1      24.179   3.394  52.961  1.00  0.00     0.151 C 
BRANCH   7   9
HETATM    9  C12 UNL     1      25.554   2.077  51.433  1.00  0.00     0.086 A 
HETATM   10  C13 UNL     1      26.959   2.181  51.920  1.00  0.00     0.031 A 
HETATM   11  C14 UNL     1      26.718   1.097  52.921  1.00  0.00     0.018 A 
HETATM   12  C19 UNL     1      25.275   1.047  52.530  1.00  0.00     0.031 A 
BRANCH  11  13
HETATM   13  C15 UNL     1      27.393  -0.240  52.595  1.00  0.00     0.277 C 
BRANCH  13  14
HETATM   14  N5  UNL     1      28.018  -0.780  53.766  1.00  0.00     0.088 N 
HETATM   15  C16 UNL     1      29.234  -1.501  53.445  1.00  0.00     0.274 C 
HETATM   16  C17 UNL     1      29.976  -0.187  53.509  1.00  0.00     0.060 C 
HETATM   17  C18 UNL     1      28.835   0.226  54.416  1.00  0.00     0.274 C 
ENDBRANCH  13  14
ENDBRANCH  11  13
ENDBRANCH   7   9
ENDBRANCH   1   7
BRANCH   6  18
HETATM   18  C6  UNL     1      22.250   2.905  50.101  1.00  0.00    -0.016 A 
HETATM   19  C7  UNL     1      22.238   1.566  49.762  1.00  0.00     0.012 A 
HETATM   20  C8  UNL     1      21.220   0.769  50.268  1.00  0.00     0.004 A 
HETATM   21  C9  UNL     1      20.247   1.273  51.079  1.00  0.00     0.036 A 
HETATM   22  C10 UNL     1      20.243   2.617  51.429  1.00  0.00     0.066 A 
HETATM   23  C11 UNL     1      21.243   3.403  50.934  1.00  0.00     0.049 A 
BRANCH  22  24
HETATM   24  O1  UNL     1      19.228   3.079  52.259  1.00  0.00    -0.361 OA
HETATM   25  H10 UNL     1      18.283   2.816  51.976  1.00  0.00     0.217 HD
ENDBRANCH  22  24
ENDBRANCH   6  18
BRANCH   5  26
HETATM   26  N4  UNL     1      21.806   4.671  47.912  1.00  0.00    -0.383 N 
HETATM   27  H5  UNL     1      21.876   4.072  47.062  1.00  0.00     0.157 HD
HETATM   28  H6  UNL     1      20.823   4.963  47.912  1.00  0.00     0.157 HD
ENDBRANCH   5  26
TORSDOF 7
ENDMDL
MODEL 4
REMARK VINA RESULT:      -6.8      2.745      6.738
REMARK  7 active torsions:
REMARK  status: ('A' for Active; 'I' for Inactive)
REMARK    1  A    between atoms: N1_2  and  C2_3 
REMARK    2  A    between atoms: N1_2  and  C12_17 
REMARK    3  A    between atoms: C4_7  and  N4_8 
REMARK    4  A    between atoms: C5_9  and  C6_10 
REMARK    5  A    between atoms: C10_14  and  O1_15 
REMARK    6  A    between atoms: C14_19  and  C15_20 
REMARK    7  A    between atoms: C15_20  and  N5_21 
ROOT
HETATM    1  C2  UNL     1      22.877   2.861  49.770  1.00  0.00     0.142 A 
HETATM    2  N2  UNL     1      22.220   1.783  49.294  1.00  0.00    -0.224 NA
HETATM    3  C3  UNL     1      21.663   1.850  48.060  1.00  0.00     0.237 A 
HETATM    4  N3  UNL     1      21.707   2.936  47.234  1.00  0.00    -0.224 NA
HETATM    5  C4  UNL     1      22.364   4.006  47.717  1.00  0.00     0.137 A 
HETATM    6  C5  UNL     1      22.953   4.001  48.966  1.00  0.00     0.066 A 
ENDROOT
BRANCH   1   7
HETATM    7  N1  UNL     1      23.431   2.712  51.067  1.00  0.00    -0.365 N 
HETATM    8  C1  UNL     1      22.871   3.300  52.294  1.00  0.00     0.151 C 
BRANCH   7   9
HETATM    9  C12 UNL     1      24.624   1.946  51.266  1.00  0.00     0.086 A 
HETATM   10  C13 UNL     1      25.871   2.647  51.685  1.00  0.00     0.031 A 
HETATM   11  C14 UNL     1      25.885   1.899  52.979  1.00  0.00     0.018 A 
HETATM   12  C19 UNL     1      24.575   1.263  52.634  1.00  0.00     0.031 A 
BRANCH  11  13
HETATM   13  C15 UNL     1      26.973   0.824  53.088  1.00  0.00     0.277 C 
BRANCH  13  14
HETATM   14  N5  UNL     1      27.762   1.033  54.266  1.00  0.00     0.088 N 
HETATM   15  C16 UNL     1      28.544  -0.138  54.607  1.00  0.00     0.274 C 
HETATM   16  C17 UNL     1      29.612   0.355  53.660  1.00  0.00     0.060 C 
HETATM   17  C18 UNL     1      28.999   1.712  53.936  1.00  0.00     0.274 C 
ENDBRANCH  13  14
ENDBRANCH  11  13
ENDBRANCH   7   9
ENDBRANCH   1   7
BRANCH   6  18
HETATM   18  C6  UNL     1      23.678   5.128  49.546  1.00  0.00    -0.016 A 
HETATM   19  C7  UNL     1      23.204   6.152  50.342  1.00  0.00     0.012 A 
HETATM   20  C8  UNL     1      24.100   7.119  50.775  1.00  0.00     0.004 A 
HETATM   21  C9  UNL     1      25.421   7.079  50.435  1.00  0.00     0.036 A 
HETATM   22  C10 UNL     1      25.915   6.058  49.635  1.00  0.00     0.066 A 
HETATM   23  C11 UNL     1      25.035   5.105  49.208  1.00  0.00     0.049 A 
BRANCH  22  24
HETATM   24  O1  UNL     1      27.269   6.066  49.318  1.00  0.00    -0.361 OA
HETATM   25  H10 UNL     1      27.900   6.164  50.114  1.00  0.00     0.217 HD
ENDBRANCH  22  24
ENDBRANCH   6  18
BRANCH   5  26
HETATM   26  N4  UNL     1      22.487   5.205  46.962  1.00  0.00    -0.383 N 
HETATM   27  H5  UNL     1      22.681   6.065  47.520  1.00  0.00     0.157 HD
HETATM   28  H6  UNL     1      22.450   5.556  45.998  1.00  0.00     0.157 HD
ENDBRANCH   5  26
TORSDOF 7
ENDMDL
MODEL 5
REMARK VINA RESULT:      -6.7      2.538      3.155
REMARK  7 active torsions:
REMARK  status: ('A' for Active; 'I' for Inactive)
REMARK    1  A    between atoms: N1_2  and  C2_3 
REMARK    2  A    between atoms: N1_2  and  C12_17 
REMARK    3  A    between atoms: C4_7  and  N4_8 
REMARK    4  A    between atoms: C5_9  and  C6_10 
REMARK    5  A    between atoms: C10_14  and  O1_15 
REMARK    6  A    between atoms: C14_19  and  C15_20 
REMARK    7  A    between atoms: C15_20  and  N5_21 
ROOT
HETATM    1  C2  UNL     1      22.907   0.896  53.335  1.00  0.00     0.142 A 
HETATM    2  N2  UNL     1      21.569   1.015  53.458  1.00  0.00    -0.224 NA
HETATM    3  C3  UNL     1      20.911   0.169  54.288  1.00  0.00     0.237 A 
HETATM    4  N3  UNL     1      21.494  -0.817  55.030  1.00  0.00    -0.224 NA
HETATM    5  C4  UNL     1      22.829  -0.929  54.901  1.00  0.00     0.137 A 
HETATM    6  C5  UNL     1      23.556  -0.099  54.072  1.00  0.00     0.066 A 
ENDROOT
BRANCH   1   7
HETATM    7  N1  UNL     1      23.521   1.816  52.448  1.00  0.00    -0.365 N 
HETATM    8  C1  UNL     1      24.216   3.046  52.859  1.00  0.00     0.151 C 
BRANCH   7   9
HETATM    9  C12 UNL     1      23.498   1.592  51.035  1.00  0.00     0.086 A 
HETATM   10  C13 UNL     1      22.217   1.187  50.388  1.00  0.00     0.031 A 
HETATM   11  C14 UNL     1      22.194   2.450  49.588  1.00  0.00     0.018 A 
HETATM   12  C19 UNL     1      23.418   2.932  50.301  1.00  0.00     0.031 A 
BRANCH  11  13
HETATM   13  C15 UNL     1      22.497   2.271  48.096  1.00  0.00     0.277 C 
BRANCH  13  14
HETATM   14  N5  UNL     1      21.445   2.838  47.304  1.00  0.00     0.088 N 
HETATM   15  C16 UNL     1      21.073   4.160  47.768  1.00  0.00     0.274 C 
HETATM   16  C17 UNL     1      22.182   4.723  46.912  1.00  0.00     0.060 C 
HETATM   17  C18 UNL     1      21.984   3.455  46.109  1.00  0.00     0.274 C 
ENDBRANCH  13  14
ENDBRANCH  11  13
ENDBRANCH   7   9
ENDBRANCH   1   7
BRANCH   6  18
HETATM   18  C6  UNL     1      25.003  -0.168  53.889  1.00  0.00    -0.016 A 
HETATM   19  C7  UNL     1      25.988   0.637  54.427  1.00  0.00     0.012 A 
HETATM   20  C8  UNL     1      27.309   0.368  54.100  1.00  0.00     0.004 A 
HETATM   21  C9  UNL     1      27.650  -0.660  53.270  1.00  0.00     0.036 A 
HETATM   22  C10 UNL     1      26.673  -1.479  52.719  1.00  0.00     0.066 A 
HETATM   23  C11 UNL     1      25.372  -1.216  53.040  1.00  0.00     0.049 A 
BRANCH  22  24
HETATM   24  O1  UNL     1      27.076  -2.511  51.880  1.00  0.00    -0.361 OA
HETATM   25  H10 UNL     1      28.023  -2.426  51.511  1.00  0.00     0.217 HD
ENDBRANCH  22  24
ENDBRANCH   6  18
BRANCH   5  26
HETATM   26  N4  UNL     1      23.564  -1.914  55.617  1.00  0.00    -0.383 N 
HETATM   27  H5  UNL     1      24.601  -1.839  55.539  1.00  0.00     0.157 HD
HETATM   28  H6  UNL     1      23.435  -2.731  56.225  1.00  0.00     0.157 HD
ENDBRANCH   5  26
TORSDOF 7
ENDMDL
MODEL 6
REMARK VINA RESULT:      -6.4      3.220      4.731
REMARK  7 active torsions:
REMARK  status: ('A' for Active; 'I' for Inactive)
REMARK    1  A    between atoms: N1_2  and  C2_3 
REMARK    2  A    between atoms: N1_2  and  C12_17 
REMARK    3  A    between atoms: C4_7  and  N4_8 
REMARK    4  A    between atoms: C5_9  and  C6_10 
REMARK    5  A    between atoms: C10_14  and  O1_15 
REMARK    6  A    between atoms: C14_19  and  C15_20 
REMARK    7  A    between atoms: C15_20  and  N5_21 
ROOT
HETATM    1  C2  UNL     1      24.902   2.546  51.937  1.00  0.00     0.142 A 
HETATM    2  N2  UNL     1      26.203   2.905  51.947  1.00  0.00    -0.224 NA
HETATM    3  C3  UNL     1      27.137   1.967  52.241  1.00  0.00     0.237 A 
HETATM    4  N3  UNL     1      26.875   0.660  52.535  1.00  0.00    -0.224 NA
HETATM    5  C4  UNL     1      25.576   0.312  52.522  1.00  0.00     0.137 A 
HETATM    6  C5  UNL     1      24.577   1.219  52.231  1.00  0.00     0.066 A 
ENDROOT
BRANCH   1   7
HETATM    7  N1  UNL     1      23.988   3.582  51.621  1.00  0.00    -0.365 N 
HETATM    8  C1  UNL     1      23.044   4.192  52.571  1.00  0.00     0.151 C 
BRANCH   7   9
HETATM    9  C12 UNL     1      23.926   4.120  50.296  1.00  0.00     0.086 A 
HETATM   10  C13 UNL     1      23.856   3.184  49.138  1.00  0.00     0.031 A 
HETATM   11  C14 UNL     1      22.502   3.700  48.771  1.00  0.00     0.018 A 
HETATM   12  C19 UNL     1      22.496   4.570  49.989  1.00  0.00     0.031 A 
BRANCH  11  13
HETATM   13  C15 UNL     1      22.465   4.570  47.510  1.00  0.00     0.277 C 
BRANCH  13  14
HETATM   14  N5  UNL     1      21.350   4.205  46.687  1.00  0.00     0.088 N 
HETATM   15  C16 UNL     1      20.750   5.360  46.048  1.00  0.00     0.274 C 
HETATM   16  C17 UNL     1      21.766   5.218  44.940  1.00  0.00     0.060 C 
HETATM   17  C18 UNL     1      21.802   3.769  45.380  1.00  0.00     0.274 C 
ENDBRANCH  13  14
ENDBRANCH  11  13
ENDBRANCH   7   9
ENDBRANCH   1   7
BRANCH   6  18
HETATM   18  C6  UNL     1      23.152   0.904  52.200  1.00  0.00    -0.016 A 
HETATM   19  C7  UNL     1      22.314   0.763  51.111  1.00  0.00     0.012 A 
HETATM   20  C8  UNL     1      20.980   0.458  51.341  1.00  0.00     0.004 A 
HETATM   21  C9  UNL     1      20.487   0.296  52.602  1.00  0.00     0.036 A 
HETATM   22  C10 UNL     1      21.314   0.434  53.709  1.00  0.00     0.066 A 
HETATM   23  C11 UNL     1      22.627   0.734  53.486  1.00  0.00     0.049 A 
BRANCH  22  24
HETATM   24  O1  UNL     1      20.759   0.259  54.972  1.00  0.00    -0.361 OA
HETATM   25  H10 UNL     1      20.088   0.975  55.254  1.00  0.00     0.217 HD
ENDBRANCH  22  24
ENDBRANCH   6  18
BRANCH   5  26
HETATM   26  N4  UNL     1      25.161  -1.018  52.810  1.00  0.00    -0.383 N 
HETATM   27  H5  UNL     1      24.603  -1.482  52.061  1.00  0.00     0.157 HD
HETATM   28  H6  UNL     1      25.215  -1.738  53.540  1.00  0.00     0.157 HD
ENDBRANCH   5  26
TORSDOF 7
ENDMDL
MODEL 7
REMARK VINA RESULT:      -6.4      8.163     10.950
REMARK  7 active torsions:
REMARK  status: ('A' for Active; 'I' for Inactive)
REMARK    1  A    between atoms: N1_2  and  C2_3 
REMARK    2  A    between atoms: N1_2  and  C12_17 
REMARK    3  A    between atoms: C4_7  and  N4_8 
REMARK    4  A    between atoms: C5_9  and  C6_10 
REMARK    5  A    between atoms: C10_14  and  O1_15 
REMARK    6  A    between atoms: C14_19  and  C15_20 
REMARK    7  A    between atoms: C15_20  and  N5_21 
ROOT
HETATM    1  C2  UNL     1      32.463   4.738  47.641  1.00  0.00     0.142 A 
HETATM    2  N2  UNL     1      32.186   3.431  47.827  1.00  0.00    -0.224 NA
HETATM    3  C3  UNL     1      32.986   2.505  47.245  1.00  0.00     0.237 A 
HETATM    4  N3  UNL     1      34.074   2.780  46.469  1.00  0.00    -0.224 NA
HETATM    5  C4  UNL     1      34.343   4.086  46.288  1.00  0.00     0.137 A 
HETATM    6  C5  UNL     1      33.566   5.078  46.853  1.00  0.00     0.066 A 
ENDROOT
BRANCH   1   7
HETATM    7  N1  UNL     1      31.580   5.644  48.281  1.00  0.00    -0.365 N 
HETATM    8  C1  UNL     1      31.794   6.228  49.615  1.00  0.00     0.151 C 
BRANCH   7   9
HETATM    9  C12 UNL     1      30.372   6.062  47.637  1.00  0.00     0.086 A 
HETATM   10  C13 UNL     1      29.066   5.567  48.157  1.00  0.00     0.031 A 
HETATM   11  C14 UNL     1      28.654   6.958  48.518  1.00  0.00     0.018 A 
HETATM   12  C19 UNL     1      29.999   7.470  48.106  1.00  0.00     0.031 A 
BRANCH  11  13
HETATM   13  C15 UNL     1      27.570   7.560  47.617  1.00  0.00     0.277 C 
BRANCH  13  14
HETATM   14  N5  UNL     1      26.534   8.150  48.414  1.00  0.00     0.088 N 
HETATM   15  C16 UNL     1      25.229   7.998  47.801  1.00  0.00     0.274 C 
HETATM   16  C17 UNL     1      25.127   6.643  48.459  1.00  0.00     0.060 C 
HETATM   17  C18 UNL     1      26.106   7.233  49.452  1.00  0.00     0.274 C 
ENDBRANCH  13  14
ENDBRANCH  11  13
ENDBRANCH   7   9
ENDBRANCH   1   7
BRANCH   6  18
HETATM   18  C6  UNL     1      33.804   6.510  46.696  1.00  0.00    -0.016 A 
HETATM   19  C7  UNL     1      33.277   7.382  45.764  1.00  0.00     0.012 A 
HETATM   20  C8  UNL     1      33.661   8.715  45.819  1.00  0.00     0.004 A 
HETATM   21  C9  UNL     1      34.536   9.173  46.760  1.00  0.00     0.036 A 
HETATM   22  C10 UNL     1      35.076   8.310  47.704  1.00  0.00     0.066 A 
HETATM   23  C11 UNL     1      34.700   6.999  47.653  1.00  0.00     0.049 A 
BRANCH  22  24
HETATM   24  O1  UNL     1      35.963   8.830  48.641  1.00  0.00    -0.361 OA
HETATM   25  H10 UNL     1      36.445   8.136  49.213  1.00  0.00     0.217 HD
ENDBRANCH  22  24
ENDBRANCH   6  18
BRANCH   5  26
HETATM   26  N4  UNL     1      35.447   4.515  45.501  1.00  0.00    -0.383 N 
HETATM   27  H5  UNL     1      35.209   4.841  44.540  1.00  0.00     0.157 HD
HETATM   28  H6  UNL     1      36.466   4.629  45.539  1.00  0.00     0.157 HD
ENDBRANCH   5  26
TORSDOF 7
ENDMDL
MODEL 8
REMARK VINA RESULT:      -6.3      2.518      6.404
REMARK  7 active torsions:
REMARK  status: ('A' for Active; 'I' for Inactive)
REMARK    1  A    between atoms: N1_2  and  C2_3 
REMARK    2  A    between atoms: N1_2  and  C12_17 
REMARK    3  A    between atoms: C4_7  and  N4_8 
REMARK    4  A    between atoms: C5_9  and  C6_10 
REMARK    5  A    between atoms: C10_14  and  O1_15 
REMARK    6  A    between atoms: C14_19  and  C15_20 
REMARK    7  A    between atoms: C15_20  and  N5_21 
ROOT
HETATM    1  C2  UNL     1      20.578   3.093  50.521  1.00  0.00     0.142 A 
HETATM    2  N2  UNL     1      19.323   2.647  50.735  1.00  0.00    -0.224 NA
HETATM    3  C3  UNL     1      18.291   3.518  50.617  1.00  0.00     0.237 A 
HETATM    4  N3  UNL     1      18.409   4.838  50.291  1.00  0.00    -0.224 NA
HETATM    5  C4  UNL     1      19.664   5.274  50.079  1.00  0.00     0.137 A 
HETATM    6  C5  UNL     1      20.757   4.437  50.185  1.00  0.00     0.066 A 
ENDROOT
BRANCH   1   7
HETATM    7  N1  UNL     1      21.601   2.122  50.665  1.00  0.00    -0.365 N 
HETATM    8  C1  UNL     1      21.903   1.064  49.686  1.00  0.00     0.151 C 
BRANCH   7   9
HETATM    9  C12 UNL     1      22.439   2.113  51.825  1.00  0.00     0.086 A 
HETATM   10  C13 UNL     1      22.529   0.869  52.642  1.00  0.00     0.031 A 
HETATM   11  C14 UNL     1      23.983   0.735  52.321  1.00  0.00     0.018 A 
HETATM   12  C19 UNL     1      23.897   1.916  51.407  1.00  0.00     0.031 A 
BRANCH  11  13
HETATM   13  C15 UNL     1      24.929   1.047  53.487  1.00  0.00     0.277 C 
BRANCH  13  14
HETATM   14  N5  UNL     1      25.736  -0.098  53.792  1.00  0.00     0.088 N 
HETATM   15  C16 UNL     1      26.501  -0.541  52.643  1.00  0.00     0.274 C 
HETATM   16  C17 UNL     1      27.566   0.459  53.023  1.00  0.00     0.060 C 
HETATM   17  C18 UNL     1      26.982   0.308  54.412  1.00  0.00     0.274 C 
ENDBRANCH  13  14
ENDBRANCH  11  13
ENDBRANCH   7   9
ENDBRANCH   1   7
BRANCH   6  18
HETATM   18  C6  UNL     1      22.141   4.848  49.967  1.00  0.00    -0.016 A 
HETATM   19  C7  UNL     1      22.948   4.639  48.865  1.00  0.00     0.012 A 
HETATM   20  C8  UNL     1      24.245   5.132  48.897  1.00  0.00     0.004 A 
HETATM   21  C9  UNL     1      24.732   5.807  49.977  1.00  0.00     0.036 A 
HETATM   22  C10 UNL     1      23.935   6.025  51.093  1.00  0.00     0.066 A 
HETATM   23  C11 UNL     1      22.659   5.542  51.065  1.00  0.00     0.049 A 
BRANCH  22  24
HETATM   24  O1  UNL     1      24.482   6.719  52.167  1.00  0.00    -0.361 OA
HETATM   25  H10 UNL     1      24.023   7.603  52.391  1.00  0.00     0.217 HD
ENDBRANCH  22  24
ENDBRANCH   6  18
BRANCH   5  26
HETATM   26  N4  UNL     1      19.932   6.627  49.733  1.00  0.00    -0.383 N 
HETATM   27  H5  UNL     1      19.155   7.124  49.246  1.00  0.00     0.157 HD
HETATM   28  H6  UNL     1      20.665   7.343  49.792  1.00  0.00     0.157 HD
ENDBRANCH   5  26
TORSDOF 7
ENDMDL
MODEL 9
REMARK VINA RESULT:      -6.1      8.153     11.420
REMARK  7 active torsions:
REMARK  status: ('A' for Active; 'I' for Inactive)
REMARK    1  A    between atoms: N1_2  and  C2_3 
REMARK    2  A    between atoms: N1_2  and  C12_17 
REMARK    3  A    between atoms: C4_7  and  N4_8 
REMARK    4  A    between atoms: C5_9  and  C6_10 
REMARK    5  A    between atoms: C10_14  and  O1_15 
REMARK    6  A    between atoms: C14_19  and  C15_20 
REMARK    7  A    between atoms: C15_20  and  N5_21 
ROOT
HETATM    1  C2  UNL     1      32.724   7.081  45.926  1.00  0.00     0.142 A 
HETATM    2  N2  UNL     1      32.648   8.240  45.239  1.00  0.00    -0.224 NA
HETATM    3  C3  UNL     1      33.374   8.375  44.103  1.00  0.00     0.237 A 
HETATM    4  N3  UNL     1      34.196   7.420  43.576  1.00  0.00    -0.224 NA
HETATM    5  C4  UNL     1      34.265   6.268  44.268  1.00  0.00     0.137 A 
HETATM    6  C5  UNL     1      33.551   6.069  45.432  1.00  0.00     0.066 A 
ENDROOT
BRANCH   1   7
HETATM    7  N1  UNL     1      31.935   7.019  47.103  1.00  0.00    -0.365 N 
HETATM    8  C1  UNL     1      32.412   7.352  48.455  1.00  0.00     0.151 C 
BRANCH   7   9
HETATM    9  C12 UNL     1      30.566   6.608  47.041  1.00  0.00     0.086 A 
HETATM   10  C13 UNL     1      29.967   5.907  48.213  1.00  0.00     0.031 A 
HETATM   11  C14 UNL     1      29.003   7.030  48.422  1.00  0.00     0.018 A 
HETATM   12  C19 UNL     1      29.655   7.805  47.321  1.00  0.00     0.031 A 
BRANCH  11  13
HETATM   13  C15 UNL     1      27.552   6.709  48.044  1.00  0.00     0.277 C 
BRANCH  13  14
HETATM   14  N5  UNL     1      26.717   6.737  49.209  1.00  0.00     0.088 N 
HETATM   15  C16 UNL     1      25.633   7.690  49.073  1.00  0.00     0.274 C 
HETATM   16  C17 UNL     1      24.833   6.613  48.380  1.00  0.00     0.060 C 
HETATM   17  C18 UNL     1      25.733   5.674  49.156  1.00  0.00     0.274 C 
ENDBRANCH  13  14
ENDBRANCH  11  13
ENDBRANCH   7   9
ENDBRANCH   1   7
BRANCH   6  18
HETATM   18  C6  UNL     1      33.583   4.845  46.227  1.00  0.00    -0.016 A 
HETATM   19  C7  UNL     1      34.477   4.468  47.210  1.00  0.00     0.012 A 
HETATM   20  C8  UNL     1      34.295   3.239  47.829  1.00  0.00     0.004 A 
HETATM   21  C9  UNL     1      33.268   2.408  47.491  1.00  0.00     0.036 A 
HETATM   22  C10 UNL     1      32.360   2.770  46.504  1.00  0.00     0.066 A 
HETATM   23  C11 UNL     1      32.536   3.979  45.894  1.00  0.00     0.049 A 
BRANCH  22  24
HETATM   24  O1  UNL     1      31.332   1.886  46.199  1.00  0.00    -0.361 OA
HETATM   25  H10 UNL     1      31.209   1.691  45.205  1.00  0.00     0.217 HD
ENDBRANCH  22  24
ENDBRANCH   6  18
BRANCH   5  26
HETATM   26  N4  UNL     1      35.083   5.189  43.832  1.00  0.00    -0.383 N 
HETATM   27  H5  UNL     1      35.764   5.423  43.078  1.00  0.00     0.157 HD
HETATM   28  H6  UNL     1      35.258   4.192  44.003  1.00  0.00     0.157 HD
ENDBRANCH   5  26
TORSDOF 7
ENDMDL
