MODEL 1
REMARK VINA RESULT:      -9.1      0.000      0.000
REMARK  7 active torsions:
REMARK  status: ('A' for Active; 'I' for Inactive)
REMARK    1  A    between atoms: C2_2  and  N5_20 
REMARK    2  A    between atoms: C3_3  and  C4_4 
REMARK    3  A    between atoms: C5_5  and  C6_6 
REMARK    4  A    between atoms: C6_6  and  N1_7 
REMARK    5  A    between atoms: N1_7  and  C7_8 
REMARK    6  A    between atoms: C10_12  and  C11_13 
REMARK       I    between atoms: N5_20  and  C16_21 
REMARK    7  A    between atoms: C16_21  and  C17_23 
ROOT
HETATM    1  C4  UNL     1      26.647   5.909  48.954  1.00  0.00    -0.001 C 
HETATM    2  C5  UNL     1      25.569   5.386  49.559  1.00  0.00    -0.007 C 
ENDROOT
BRANCH   2   3
HETATM    3  C6  UNL     1      25.243   4.017  49.964  1.00  0.00     0.165 C 
BRANCH   3   4
HETATM    4  N1  UNL     1      25.303   3.829  51.404  1.00  0.00    -0.219 N 
HETATM    5  H9  UNL     1      25.537   4.634  52.004  1.00  0.00     0.178 HD
BRANCH   4   6
HETATM    6  C7  UNL     1      25.039   2.548  51.948  1.00  0.00     0.723 A 
HETATM    7  N2  UNL     1      23.780   2.163  52.219  1.00  0.00    -0.075 NA
HETATM    8  C8  UNL     1      23.515   0.932  52.742  1.00  0.00     0.139 A 
HETATM    9  C9  UNL     1      24.601   0.114  52.975  1.00  0.00     0.053 A 
HETATM   10  C10 UNL     1      25.900   0.488  52.705  1.00  0.00     0.089 A 
HETATM   11  N4  UNL     1      26.092   1.714  52.191  1.00  0.00    -0.062 NA
BRANCH  10  12
HETATM   12  C11 UNL     1      27.069  -0.347  52.937  1.00  0.00     0.011 A 
HETATM   13  C12 UNL     1      28.235   0.286  53.312  1.00  0.00     0.017 A 
HETATM   14  C13 UNL     1      29.404  -0.445  53.553  1.00  0.00     0.020 A 
HETATM   15  C14 UNL     1      29.322  -1.815  53.398  1.00  0.00     0.116 A 
HETATM   16  N3  UNL     1      28.183  -2.403  53.036  1.00  0.00    -0.272 NA
HETATM   17  C15 UNL     1      27.066  -1.719  52.803  1.00  0.00     0.130 A 
ENDBRANCH  10  12
ENDBRANCH   4   6
ENDBRANCH   3   4
ENDBRANCH   2   3
BRANCH   1  18
HETATM   18  C3  UNL     1      27.781   5.079  48.569  1.00  0.00     0.024 C 
HETATM   19  C2  UNL     1      28.872   5.700  48.162  1.00  0.00     0.008 C 
HETATM   20  C1  UNL     1      28.756   7.179  48.164  1.00  0.00     0.068 C 
BRANCH  19  21
HETATM   21  N5  UNL     1      30.092   5.115  47.740  1.00  0.00    -0.327 N 
HETATM   22  C16 UNL     1      31.331   5.115  48.408  1.00  0.00     0.255 C 
HETATM   23  O1  UNL     1      31.425   5.691  49.522  1.00  0.00    -0.267 OA
HETATM   24  H16 UNL     1      30.136   4.611  46.834  1.00  0.00     0.169 HD
BRANCH  22  25
HETATM   25  C17 UNL     1      32.546   4.490  47.910  1.00  0.00     0.032 A 
HETATM   26  C18 UNL     1      33.767   4.991  48.314  1.00  0.00     0.017 A 
HETATM   27  C19 UNL     1      34.976   4.445  47.879  1.00  0.00     0.001 A 
HETATM   28  C20 UNL     1      34.991   3.371  47.017  1.00  0.00     0.000 A 
HETATM   29  C21 UNL     1      33.780   2.862  46.607  1.00  0.00     0.001 A 
HETATM   30  C22 UNL     1      32.612   3.416  47.049  1.00  0.00     0.017 A 
ENDBRANCH  22  25
ENDBRANCH  19  21
ENDBRANCH   1  18
TORSDOF 7
ENDMDL
MODEL 2
REMARK VINA RESULT:      -9.1      1.518      3.286
REMARK  7 active torsions:
REMARK  status: ('A' for Active; 'I' for Inactive)
REMARK    1  A    between atoms: C2_2  and  N5_20 
REMARK    2  A    between atoms: C3_3  and  C4_4 
REMARK    3  A    between atoms: C5_5  and  C6_6 
REMARK    4  A    between atoms: C6_6  and  N1_7 
REMARK    5  A    between atoms: N1_7  and  C7_8 
REMARK    6  A    between atoms: C10_12  and  C11_13 
REMARK       I    between atoms: N5_20  and  C16_21 
REMARK    7  A    between atoms: C16_21  and  C17_23 
ROOT
HETATM    1  C4  UNL     1      26.614   5.533  48.962  1.00  0.00    -0.001 C 
HETATM    2  C5  UNL     1      25.615   4.902  49.601  1.00  0.00    -0.007 C 
ENDROOT
BRANCH   2   3
HETATM    3  C6  UNL     1      25.459   3.514  50.042  1.00  0.00     0.165 C 
BRANCH   3   4
HETATM    4  N1  UNL     1      25.607   3.363  51.480  1.00  0.00    -0.219 N 
HETATM    5  H9  UNL     1      25.626   4.206  52.072  1.00  0.00     0.178 HD
BRANCH   4   6
HETATM    6  C7  UNL     1      25.720   2.064  52.032  1.00  0.00     0.723 A 
HETATM    7  N2  UNL     1      26.903   1.426  52.054  1.00  0.00    -0.075 NA
HETATM    8  C8  UNL     1      27.024   0.176  52.583  1.00  0.00     0.139 A 
HETATM    9  C9  UNL     1      25.873  -0.392  53.089  1.00  0.00     0.053 A 
HETATM   10  C10 UNL     1      24.650   0.241  53.078  1.00  0.00     0.089 A 
HETATM   11  N4  UNL     1      24.600   1.472  52.541  1.00  0.00    -0.062 NA
BRANCH  10  12
HETATM   12  C11 UNL     1      23.416  -0.326  53.601  1.00  0.00     0.011 A 
HETATM   13  C12 UNL     1      22.253  -0.058  52.911  1.00  0.00     0.017 A 
HETATM   14  C13 UNL     1      21.025  -0.566  53.350  1.00  0.00     0.020 A 
HETATM   15  C14 UNL     1      21.045  -1.339  54.495  1.00  0.00     0.116 A 
HETATM   16  N3  UNL     1      22.183  -1.583  55.143  1.00  0.00    -0.272 NA
HETATM   17  C15 UNL     1      23.356  -1.106  54.736  1.00  0.00     0.130 A 
ENDBRANCH  10  12
ENDBRANCH   4   6
ENDBRANCH   3   4
ENDBRANCH   2   3
BRANCH   1  18
HETATM   18  C3  UNL     1      27.829   4.832  48.570  1.00  0.00     0.024 C 
HETATM   19  C2  UNL     1      28.842   5.568  48.152  1.00  0.00     0.008 C 
HETATM   20  C1  UNL     1      28.563   7.025  48.151  1.00  0.00     0.068 C 
BRANCH  19  21
HETATM   21  N5  UNL     1      30.116   5.119  47.721  1.00  0.00    -0.327 N 
HETATM   22  C16 UNL     1      31.321   5.107  48.448  1.00  0.00     0.255 C 
HETATM   23  O1  UNL     1      31.328   5.535  49.630  1.00  0.00    -0.267 OA
HETATM   24  H16 UNL     1      30.232   4.743  46.762  1.00  0.00     0.169 HD
BRANCH  22  25
HETATM   25  C17 UNL     1      32.596   4.628  47.936  1.00  0.00     0.032 A 
HETATM   26  C18 UNL     1      32.601   3.615  47.001  1.00  0.00     0.017 A 
HETATM   27  C19 UNL     1      33.783   3.103  46.463  1.00  0.00     0.001 A 
HETATM   28  C20 UNL     1      35.005   3.600  46.856  1.00  0.00     0.000 A 
HETATM   29  C21 UNL     1      35.015   4.613  47.788  1.00  0.00     0.001 A 
HETATM   30  C22 UNL     1      33.842   5.094  48.298  1.00  0.00     0.017 A 
ENDBRANCH  22  25
ENDBRANCH  19  21
ENDBRANCH   1  18
TORSDOF 7
ENDMDL
MODEL 3
REMARK VINA RESULT:      -9.0      4.995      6.460
REMARK  7 active torsions:
REMARK  status: ('A' for Active; 'I' for Inactive)
REMARK    1  A    between atoms: C2_2  and  N5_20 
REMARK    2  A    between atoms: C3_3  and  C4_4 
REMARK    3  A    between atoms: C5_5  and  C6_6 
REMARK    4  A    between atoms: C6_6  and  N1_7 
REMARK    5  A    between atoms: N1_7  and  C7_8 
REMARK    6  A    between atoms: C10_12  and  C11_13 
REMARK       I    between atoms: N5_20  and  C16_21 
REMARK    7  A    between atoms: C16_21  and  C17_23 
ROOT
HETATM    1  C4  UNL     1      23.148   3.731  48.773  1.00  0.00    -0.001 C 
HETATM    2  C5  UNL     1      22.097   3.196  48.130  1.00  0.00    -0.007 C 
ENDROOT
BRANCH   2   3
HETATM    3  C6  UNL     1      21.663   1.809  47.953  1.00  0.00     0.165 C 
BRANCH   3   4
HETATM    4  N1  UNL     1      20.474   1.491  48.727  1.00  0.00    -0.219 N 
HETATM    5  H9  UNL     1      19.695   0.996  48.266  1.00  0.00     0.178 HD
BRANCH   4   6
HETATM    6  C7  UNL     1      20.412   1.867  50.090  1.00  0.00     0.723 A 
HETATM    7  N2  UNL     1      19.794   3.000  50.464  1.00  0.00    -0.075 NA
HETATM    8  C8  UNL     1      19.729   3.372  51.774  1.00  0.00     0.139 A 
HETATM    9  C9  UNL     1      20.329   2.526  52.684  1.00  0.00     0.053 A 
HETATM   10  C10 UNL     1      20.968   1.360  52.325  1.00  0.00     0.089 A 
HETATM   11  N4  UNL     1      20.996   1.053  51.018  1.00  0.00    -0.062 NA
BRANCH  10  12
HETATM   12  C11 UNL     1      21.611   0.445  53.257  1.00  0.00     0.011 A 
HETATM   13  C12 UNL     1      22.970   0.255  53.121  1.00  0.00     0.017 A 
HETATM   14  C13 UNL     1      23.663  -0.609  53.977  1.00  0.00     0.020 A 
HETATM   15  C14 UNL     1      22.919  -1.250  54.949  1.00  0.00     0.116 A 
HETATM   16  N3  UNL     1      21.606  -1.049  55.058  1.00  0.00    -0.272 NA
HETATM   17  C15 UNL     1      20.937  -0.230  54.252  1.00  0.00     0.130 A 
ENDBRANCH  10  12
ENDBRANCH   4   6
ENDBRANCH   3   4
ENDBRANCH   2   3
BRANCH   1  18
HETATM   18  C3  UNL     1      24.120   2.898  49.467  1.00  0.00     0.024 C 
HETATM   19  C2  UNL     1      24.266   3.095  50.765  1.00  0.00     0.008 C 
HETATM   20  C1  UNL     1      23.392   4.163  51.310  1.00  0.00     0.068 C 
BRANCH  19  21
HETATM   21  N5  UNL     1      25.141   2.415  51.648  1.00  0.00    -0.327 N 
HETATM   22  C16 UNL     1      26.548   2.436  51.660  1.00  0.00     0.255 C 
HETATM   23  O1  UNL     1      27.158   3.126  50.804  1.00  0.00    -0.267 OA
HETATM   24  H16 UNL     1      24.751   1.814  52.398  1.00  0.00     0.169 HD
BRANCH  22  25
HETATM   25  C17 UNL     1      27.384   1.708  52.603  1.00  0.00     0.032 A 
HETATM   26  C18 UNL     1      27.204   0.347  52.739  1.00  0.00     0.017 A 
HETATM   27  C19 UNL     1      27.966  -0.420  53.622  1.00  0.00     0.001 A 
HETATM   28  C20 UNL     1      28.938   0.166  54.401  1.00  0.00     0.000 A 
HETATM   29  C21 UNL     1      29.128   1.523  54.274  1.00  0.00     0.001 A 
HETATM   30  C22 UNL     1      28.367   2.249  53.402  1.00  0.00     0.017 A 
ENDBRANCH  22  25
ENDBRANCH  19  21
ENDBRANCH   1  18
TORSDOF 7
ENDMDL
MODEL 4
REMARK VINA RESULT:      -8.9      4.592      6.140
REMARK  7 active torsions:
REMARK  status: ('A' for Active; 'I' for Inactive)
REMARK    1  A    between atoms: C2_2  and  N5_20 
REMARK    2  A    between atoms: C3_3  and  C4_4 
REMARK    3  A    between atoms: C5_5  and  C6_6 
REMARK    4  A    between atoms: C6_6  and  N1_7 
REMARK    5  A    between atoms: N1_7  and  C7_8 
REMARK    6  A    between atoms: C10_12  and  C11_13 
REMARK       I    between atoms: N5_20  and  C16_21 
REMARK    7  A    between atoms: C16_21  and  C17_23 
ROOT
HETATM    1  C4  UNL     1      23.608   4.426  49.770  1.00  0.00    -0.001 C 
HETATM    2  C5  UNL     1      22.617   5.099  50.379  1.00  0.00    -0.007 C 
ENDROOT
BRANCH   2   3
HETATM    3  C6  UNL     1      21.978   4.928  51.684  1.00  0.00     0.165 C 
BRANCH   3   4
HETATM    4  N1  UNL     1      20.651   4.343  51.586  1.00  0.00    -0.219 N 
HETATM    5  H9  UNL     1      19.829   4.964  51.582  1.00  0.00     0.178 HD
BRANCH   4   6
HETATM    6  C7  UNL     1      20.519   2.935  51.498  1.00  0.00     0.723 A 
HETATM    7  N2  UNL     1      19.756   2.375  50.545  1.00  0.00    -0.075 NA
HETATM    8  C8  UNL     1      19.622   1.021  50.450  1.00  0.00     0.139 A 
HETATM    9  C9  UNL     1      20.307   0.269  51.381  1.00  0.00     0.053 A 
HETATM   10  C10 UNL     1      21.095   0.820  52.367  1.00  0.00     0.089 A 
HETATM   11  N4  UNL     1      21.184   2.160  52.404  1.00  0.00    -0.062 NA
BRANCH  10  12
HETATM   12  C11 UNL     1      21.832   0.059  53.365  1.00  0.00     0.011 A 
HETATM   13  C12 UNL     1      23.208   0.073  53.284  1.00  0.00     0.017 A 
HETATM   14  C13 UNL     1      23.989  -0.634  54.205  1.00  0.00     0.020 A 
HETATM   15  C14 UNL     1      23.312  -1.335  55.184  1.00  0.00     0.116 A 
HETATM   16  N3  UNL     1      21.981  -1.332  55.241  1.00  0.00    -0.272 NA
HETATM   17  C15 UNL     1      21.228  -0.664  54.372  1.00  0.00     0.130 A 
ENDBRANCH  10  12
ENDBRANCH   4   6
ENDBRANCH   3   4
ENDBRANCH   2   3
BRANCH   1  18
HETATM   18  C3  UNL     1      24.260   3.291  50.409  1.00  0.00     0.024 C 
HETATM   19  C2  UNL     1      25.577   3.231  50.334  1.00  0.00     0.008 C 
HETATM   20  C1  UNL     1      26.186   4.361  49.589  1.00  0.00     0.068 C 
BRANCH  19  21
HETATM   21  N5  UNL     1      26.429   2.234  50.872  1.00  0.00    -0.327 N 
HETATM   22  C16 UNL     1      26.573   1.853  52.219  1.00  0.00     0.255 C 
HETATM   23  O1  UNL     1      25.886   2.434  53.097  1.00  0.00    -0.267 OA
HETATM   24  H16 UNL     1      27.044   1.687  50.241  1.00  0.00     0.169 HD
BRANCH  22  25
HETATM   25  C17 UNL     1      27.473   0.815  52.698  1.00  0.00     0.032 A 
HETATM   26  C18 UNL     1      28.651   1.186  53.313  1.00  0.00     0.017 A 
HETATM   27  C19 UNL     1      29.564   0.248  53.798  1.00  0.00     0.001 A 
HETATM   28  C20 UNL     1      29.317  -1.101  53.677  1.00  0.00     0.000 A 
HETATM   29  C21 UNL     1      28.145  -1.484  53.067  1.00  0.00     0.001 A 
HETATM   30  C22 UNL     1      27.268  -0.544  52.600  1.00  0.00     0.017 A 
ENDBRANCH  22  25
ENDBRANCH  19  21
ENDBRANCH   1  18
TORSDOF 7
ENDMDL
MODEL 5
REMARK VINA RESULT:      -8.8      3.804      5.757
REMARK  7 active torsions:
REMARK  status: ('A' for Active; 'I' for Inactive)
REMARK    1  A    between atoms: C2_2  and  N5_20 
REMARK    2  A    between atoms: C3_3  and  C4_4 
REMARK    3  A    between atoms: C5_5  and  C6_6 
REMARK    4  A    between atoms: C6_6  and  N1_7 
REMARK    5  A    between atoms: N1_7  and  C7_8 
REMARK    6  A    between atoms: C10_12  and  C11_13 
REMARK       I    between atoms: N5_20  and  C16_21 
REMARK    7  A    between atoms: C16_21  and  C17_23 
ROOT
HETATM    1  C4  UNL     1      20.449   1.323  50.529  1.00  0.00    -0.001 C 
HETATM    2  C5  UNL     1      20.357   0.572  51.639  1.00  0.00    -0.007 C 
ENDROOT
BRANCH   2   3
HETATM    3  C6  UNL     1      21.052   0.641  52.926  1.00  0.00     0.165 C 
BRANCH   3   4
HETATM    4  N1  UNL     1      22.246  -0.188  52.964  1.00  0.00    -0.219 N 
HETATM    5  H9  UNL     1      22.145  -1.212  52.907  1.00  0.00     0.178 HD
BRANCH   4   6
HETATM    6  C7  UNL     1      23.515   0.429  53.076  1.00  0.00     0.723 A 
HETATM    7  N2  UNL     1      23.623   1.765  53.183  1.00  0.00    -0.075 NA
HETATM    8  C8  UNL     1      24.840   2.370  53.292  1.00  0.00     0.139 A 
HETATM    9  C9  UNL     1      25.942   1.540  53.287  1.00  0.00     0.053 A 
HETATM   10  C10 UNL     1      25.857   0.170  53.178  1.00  0.00     0.089 A 
HETATM   11  N4  UNL     1      24.628  -0.362  53.074  1.00  0.00    -0.062 NA
BRANCH  10  12
HETATM   12  C11 UNL     1      26.996  -0.736  53.169  1.00  0.00     0.011 A 
HETATM   13  C12 UNL     1      28.202  -0.241  53.617  1.00  0.00     0.017 A 
HETATM   14  C13 UNL     1      29.346  -1.047  53.639  1.00  0.00     0.020 A 
HETATM   15  C14 UNL     1      29.198  -2.346  53.193  1.00  0.00     0.116 A 
HETATM   16  N3  UNL     1      28.021  -2.800  52.765  1.00  0.00    -0.272 NA
HETATM   17  C15 UNL     1      26.928  -2.044  52.739  1.00  0.00     0.130 A 
ENDBRANCH  10  12
ENDBRANCH   4   6
ENDBRANCH   3   4
ENDBRANCH   2   3
BRANCH   1  18
HETATM   18  C3  UNL     1      21.369   2.448  50.447  1.00  0.00     0.024 C 
HETATM   19  C2  UNL     1      22.127   2.530  49.370  1.00  0.00     0.008 C 
HETATM   20  C1  UNL     1      21.908   1.429  48.398  1.00  0.00     0.068 C 
BRANCH  19  21
HETATM   21  N5  UNL     1      23.090   3.525  49.065  1.00  0.00    -0.327 N 
HETATM   22  C16 UNL     1      24.456   3.540  49.403  1.00  0.00     0.255 C 
HETATM   23  O1  UNL     1      24.937   2.579  50.056  1.00  0.00    -0.267 OA
HETATM   24  H16 UNL     1      22.809   4.366  48.528  1.00  0.00     0.169 HD
BRANCH  22  25
HETATM   25  C17 UNL     1      25.388   4.602  49.053  1.00  0.00     0.032 A 
HETATM   26  C18 UNL     1      26.741   4.334  49.074  1.00  0.00     0.017 A 
HETATM   27  C19 UNL     1      27.696   5.300  48.751  1.00  0.00     0.001 A 
HETATM   28  C20 UNL     1      27.314   6.573  48.396  1.00  0.00     0.000 A 
HETATM   29  C21 UNL     1      25.967   6.853  48.371  1.00  0.00     0.001 A 
HETATM   30  C22 UNL     1      25.053   5.888  48.692  1.00  0.00     0.017 A 
ENDBRANCH  22  25
ENDBRANCH  19  21
ENDBRANCH   1  18
TORSDOF 7
ENDMDL
MODEL 6
REMARK VINA RESULT:      -8.8      3.449      5.335
REMARK  7 active torsions:
REMARK  status: ('A' for Active; 'I' for Inactive)
REMARK    1  A    between atoms: C2_2  and  N5_20 
REMARK    2  A    between atoms: C3_3  and  C4_4 
REMARK    3  A    between atoms: C5_5  and  C6_6 
REMARK    4  A    between atoms: C6_6  and  N1_7 
REMARK    5  A    between atoms: N1_7  and  C7_8 
REMARK    6  A    between atoms: C10_12  and  C11_13 
REMARK       I    between atoms: N5_20  and  C16_21 
REMARK    7  A    between atoms: C16_21  and  C17_23 
ROOT
HETATM    1  C4  UNL     1      21.345   4.008  52.324  1.00  0.00    -0.001 C 
HETATM    2  C5  UNL     1      20.584   2.984  51.903  1.00  0.00    -0.007 C 
ENDROOT
BRANCH   2   3
HETATM    3  C6  UNL     1      20.458   2.330  50.600  1.00  0.00     0.165 C 
BRANCH   3   4
HETATM    4  N1  UNL     1      21.087   1.020  50.566  1.00  0.00    -0.219 N 
HETATM    5  H9  UNL     1      21.199   0.542  49.660  1.00  0.00     0.178 HD
BRANCH   4   6
HETATM    6  C7  UNL     1      21.533   0.434  51.776  1.00  0.00     0.723 A 
HETATM    7  N2  UNL     1      20.658  -0.108  52.640  1.00  0.00    -0.075 NA
HETATM    8  C8  UNL     1      21.076  -0.675  53.808  1.00  0.00     0.139 A 
HETATM    9  C9  UNL     1      22.434  -0.659  54.048  1.00  0.00     0.053 A 
HETATM   10  C10 UNL     1      23.350  -0.110  53.178  1.00  0.00     0.089 A 
HETATM   11  N4  UNL     1      22.871   0.433  52.046  1.00  0.00    -0.062 NA
BRANCH  10  12
HETATM   12  C11 UNL     1      24.788  -0.075  53.398  1.00  0.00     0.011 A 
HETATM   13  C12 UNL     1      25.572   0.428  52.382  1.00  0.00     0.017 A 
HETATM   14  C13 UNL     1      26.964   0.495  52.514  1.00  0.00     0.020 A 
HETATM   15  C14 UNL     1      27.497   0.036  53.704  1.00  0.00     0.116 A 
HETATM   16  N3  UNL     1      26.716  -0.445  54.670  1.00  0.00    -0.272 NA
HETATM   17  C15 UNL     1      25.393  -0.514  54.556  1.00  0.00     0.130 A 
ENDBRANCH  10  12
ENDBRANCH   4   6
ENDBRANCH   3   4
ENDBRANCH   2   3
BRANCH   1  18
HETATM   18  C3  UNL     1      22.263   4.693  51.423  1.00  0.00     0.024 C 
HETATM   19  C2  UNL     1      23.551   4.611  51.698  1.00  0.00     0.008 C 
HETATM   20  C1  UNL     1      23.855   3.814  52.913  1.00  0.00     0.068 C 
BRANCH  19  21
HETATM   21  N5  UNL     1      24.627   5.187  50.977  1.00  0.00    -0.327 N 
HETATM   22  C16 UNL     1      25.223   4.719  49.791  1.00  0.00     0.255 C 
HETATM   23  O1  UNL     1      24.790   3.665  49.261  1.00  0.00    -0.267 OA
HETATM   24  H16 UNL     1      25.067   6.061  51.320  1.00  0.00     0.169 HD
BRANCH  22  25
HETATM   25  C17 UNL     1      26.330   5.368  49.105  1.00  0.00     0.032 A 
HETATM   26  C18 UNL     1      27.501   4.664  48.915  1.00  0.00     0.017 A 
HETATM   27  C19 UNL     1      28.606   5.218  48.266  1.00  0.00     0.001 A 
HETATM   28  C20 UNL     1      28.564   6.507  47.786  1.00  0.00     0.000 A 
HETATM   29  C21 UNL     1      27.402   7.221  47.969  1.00  0.00     0.001 A 
HETATM   30  C22 UNL     1      26.335   6.653  48.608  1.00  0.00     0.017 A 
ENDBRANCH  22  25
ENDBRANCH  19  21
ENDBRANCH   1  18
TORSDOF 7
ENDMDL
MODEL 7
REMARK VINA RESULT:      -8.6      3.056      4.644
REMARK  7 active torsions:
REMARK  status: ('A' for Active; 'I' for Inactive)
REMARK    1  A    between atoms: C2_2  and  N5_20 
REMARK    2  A    between atoms: C3_3  and  C4_4 
REMARK    3  A    between atoms: C5_5  and  C6_6 
REMARK    4  A    between atoms: C6_6  and  N1_7 
REMARK    5  A    between atoms: N1_7  and  C7_8 
REMARK    6  A    between atoms: C10_12  and  C11_13 
REMARK       I    between atoms: N5_20  and  C16_21 
REMARK    7  A    between atoms: C16_21  and  C17_23 
ROOT
HETATM    1  C4  UNL     1      22.175   5.325  51.660  1.00  0.00    -0.001 C 
HETATM    2  C5  UNL     1      21.293   4.329  51.847  1.00  0.00    -0.007 C 
ENDROOT
BRANCH   2   3
HETATM    3  C6  UNL     1      21.387   2.885  51.625  1.00  0.00     0.165 C 
BRANCH   3   4
HETATM    4  N1  UNL     1      20.694   2.115  52.645  1.00  0.00    -0.219 N 
HETATM    5  H9  UNL     1      19.725   2.366  52.889  1.00  0.00     0.178 HD
BRANCH   4   6
HETATM    6  C7  UNL     1      21.365   1.040  53.277  1.00  0.00     0.723 A 
HETATM    7  N2  UNL     1      20.683   0.130  53.993  1.00  0.00    -0.075 NA
HETATM    8  C8  UNL     1      21.319  -0.909  54.605  1.00  0.00     0.139 A 
HETATM    9  C9  UNL     1      22.688  -0.971  54.450  1.00  0.00     0.053 A 
HETATM   10  C10 UNL     1      23.408  -0.050  53.721  1.00  0.00     0.089 A 
HETATM   11  N4  UNL     1      22.721   0.949  53.144  1.00  0.00    -0.062 NA
BRANCH  10  12
HETATM   12  C11 UNL     1      24.852  -0.083  53.536  1.00  0.00     0.011 A 
HETATM   13  C12 UNL     1      25.349   0.409  52.348  1.00  0.00     0.017 A 
HETATM   14  C13 UNL     1      26.725   0.412  52.092  1.00  0.00     0.020 A 
HETATM   15  C14 UNL     1      27.542  -0.096  53.084  1.00  0.00     0.116 A 
HETATM   16  N3  UNL     1      27.036  -0.565  54.223  1.00  0.00    -0.272 NA
HETATM   17  C15 UNL     1      25.731  -0.574  54.478  1.00  0.00     0.130 A 
ENDBRANCH  10  12
ENDBRANCH   4   6
ENDBRANCH   3   4
ENDBRANCH   2   3
BRANCH   1  18
HETATM   18  C3  UNL     1      23.513   5.068  51.145  1.00  0.00     0.024 C 
HETATM   19  C2  UNL     1      24.241   6.117  50.809  1.00  0.00     0.008 C 
HETATM   20  C1  UNL     1      23.553   7.415  51.017  1.00  0.00     0.068 C 
BRANCH  19  21
HETATM   21  N5  UNL     1      25.560   6.122  50.289  1.00  0.00    -0.327 N 
HETATM   22  C16 UNL     1      25.963   6.306  48.953  1.00  0.00     0.255 C 
HETATM   23  O1  UNL     1      25.090   6.494  48.070  1.00  0.00    -0.267 OA
HETATM   24  H16 UNL     1      26.365   5.976  50.926  1.00  0.00     0.169 HD
BRANCH  22  25
HETATM   25  C17 UNL     1      27.344   6.298  48.493  1.00  0.00     0.032 A 
HETATM   26  C18 UNL     1      27.875   7.454  47.961  1.00  0.00     0.017 A 
HETATM   27  C19 UNL     1      29.191   7.525  47.498  1.00  0.00     0.001 A 
HETATM   28  C20 UNL     1      30.015   6.424  47.557  1.00  0.00     0.000 A 
HETATM   29  C21 UNL     1      29.497   5.264  48.085  1.00  0.00     0.001 A 
HETATM   30  C22 UNL     1      28.205   5.223  48.531  1.00  0.00     0.017 A 
ENDBRANCH  22  25
ENDBRANCH  19  21
ENDBRANCH   1  18
TORSDOF 7
ENDMDL
MODEL 8
REMARK VINA RESULT:      -8.5      4.180      7.910
REMARK  7 active torsions:
REMARK  status: ('A' for Active; 'I' for Inactive)
REMARK    1  A    between atoms: C2_2  and  N5_20 
REMARK    2  A    between atoms: C3_3  and  C4_4 
REMARK    3  A    between atoms: C5_5  and  C6_6 
REMARK    4  A    between atoms: C6_6  and  N1_7 
REMARK    5  A    between atoms: N1_7  and  C7_8 
REMARK    6  A    between atoms: C10_12  and  C11_13 
REMARK       I    between atoms: N5_20  and  C16_21 
REMARK    7  A    between atoms: C16_21  and  C17_23 
ROOT
HETATM    1  C4  UNL     1      23.714  -0.536  53.567  1.00  0.00    -0.001 C 
HETATM    2  C5  UNL     1      22.732  -0.898  54.408  1.00  0.00    -0.007 C 
ENDROOT
BRANCH   2   3
HETATM    3  C6  UNL     1      21.439  -0.288  54.722  1.00  0.00     0.165 C 
BRANCH   3   4
HETATM    4  N1  UNL     1      20.316  -1.143  54.375  1.00  0.00    -0.219 N 
HETATM    5  H9  UNL     1      20.166  -2.013  54.908  1.00  0.00     0.178 HD
BRANCH   4   6
HETATM    6  C7  UNL     1      19.457  -0.763  53.316  1.00  0.00     0.723 A 
HETATM    7  N2  UNL     1      18.152  -1.082  53.341  1.00  0.00    -0.075 NA
HETATM    8  C8  UNL     1      17.315  -0.720  52.327  1.00  0.00     0.139 A 
HETATM    9  C9  UNL     1      17.880  -0.016  51.284  1.00  0.00     0.053 A 
HETATM   10  C10 UNL     1      19.215   0.322  51.236  1.00  0.00     0.089 A 
HETATM   11  N4  UNL     1      19.984  -0.065  52.267  1.00  0.00    -0.062 NA
BRANCH  10  12
HETATM   12  C11 UNL     1      19.846   1.064  50.154  1.00  0.00     0.011 A 
HETATM   13  C12 UNL     1      21.196   0.871  49.957  1.00  0.00     0.017 A 
HETATM   14  C13 UNL     1      21.877   1.546  48.938  1.00  0.00     0.020 A 
HETATM   15  C14 UNL     1      21.129   2.403  48.153  1.00  0.00     0.116 A 
HETATM   16  N3  UNL     1      19.824   2.571  48.364  1.00  0.00    -0.272 NA
HETATM   17  C15 UNL     1      19.166   1.935  49.329  1.00  0.00     0.130 A 
ENDBRANCH  10  12
ENDBRANCH   4   6
ENDBRANCH   3   4
ENDBRANCH   2   3
BRANCH   1  18
HETATM   18  C3  UNL     1      23.611   0.666  52.751  1.00  0.00     0.024 C 
HETATM   19  C2  UNL     1      24.711   1.085  52.152  1.00  0.00     0.008 C 
HETATM   20  C1  UNL     1      25.899   0.238  52.422  1.00  0.00     0.068 C 
BRANCH  19  21
HETATM   21  N5  UNL     1      24.860   2.219  51.315  1.00  0.00    -0.327 N 
HETATM   22  C16 UNL     1      26.051   2.869  50.941  1.00  0.00     0.255 C 
HETATM   23  O1  UNL     1      27.148   2.433  51.372  1.00  0.00    -0.267 OA
HETATM   24  H16 UNL     1      24.021   2.666  50.900  1.00  0.00     0.169 HD
BRANCH  22  25
HETATM   25  C17 UNL     1      26.126   4.034  50.073  1.00  0.00     0.032 A 
HETATM   26  C18 UNL     1      25.048   4.894  50.018  1.00  0.00     0.017 A 
HETATM   27  C19 UNL     1      25.045   6.033  49.210  1.00  0.00     0.001 A 
HETATM   28  C20 UNL     1      26.134   6.340  48.426  1.00  0.00     0.000 A 
HETATM   29  C21 UNL     1      27.216   5.490  48.472  1.00  0.00     0.001 A 
HETATM   30  C22 UNL     1      27.192   4.383  49.273  1.00  0.00     0.017 A 
ENDBRANCH  22  25
ENDBRANCH  19  21
ENDBRANCH   1  18
TORSDOF 7
ENDMDL
MODEL 9
REMARK VINA RESULT:      -8.4      4.212      8.037
REMARK  7 active torsions:
REMARK  status: ('A' for Active; 'I' for Inactive)
REMARK    1  A    between atoms: C2_2  and  N5_20 
REMARK    2  A    between atoms: C3_3  and  C4_4 
REMARK    3  A    between atoms: C5_5  and  C6_6 
REMARK    4  A    between atoms: C6_6  and  N1_7 
REMARK    5  A    between atoms: N1_7  and  C7_8 
REMARK    6  A    between atoms: C10_12  and  C11_13 
REMARK       I    between atoms: N5_20  and  C16_21 
REMARK    7  A    between atoms: C16_21  and  C17_23 
ROOT
HETATM    1  C4  UNL     1      23.897  -0.710  53.914  1.00  0.00    -0.001 C 
HETATM    2  C5  UNL     1      22.761  -0.965  54.584  1.00  0.00    -0.007 C 
ENDROOT
BRANCH   2   3
HETATM    3  C6  UNL     1      21.558  -0.162  54.810  1.00  0.00     0.165 C 
BRANCH   3   4
HETATM    4  N1  UNL     1      20.378  -0.729  54.176  1.00  0.00    -0.219 N 
HETATM    5  H9  UNL     1      20.026  -1.641  54.501  1.00  0.00     0.178 HD
BRANCH   4   6
HETATM    6  C7  UNL     1      19.742  -0.015  53.132  1.00  0.00     0.723 A 
HETATM    7  N2  UNL     1      18.690  -0.540  52.482  1.00  0.00    -0.075 NA
HETATM    8  C8  UNL     1      18.069   0.138  51.475  1.00  0.00     0.139 A 
HETATM    9  C9  UNL     1      18.579   1.382  51.166  1.00  0.00     0.053 A 
HETATM   10  C10 UNL     1      19.656   1.941  51.818  1.00  0.00     0.089 A 
HETATM   11  N4  UNL     1      20.221   1.219  52.799  1.00  0.00    -0.062 NA
BRANCH  10  12
HETATM   12  C11 UNL     1      20.221   3.249  51.519  1.00  0.00     0.011 A 
HETATM   13  C12 UNL     1      21.311   3.653  52.259  1.00  0.00     0.017 A 
HETATM   14  C13 UNL     1      21.912   4.896  52.034  1.00  0.00     0.020 A 
HETATM   15  C14 UNL     1      21.358   5.682  51.042  1.00  0.00     0.116 A 
HETATM   16  N3  UNL     1      20.304   5.269  50.340  1.00  0.00    -0.272 NA
HETATM   17  C15 UNL     1      19.725   4.090  50.545  1.00  0.00     0.130 A 
ENDBRANCH  10  12
ENDBRANCH   4   6
ENDBRANCH   3   4
ENDBRANCH   2   3
BRANCH   1  18
HETATM   18  C3  UNL     1      24.112   0.563  53.239  1.00  0.00     0.024 C 
HETATM   19  C2  UNL     1      25.237   0.704  52.562  1.00  0.00     0.008 C 
HETATM   20  C1  UNL     1      26.116  -0.490  52.607  1.00  0.00     0.068 C 
BRANCH  19  21
HETATM   21  N5  UNL     1      25.667   1.839  51.830  1.00  0.00    -0.327 N 
HETATM   22  C16 UNL     1      24.971   2.536  50.824  1.00  0.00     0.255 C 
HETATM   23  O1  UNL     1      23.822   2.149  50.494  1.00  0.00    -0.267 OA
HETATM   24  H16 UNL     1      26.602   2.248  52.016  1.00  0.00     0.169 HD
BRANCH  22  25
HETATM   25  C17 UNL     1      25.481   3.698  50.113  1.00  0.00     0.032 A 
HETATM   26  C18 UNL     1      26.729   3.628  49.529  1.00  0.00     0.017 A 
HETATM   27  C19 UNL     1      27.285   4.701  48.831  1.00  0.00     0.001 A 
HETATM   28  C20 UNL     1      26.596   5.886  48.699  1.00  0.00     0.000 A 
HETATM   29  C21 UNL     1      25.349   5.968  49.276  1.00  0.00     0.001 A 
HETATM   30  C22 UNL     1      24.829   4.902  49.955  1.00  0.00     0.017 A 
ENDBRANCH  22  25
ENDBRANCH  19  21
ENDBRANCH   1  18
TORSDOF 7
ENDMDL
