MODEL 1
REMARK VINA RESULT:      -8.2      0.000      0.000
REMARK  2 active torsions:
REMARK  status: ('A' for Active; 'I' for Inactive)
REMARK    1  A    between atoms: C2_2  and  C3_3 
REMARK    2  A    between atoms: C5_5  and  C6_6 
ROOT
HETATM    1  C6  UNL     1      21.674   1.179  51.192  1.00  0.00     0.052 C 
HETATM    2  C7  UNL     1      21.513   1.119  49.744  1.00  0.00     0.200 C 
HETATM    3  N1  UNL     1      21.931   2.360  49.125  1.00  0.00    -0.308 N 
HETATM    4  N2  UNL     1      23.061   3.120  48.891  1.00  0.00    -0.191 NA
HETATM    5  C8  UNL     1      23.177   4.328  49.266  1.00  0.00     0.150 C 
HETATM    6  C9  UNL     1      24.440   5.057  48.961  1.00  0.00    -0.011 A 
HETATM    7  C10 UNL     1      24.255   6.253  48.320  1.00  0.00     0.013 A 
HETATM    8  C11 UNL     1      25.331   7.051  47.979  1.00  0.00     0.001 A 
HETATM    9  C12 UNL     1      26.611   6.632  48.291  1.00  0.00     0.001 A 
HETATM   10  C13 UNL     1      26.783   5.426  48.935  1.00  0.00     0.008 A 
HETATM   11  C14 UNL     1      25.744   4.606  49.290  1.00  0.00    -0.046 A 
HETATM   12  C15 UNL     1      25.629   3.308  49.945  1.00  0.00     0.040 C 
HETATM   13  C16 UNL     1      26.756   2.972  50.909  1.00  0.00     0.011 C 
HETATM   14  C17 UNL     1      26.460   1.578  51.507  1.00  0.00     0.062 C 
HETATM   15  C18 UNL     1      25.078   1.646  52.122  1.00  0.00     0.069 A 
HETATM   16  C19 UNL     1      24.061   1.270  51.231  1.00  0.00     0.142 A 
HETATM   17  N3  UNL     1      22.898   1.422  51.850  1.00  0.00    -0.250 N 
HETATM   18  N4  UNL     1      23.147   1.862  53.071  1.00  0.00     0.009 NA
HETATM   19  N5  UNL     1      24.449   2.002  53.251  1.00  0.00    -0.163 NA
HETATM   20  H9  UNL     1      21.169   2.947  48.669  1.00  0.00     0.182 HD
ENDROOT
BRANCH   1  21
HETATM   21  C5  UNL     1      20.596   1.005  51.942  1.00  0.00     0.043 C 
HETATM   22  C3  UNL     1      19.874  -0.011  52.661  1.00  0.00    -0.019 C 
HETATM   23  C4  UNL     1      18.536  -0.529  52.426  1.00  0.00     0.057 C 
BRANCH  22  24
HETATM   24  C2  UNL     1      20.507  -0.552  53.668  1.00  0.00    -0.148 C 
HETATM   25  C1  UNL     1      21.347  -1.032  54.550  1.00  0.00     0.097 C 
ENDBRANCH  22  24
ENDBRANCH   1  21
TORSDOF 2
ENDMDL
MODEL 2
REMARK VINA RESULT:      -8.2      1.801      6.927
REMARK  2 active torsions:
REMARK  status: ('A' for Active; 'I' for Inactive)
REMARK    1  A    between atoms: C2_2  and  C3_3 
REMARK    2  A    between atoms: C5_5  and  C6_6 
ROOT
HETATM    1  C6  UNL     1      24.748   4.589  50.499  1.00  0.00     0.052 C 
HETATM    2  C7  UNL     1      23.762   5.220  51.369  1.00  0.00     0.200 C 
HETATM    3  N1  UNL     1      22.697   4.295  51.699  1.00  0.00    -0.308 N 
HETATM    4  N2  UNL     1      22.461   3.131  52.404  1.00  0.00    -0.191 NA
HETATM    5  C8  UNL     1      21.970   2.084  51.876  1.00  0.00     0.150 C 
HETATM    6  C9  UNL     1      21.756   0.882  52.729  1.00  0.00    -0.011 A 
HETATM    7  C10 UNL     1      20.485   0.375  52.674  1.00  0.00     0.013 A 
HETATM    8  C11 UNL     1      20.134  -0.746  53.402  1.00  0.00     0.001 A 
HETATM    9  C12 UNL     1      21.083  -1.362  54.198  1.00  0.00     0.001 A 
HETATM   10  C13 UNL     1      22.357  -0.842  54.245  1.00  0.00     0.008 A 
HETATM   11  C14 UNL     1      22.746   0.268  53.539  1.00  0.00    -0.046 A 
HETATM   12  C15 UNL     1      23.982   1.029  53.410  1.00  0.00     0.040 C 
HETATM   13  C16 UNL     1      25.256   0.232  53.642  1.00  0.00     0.011 C 
HETATM   14  C17 UNL     1      26.451   1.194  53.455  1.00  0.00     0.062 C 
HETATM   15  C18 UNL     1      26.312   1.808  52.078  1.00  0.00     0.069 A 
HETATM   16  C19 UNL     1      25.588   3.012  52.084  1.00  0.00     0.142 A 
HETATM   17  N3  UNL     1      25.477   3.428  50.830  1.00  0.00    -0.250 N 
HETATM   18  N4  UNL     1      26.098   2.551  50.059  1.00  0.00     0.009 NA
HETATM   19  N5  UNL     1      26.604   1.574  50.791  1.00  0.00    -0.163 NA
HETATM   20  H9  UNL     1      21.733   4.516  51.305  1.00  0.00     0.182 HD
ENDROOT
BRANCH   1  21
HETATM   21  C5  UNL     1      24.966   5.137  49.313  1.00  0.00     0.043 C 
HETATM   22  C3  UNL     1      25.831   6.072  48.645  1.00  0.00    -0.019 C 
HETATM   23  C4  UNL     1      25.505   7.349  48.030  1.00  0.00     0.057 C 
BRANCH  22  24
HETATM   24  C2  UNL     1      27.092   5.735  48.580  1.00  0.00    -0.148 C 
HETATM   25  C1  UNL     1      28.268   5.163  48.531  1.00  0.00     0.097 C 
ENDBRANCH  22  24
ENDBRANCH   1  21
TORSDOF 2
ENDMDL
MODEL 3
REMARK VINA RESULT:      -7.8      2.308      7.366
REMARK  2 active torsions:
REMARK  status: ('A' for Active; 'I' for Inactive)
REMARK    1  A    between atoms: C2_2  and  C3_3 
REMARK    2  A    between atoms: C5_5  and  C6_6 
ROOT
HETATM    1  C6  UNL     1      25.583   5.240  49.336  1.00  0.00     0.052 C 
HETATM    2  C7  UNL     1      26.720   4.368  49.063  1.00  0.00     0.200 C 
HETATM    3  N1  UNL     1      27.048   3.566  50.224  1.00  0.00    -0.308 N 
HETATM    4  N2  UNL     1      26.547   2.540  51.001  1.00  0.00    -0.191 NA
HETATM    5  C8  UNL     1      26.368   2.641  52.255  1.00  0.00     0.150 C 
HETATM    6  C9  UNL     1      25.822   1.472  52.999  1.00  0.00    -0.011 A 
HETATM    7  C10 UNL     1      26.573   1.095  54.081  1.00  0.00     0.013 A 
HETATM    8  C11 UNL     1      26.191   0.033  54.878  1.00  0.00     0.001 A 
HETATM    9  C12 UNL     1      25.032  -0.658  54.575  1.00  0.00     0.001 A 
HETATM   10  C13 UNL     1      24.285  -0.270  53.484  1.00  0.00     0.008 A 
HETATM   11  C14 UNL     1      24.630   0.777  52.669  1.00  0.00    -0.046 A 
HETATM   12  C15 UNL     1      24.060   1.386  51.473  1.00  0.00     0.040 C 
HETATM   13  C16 UNL     1      22.552   1.249  51.337  1.00  0.00     0.011 C 
HETATM   14  C17 UNL     1      22.133   1.956  50.029  1.00  0.00     0.062 C 
HETATM   15  C18 UNL     1      22.650   3.377  50.110  1.00  0.00     0.069 A 
HETATM   16  C19 UNL     1      23.932   3.528  49.559  1.00  0.00     0.142 A 
HETATM   17  N3  UNL     1      24.308   4.787  49.735  1.00  0.00    -0.250 N 
HETATM   18  N4  UNL     1      23.326   5.416  50.357  1.00  0.00     0.009 NA
HETATM   19  N5  UNL     1      22.324   4.586  50.590  1.00  0.00    -0.163 NA
HETATM   20  H9  UNL     1      27.979   3.772  50.699  1.00  0.00     0.182 HD
ENDROOT
BRANCH   1  21
HETATM   21  C5  UNL     1      25.763   6.546  49.214  1.00  0.00     0.043 C 
HETATM   22  C3  UNL     1      26.791   7.551  49.250  1.00  0.00    -0.019 C 
HETATM   23  C4  UNL     1      26.968   8.653  50.183  1.00  0.00     0.057 C 
BRANCH  22  24
HETATM   24  C2  UNL     1      27.702   7.466  48.318  1.00  0.00    -0.148 C 
HETATM   25  C1  UNL     1      28.723   7.217  47.537  1.00  0.00     0.097 C 
ENDBRANCH  22  24
ENDBRANCH   1  21
TORSDOF 2
ENDMDL
MODEL 4
REMARK VINA RESULT:      -7.8      2.359      5.087
REMARK  2 active torsions:
REMARK  status: ('A' for Active; 'I' for Inactive)
REMARK    1  A    between atoms: C2_2  and  C3_3 
REMARK    2  A    between atoms: C5_5  and  C6_6 
ROOT
HETATM    1  C6  UNL     1      20.078   0.260  52.471  1.00  0.00     0.052 C 
HETATM    2  C7  UNL     1      20.419   0.448  53.877  1.00  0.00     0.200 C 
HETATM    3  N1  UNL     1      21.772   0.005  54.145  1.00  0.00    -0.308 N 
HETATM    4  N2  UNL     1      23.086   0.325  53.862  1.00  0.00    -0.191 NA
HETATM    5  C8  UNL     1      23.900  -0.488  53.322  1.00  0.00     0.150 C 
HETATM    6  C9  UNL     1      25.296  -0.040  53.062  1.00  0.00    -0.011 A 
HETATM    7  C10 UNL     1      26.256  -0.874  53.570  1.00  0.00     0.013 A 
HETATM    8  C11 UNL     1      27.600  -0.599  53.401  1.00  0.00     0.001 A 
HETATM    9  C12 UNL     1      27.977   0.537  52.708  1.00  0.00     0.001 A 
HETATM   10  C13 UNL     1      27.002   1.367  52.201  1.00  0.00     0.008 A 
HETATM   11  C14 UNL     1      25.659   1.131  52.347  1.00  0.00    -0.046 A 
HETATM   12  C15 UNL     1      24.439   1.820  51.945  1.00  0.00     0.040 C 
HETATM   13  C16 UNL     1      24.565   2.672  50.692  1.00  0.00     0.011 C 
HETATM   14  C17 UNL     1      23.184   3.310  50.419  1.00  0.00     0.062 C 
HETATM   15  C18 UNL     1      22.183   2.177  50.335  1.00  0.00     0.069 A 
HETATM   16  C19 UNL     1      21.589   1.876  51.571  1.00  0.00     0.142 A 
HETATM   17  N3  UNL     1      20.781   0.839  51.395  1.00  0.00    -0.250 N 
HETATM   18  N4  UNL     1      20.843   0.494  50.120  1.00  0.00     0.009 NA
HETATM   19  N5  UNL     1      21.678   1.286  49.470  1.00  0.00    -0.163 NA
HETATM   20  H9  UNL     1      21.880  -0.853  54.766  1.00  0.00     0.182 HD
ENDROOT
BRANCH   1  21
HETATM   21  C5  UNL     1      19.044  -0.518  52.185  1.00  0.00     0.043 C 
HETATM   22  C3  UNL     1      17.641  -0.460  51.876  1.00  0.00    -0.019 C 
HETATM   23  C4  UNL     1      16.511  -0.980  52.629  1.00  0.00     0.057 C 
BRANCH  22  24
HETATM   24  C2  UNL     1      17.329   0.150  50.764  1.00  0.00    -0.148 C 
HETATM   25  C1  UNL     1      17.177   0.936  49.727  1.00  0.00     0.097 C 
ENDBRANCH  22  24
ENDBRANCH   1  21
TORSDOF 2
ENDMDL
MODEL 5
REMARK VINA RESULT:      -7.8      1.607      3.326
REMARK  2 active torsions:
REMARK  status: ('A' for Active; 'I' for Inactive)
REMARK    1  A    between atoms: C2_2  and  C3_3 
REMARK    2  A    between atoms: C5_5  and  C6_6 
ROOT
HETATM    1  C6  UNL     1      23.085   1.442  52.530  1.00  0.00     0.052 C 
HETATM    2  C7  UNL     1      24.324   1.669  53.265  1.00  0.00     0.200 C 
HETATM    3  N1  UNL     1      25.362   2.171  52.388  1.00  0.00    -0.308 N 
HETATM    4  N2  UNL     1      25.694   3.282  51.637  1.00  0.00    -0.191 NA
HETATM    5  C8  UNL     1      25.931   3.232  50.389  1.00  0.00     0.150 C 
HETATM    6  C9  UNL     1      26.282   4.492  49.675  1.00  0.00    -0.011 A 
HETATM    7  C10 UNL     1      27.441   4.421  48.949  1.00  0.00     0.013 A 
HETATM    8  C11 UNL     1      27.894   5.506  48.223  1.00  0.00     0.001 A 
HETATM    9  C12 UNL     1      27.162   6.679  48.231  1.00  0.00     0.001 A 
HETATM   10  C13 UNL     1      25.998   6.738  48.965  1.00  0.00     0.008 A 
HETATM   11  C14 UNL     1      25.515   5.686  49.699  1.00  0.00    -0.046 A 
HETATM   12  C15 UNL     1      24.357   5.470  50.558  1.00  0.00     0.040 C 
HETATM   13  C16 UNL     1      23.142   6.320  50.225  1.00  0.00     0.011 C 
HETATM   14  C17 UNL     1      22.023   5.951  51.225  1.00  0.00     0.062 C 
HETATM   15  C18 UNL     1      21.816   4.454  51.121  1.00  0.00     0.069 A 
HETATM   16  C19 UNL     1      22.605   3.727  52.027  1.00  0.00     0.142 A 
HETATM   17  N3  UNL     1      22.390   2.436  51.811  1.00  0.00    -0.250 N 
HETATM   18  N4  UNL     1      21.509   2.334  50.830  1.00  0.00     0.009 NA
HETATM   19  N5  UNL     1      21.154   3.534  50.405  1.00  0.00    -0.163 NA
HETATM   20  H9  UNL     1      26.190   1.525  52.210  1.00  0.00     0.182 HD
ENDROOT
BRANCH   1  21
HETATM   21  C5  UNL     1      22.586   0.215  52.526  1.00  0.00     0.043 C 
HETATM   22  C3  UNL     1      21.569  -0.590  53.149  1.00  0.00    -0.019 C 
HETATM   23  C4  UNL     1      21.717  -1.759  54.001  1.00  0.00     0.057 C 
BRANCH  22  24
HETATM   24  C2  UNL     1      20.336  -0.222  52.924  1.00  0.00    -0.148 C 
HETATM   25  C1  UNL     1      19.183   0.199  52.470  1.00  0.00     0.097 C 
ENDBRANCH  22  24
ENDBRANCH   1  21
TORSDOF 2
ENDMDL
MODEL 6
REMARK VINA RESULT:      -7.7      2.320      6.336
REMARK  2 active torsions:
REMARK  status: ('A' for Active; 'I' for Inactive)
REMARK    1  A    between atoms: C2_2  and  C3_3 
REMARK    2  A    between atoms: C5_5  and  C6_6 
ROOT
HETATM    1  C6  UNL     1      22.099   4.397  49.713  1.00  0.00     0.052 C 
HETATM    2  C7  UNL     1      23.195   3.764  48.988  1.00  0.00     0.200 C 
HETATM    3  N1  UNL     1      24.180   3.228  49.904  1.00  0.00    -0.308 N 
HETATM    4  N2  UNL     1      24.341   2.240  50.856  1.00  0.00    -0.191 NA
HETATM    5  C8  UNL     1      24.692   2.478  52.054  1.00  0.00     0.150 C 
HETATM    6  C9  UNL     1      24.837   1.337  53.000  1.00  0.00    -0.011 A 
HETATM    7  C10 UNL     1      26.045   1.292  53.644  1.00  0.00     0.013 A 
HETATM    8  C11 UNL     1      26.327   0.297  54.561  1.00  0.00     0.001 A 
HETATM    9  C12 UNL     1      25.372  -0.666  54.830  1.00  0.00     0.001 A 
HETATM   10  C13 UNL     1      24.160  -0.610  54.176  1.00  0.00     0.008 A 
HETATM   11  C14 UNL     1      23.842   0.359  53.260  1.00  0.00    -0.046 A 
HETATM   12  C15 UNL     1      22.682   0.651  52.426  1.00  0.00     0.040 C 
HETATM   13  C16 UNL     1      21.352   0.170  52.983  1.00  0.00     0.011 C 
HETATM   14  C17 UNL     1      20.250   0.574  51.978  1.00  0.00     0.062 C 
HETATM   15  C18 UNL     1      20.365   2.070  51.774  1.00  0.00     0.069 A 
HETATM   16  C19 UNL     1      21.204   2.416  50.703  1.00  0.00     0.142 A 
HETATM   17  N3  UNL     1      21.279   3.739  50.653  1.00  0.00    -0.250 N 
HETATM   18  N4  UNL     1      20.528   4.221  51.628  1.00  0.00     0.009 NA
HETATM   19  N5  UNL     1      19.972   3.235  52.310  1.00  0.00    -0.163 NA
HETATM   20  H9  UNL     1      25.136   3.698  49.907  1.00  0.00     0.182 HD
ENDROOT
BRANCH   1  21
HETATM   21  C5  UNL     1      21.865   5.680  49.481  1.00  0.00     0.043 C 
HETATM   22  C3  UNL     1      21.993   6.977  50.090  1.00  0.00    -0.019 C 
HETATM   23  C4  UNL     1      20.954   7.916  50.482  1.00  0.00     0.057 C 
BRANCH  22  24
HETATM   24  C2  UNL     1      23.215   7.373  50.331  1.00  0.00    -0.148 C 
HETATM   25  C1  UNL     1      24.426   7.613  50.765  1.00  0.00     0.097 C 
ENDBRANCH  22  24
ENDBRANCH   1  21
TORSDOF 2
ENDMDL
MODEL 7
REMARK VINA RESULT:      -7.7      1.917      3.797
REMARK  2 active torsions:
REMARK  status: ('A' for Active; 'I' for Inactive)
REMARK    1  A    between atoms: C2_2  and  C3_3 
REMARK    2  A    between atoms: C5_5  and  C6_6 
ROOT
HETATM    1  C6  UNL     1      23.087   2.350  51.587  1.00  0.00     0.052 C 
HETATM    2  C7  UNL     1      23.567   3.385  52.496  1.00  0.00     0.200 C 
HETATM    3  N1  UNL     1      24.575   4.207  51.859  1.00  0.00    -0.308 N 
HETATM    4  N2  UNL     1      24.727   5.134  50.846  1.00  0.00    -0.191 NA
HETATM    5  C8  UNL     1      25.544   4.987  49.884  1.00  0.00     0.150 C 
HETATM    6  C9  UNL     1      25.628   6.051  48.844  1.00  0.00    -0.011 A 
HETATM    7  C10 UNL     1      26.897   6.516  48.620  1.00  0.00     0.013 A 
HETATM    8  C11 UNL     1      27.138   7.496  47.676  1.00  0.00     0.001 A 
HETATM    9  C12 UNL     1      26.081   8.014  46.950  1.00  0.00     0.001 A 
HETATM   10  C13 UNL     1      24.810   7.537  47.186  1.00  0.00     0.008 A 
HETATM   11  C14 UNL     1      24.528   6.567  48.112  1.00  0.00    -0.046 A 
HETATM   12  C15 UNL     1      23.316   5.900  48.573  1.00  0.00     0.040 C 
HETATM   13  C16 UNL     1      22.198   5.815  47.547  1.00  0.00     0.011 C 
HETATM   14  C17 UNL     1      21.012   5.076  48.206  1.00  0.00     0.062 C 
HETATM   15  C18 UNL     1      21.541   3.746  48.700  1.00  0.00     0.069 A 
HETATM   16  C19 UNL     1      22.001   3.795  50.026  1.00  0.00     0.142 A 
HETATM   17  N3  UNL     1      22.492   2.603  50.333  1.00  0.00    -0.250 N 
HETATM   18  N4  UNL     1      22.353   1.825  49.273  1.00  0.00     0.009 NA
HETATM   19  N5  UNL     1      21.784   2.494  48.285  1.00  0.00    -0.163 NA
HETATM   20  H9  UNL     1      25.566   4.133  52.243  1.00  0.00     0.182 HD
ENDROOT
BRANCH   1  21
HETATM   21  C5  UNL     1      23.231   1.087  51.958  1.00  0.00     0.043 C 
HETATM   22  C3  UNL     1      23.171   0.239  53.118  1.00  0.00    -0.019 C 
HETATM   23  C4  UNL     1      24.232  -0.530  53.750  1.00  0.00     0.057 C 
BRANCH  22  24
HETATM   24  C2  UNL     1      22.003   0.143  53.693  1.00  0.00    -0.148 C 
HETATM   25  C1  UNL     1      20.894   0.263  54.380  1.00  0.00     0.097 C 
ENDBRANCH  22  24
ENDBRANCH   1  21
TORSDOF 2
ENDMDL
MODEL 8
REMARK VINA RESULT:      -7.5      2.275      7.282
REMARK  2 active torsions:
REMARK  status: ('A' for Active; 'I' for Inactive)
REMARK    1  A    between atoms: C2_2  and  C3_3 
REMARK    2  A    between atoms: C5_5  and  C6_6 
ROOT
HETATM    1  C6  UNL     1      22.892   3.061  52.134  1.00  0.00     0.052 C 
HETATM    2  C7  UNL     1      21.770   3.862  52.608  1.00  0.00     0.200 C 
HETATM    3  N1  UNL     1      20.508   3.234  52.274  1.00  0.00    -0.308 N 
HETATM    4  N2  UNL     1      19.744   2.123  52.577  1.00  0.00    -0.191 NA
HETATM    5  C8  UNL     1      19.347   1.292  51.701  1.00  0.00     0.150 C 
HETATM    6  C9  UNL     1      18.526   0.127  52.136  1.00  0.00    -0.011 A 
HETATM    7  C10 UNL     1      17.348  -0.014  51.453  1.00  0.00     0.013 A 
HETATM    8  C11 UNL     1      16.482  -1.054  51.736  1.00  0.00     0.001 A 
HETATM    9  C12 UNL     1      16.814  -1.963  52.723  1.00  0.00     0.001 A 
HETATM   10  C13 UNL     1      18.003  -1.809  53.403  1.00  0.00     0.008 A 
HETATM   11  C14 UNL     1      18.888  -0.792  53.154  1.00  0.00    -0.046 A 
HETATM   12  C15 UNL     1      20.173  -0.383  53.708  1.00  0.00     0.040 C 
HETATM   13  C16 UNL     1      21.007  -1.508  54.299  1.00  0.00     0.011 C 
HETATM   14  C17 UNL     1      22.323  -0.890  54.822  1.00  0.00     0.062 C 
HETATM   15  C18 UNL     1      22.957  -0.154  53.661  1.00  0.00     0.069 A 
HETATM   16  C19 UNL     1      22.574   1.195  53.590  1.00  0.00     0.142 A 
HETATM   17  N3  UNL     1      23.136   1.724  52.512  1.00  0.00    -0.250 N 
HETATM   18  N4  UNL     1      23.846   0.778  51.923  1.00  0.00     0.009 NA
HETATM   19  N5  UNL     1      23.751  -0.355  52.599  1.00  0.00    -0.163 NA
HETATM   20  H9  UNL     1      19.898   3.736  51.560  1.00  0.00     0.182 HD
ENDROOT
BRANCH   1  21
HETATM   21  C5  UNL     1      23.735   3.623  51.279  1.00  0.00     0.043 C 
HETATM   22  C3  UNL     1      24.295   3.445  49.967  1.00  0.00    -0.019 C 
HETATM   23  C4  UNL     1      25.677   3.204  49.582  1.00  0.00     0.057 C 
BRANCH  22  24
HETATM   24  C2  UNL     1      23.448   3.503  48.974  1.00  0.00    -0.148 C 
HETATM   25  C1  UNL     1      22.803   3.558  47.836  1.00  0.00     0.097 C 
ENDBRANCH  22  24
ENDBRANCH   1  21
TORSDOF 2
ENDMDL
MODEL 9
REMARK VINA RESULT:      -7.4      2.618      4.913
REMARK  2 active torsions:
REMARK  status: ('A' for Active; 'I' for Inactive)
REMARK    1  A    between atoms: C2_2  and  C3_3 
REMARK    2  A    between atoms: C5_5  and  C6_6 
ROOT
HETATM    1  C6  UNL     1      22.639   4.448  50.112  1.00  0.00     0.052 C 
HETATM    2  C7  UNL     1      23.447   4.885  51.245  1.00  0.00     0.200 C 
HETATM    3  N1  UNL     1      24.848   4.952  50.886  1.00  0.00    -0.308 N 
HETATM    4  N2  UNL     1      25.723   5.663  50.086  1.00  0.00    -0.191 NA
HETATM    5  C8  UNL     1      26.462   5.118  49.208  1.00  0.00     0.150 C 
HETATM    6  C9  UNL     1      27.371   5.979  48.400  1.00  0.00    -0.011 A 
HETATM    7  C10 UNL     1      28.679   5.573  48.406  1.00  0.00     0.013 A 
HETATM    8  C11 UNL     1      29.642   6.264  47.694  1.00  0.00     0.001 A 
HETATM    9  C12 UNL     1      29.275   7.381  46.967  1.00  0.00     0.001 A 
HETATM   10  C13 UNL     1      27.956   7.779  46.970  1.00  0.00     0.008 A 
HETATM   11  C14 UNL     1      26.971   7.123  47.663  1.00  0.00    -0.046 A 
HETATM   12  C15 UNL     1      25.540   7.317  47.857  1.00  0.00     0.040 C 
HETATM   13  C16 UNL     1      24.826   8.027  46.717  1.00  0.00     0.011 C 
HETATM   14  C17 UNL     1      23.331   8.133  47.094  1.00  0.00     0.062 C 
HETATM   15  C18 UNL     1      22.849   6.727  47.386  1.00  0.00     0.069 A 
HETATM   16  C19 UNL     1      22.970   6.374  48.740  1.00  0.00     0.142 A 
HETATM   17  N3  UNL     1      22.579   5.115  48.870  1.00  0.00    -0.250 N 
HETATM   18  N4  UNL     1      22.218   4.679  47.676  1.00  0.00     0.009 NA
HETATM   19  N5  UNL     1      22.373   5.634  46.774  1.00  0.00    -0.163 NA
HETATM   20  H9  UNL     1      25.496   4.248  51.355  1.00  0.00     0.182 HD
ENDROOT
BRANCH   1  21
HETATM   21  C5  UNL     1      21.921   3.343  50.254  1.00  0.00     0.043 C 
HETATM   22  C3  UNL     1      22.036   1.910  50.205  1.00  0.00    -0.019 C 
HETATM   23  C4  UNL     1      21.412   0.969  49.289  1.00  0.00     0.057 C 
BRANCH  22  24
HETATM   24  C2  UNL     1      22.813   1.371  51.106  1.00  0.00    -0.148 C 
HETATM   25  C1  UNL     1      23.584   1.056  52.116  1.00  0.00     0.097 C 
ENDBRANCH  22  24
ENDBRANCH   1  21
TORSDOF 2
ENDMDL
