MODEL 1
REMARK VINA RESULT:      -8.1      0.000      0.000
REMARK  5 active torsions:
REMARK  status: ('A' for Active; 'I' for Inactive)
REMARK    1  A    between atoms: C1_2  and  C2_3 
REMARK    2  A    between atoms: C2_3  and  N1_4 
REMARK    3  A    between atoms: N1_4  and  C3_5 
REMARK    4  A    between atoms: C6_9  and  O1_10 
REMARK    5  A    between atoms: O1_10  and  C7_11 
ROOT
HETATM    1  C3  UNL     1      20.758   0.094  54.238  1.00  0.00     0.248 A 
HETATM    2  C4  UNL     1      21.485   0.634  53.055  1.00  0.00     0.035 A 
HETATM    3  C5  UNL     1      22.692   0.560  52.518  1.00  0.00     0.065 A 
HETATM    4 CL1  UNL     1      23.261   1.334  51.080  1.00  0.00    -0.082 Cl
HETATM    5  C6  UNL     1      23.600  -0.297  53.271  1.00  0.00     0.087 A 
HETATM    6  C16 UNL     1      23.065  -0.848  54.348  1.00  0.00     0.014 A 
HETATM    7  C17 UNL     1      21.702  -0.792  54.992  1.00  0.00     0.069 A 
ENDROOT
BRANCH   5   8
HETATM    8  O1  UNL     1      24.902  -0.552  52.947  1.00  0.00    -0.340 OA
BRANCH   8   9
HETATM    9  C7  UNL     1      25.920   0.360  52.686  1.00  0.00     0.162 C 
HETATM   10  C8  UNL     1      25.819   1.615  53.522  1.00  0.00     0.042 C 
HETATM   11  C9  UNL     1      27.265   2.070  53.728  1.00  0.00     0.042 C 
HETATM   12  C10 UNL     1      28.037   0.795  53.583  1.00  0.00    -0.049 A 
HETATM   13  C11 UNL     1      29.351   0.561  53.975  1.00  0.00     0.007 A 
HETATM   14  C15 UNL     1      27.262  -0.197  52.981  1.00  0.00    -0.023 A 
HETATM   15  C12 UNL     1      29.936  -0.667  53.779  1.00  0.00     0.001 A 
HETATM   16  C13 UNL     1      29.167  -1.629  53.189  1.00  0.00     0.001 A 
HETATM   17  C14 UNL     1      27.864  -1.420  52.793  1.00  0.00     0.010 A 
ENDBRANCH   8   9
ENDBRANCH   5   8
BRANCH   1  18
HETATM   18  N1  UNL     1      19.567  -0.593  53.868  1.00  0.00     0.094 N 
HETATM   19  H5  UNL     1      19.663  -1.632  53.914  1.00  0.00     0.316 HD
BRANCH  18  20
HETATM   20  C2  UNL     1      19.074  -0.223  52.562  1.00  0.00     0.301 C 
BRANCH  20  21
HETATM   21  C1  UNL     1      17.701  -0.831  52.339  1.00  0.00     0.252 C 
HETATM   22  F1  UNL     1      17.624  -2.101  52.859  1.00  0.00    -0.254 F 
ENDBRANCH  20  21
ENDBRANCH  18  20
ENDBRANCH   1  18
TORSDOF 5
ENDMDL
MODEL 2
REMARK VINA RESULT:      -7.8      3.587      7.782
REMARK  5 active torsions:
REMARK  status: ('A' for Active; 'I' for Inactive)
REMARK    1  A    between atoms: C1_2  and  C2_3 
REMARK    2  A    between atoms: C2_3  and  N1_4 
REMARK    3  A    between atoms: N1_4  and  C3_5 
REMARK    4  A    between atoms: C6_9  and  O1_10 
REMARK    5  A    between atoms: O1_10  and  C7_11 
ROOT
HETATM    1  C3  UNL     1      26.508   0.299  54.623  1.00  0.00     0.248 A 
HETATM    2  C4  UNL     1      25.305  -0.443  55.095  1.00  0.00     0.035 A 
HETATM    3  C5  UNL     1      24.110  -0.780  54.639  1.00  0.00     0.065 A 
HETATM    4 CL1  UNL     1      22.880  -1.681  55.455  1.00  0.00    -0.082 Cl
HETATM    5  C6  UNL     1      23.865  -0.314  53.279  1.00  0.00     0.087 A 
HETATM    6  C16 UNL     1      24.871   0.357  52.741  1.00  0.00     0.014 A 
HETATM    7  C17 UNL     1      26.243   0.759  53.222  1.00  0.00     0.069 A 
ENDROOT
BRANCH   5   8
HETATM    8  O1  UNL     1      22.720  -0.518  52.564  1.00  0.00    -0.340 OA
BRANCH   8   9
HETATM    9  C7  UNL     1      21.744   0.411  52.215  1.00  0.00     0.162 C 
HETATM   10  C8  UNL     1      21.782   0.789  50.752  1.00  0.00     0.042 C 
HETATM   11  C9  UNL     1      20.329   1.100  50.387  1.00  0.00     0.042 C 
HETATM   12  C10 UNL     1      19.557   0.300  51.391  1.00  0.00    -0.049 A 
HETATM   13  C11 UNL     1      18.208  -0.035  51.338  1.00  0.00     0.007 A 
HETATM   14  C15 UNL     1      20.372  -0.100  52.450  1.00  0.00    -0.023 A 
HETATM   15  C12 UNL     1      17.628  -0.780  52.337  1.00  0.00     0.001 A 
HETATM   16  C13 UNL     1      18.437  -1.165  53.367  1.00  0.00     0.001 A 
HETATM   17  C14 UNL     1      19.775  -0.844  53.441  1.00  0.00     0.010 A 
ENDBRANCH   8   9
ENDBRANCH   5   8
BRANCH   1  18
HETATM   18  N1  UNL     1      27.691  -0.488  54.707  1.00  0.00     0.094 N 
HETATM   19  H5  UNL     1      27.954  -0.728  55.689  1.00  0.00     0.316 HD
BRANCH  18  20
HETATM   20  C2  UNL     1      28.828   0.114  54.051  1.00  0.00     0.301 C 
BRANCH  20  21
HETATM   21  C1  UNL     1      29.853  -0.953  53.713  1.00  0.00     0.252 C 
HETATM   22  F1  UNL     1      29.280  -2.003  53.037  1.00  0.00    -0.254 F 
ENDBRANCH  20  21
ENDBRANCH  18  20
ENDBRANCH   1  18
TORSDOF 5
ENDMDL
MODEL 3
REMARK VINA RESULT:      -7.8      2.467      2.952
REMARK  5 active torsions:
REMARK  status: ('A' for Active; 'I' for Inactive)
REMARK    1  A    between atoms: C1_2  and  C2_3 
REMARK    2  A    between atoms: C2_3  and  N1_4 
REMARK    3  A    between atoms: N1_4  and  C3_5 
REMARK    4  A    between atoms: C6_9  and  O1_10 
REMARK    5  A    between atoms: O1_10  and  C7_11 
ROOT
HETATM    1  C3  UNL     1      21.474   0.536  51.216  1.00  0.00     0.248 A 
HETATM    2  C4  UNL     1      21.927  -0.120  52.474  1.00  0.00     0.035 A 
HETATM    3  C5  UNL     1      22.979  -0.100  53.276  1.00  0.00     0.065 A 
HETATM    4 CL1  UNL     1      23.226  -1.014  54.723  1.00  0.00    -0.082 Cl
HETATM    5  C6  UNL     1      24.013   0.829  52.836  1.00  0.00     0.087 A 
HETATM    6  C16 UNL     1      23.723   1.485  51.725  1.00  0.00     0.014 A 
HETATM    7  C17 UNL     1      22.543   1.494  50.786  1.00  0.00     0.069 A 
ENDROOT
BRANCH   5   8
HETATM    8  O1  UNL     1      25.202   1.051  53.471  1.00  0.00    -0.340 OA
BRANCH   8   9
HETATM    9  C7  UNL     1      26.477   1.116  52.915  1.00  0.00     0.162 C 
HETATM   10  C8  UNL     1      27.400   2.052  53.661  1.00  0.00     0.042 C 
HETATM   11  C9  UNL     1      28.796   1.448  53.491  1.00  0.00     0.042 C 
HETATM   12  C10 UNL     1      28.503  -0.003  53.260  1.00  0.00    -0.049 A 
HETATM   13  C11 UNL     1      29.399  -1.063  53.349  1.00  0.00     0.007 A 
HETATM   14  C15 UNL     1      27.162  -0.199  52.927  1.00  0.00    -0.023 A 
HETATM   15  C12 UNL     1      28.988  -2.353  53.109  1.00  0.00     0.001 A 
HETATM   16  C13 UNL     1      27.674  -2.531  52.784  1.00  0.00     0.001 A 
HETATM   17  C14 UNL     1      26.770  -1.496  52.690  1.00  0.00     0.010 A 
ENDBRANCH   8   9
ENDBRANCH   5   8
BRANCH   1  18
HETATM   18  N1  UNL     1      20.214   1.182  51.371  1.00  0.00     0.094 N 
HETATM   19  H5  UNL     1      19.847   1.582  50.479  1.00  0.00     0.316 HD
BRANCH  18  20
HETATM   20  C2  UNL     1      20.220   2.215  52.380  1.00  0.00     0.301 C 
BRANCH  20  21
HETATM   21  C1  UNL     1      19.563   3.471  51.837  1.00  0.00     0.252 C 
HETATM   22  F1  UNL     1      20.474   4.490  51.692  1.00  0.00    -0.254 F 
ENDBRANCH  20  21
ENDBRANCH  18  20
ENDBRANCH   1  18
TORSDOF 5
ENDMDL
MODEL 4
REMARK VINA RESULT:      -7.8      6.023      7.913
REMARK  5 active torsions:
REMARK  status: ('A' for Active; 'I' for Inactive)
REMARK    1  A    between atoms: C1_2  and  C2_3 
REMARK    2  A    between atoms: C2_3  and  N1_4 
REMARK    3  A    between atoms: N1_4  and  C3_5 
REMARK    4  A    between atoms: C6_9  and  O1_10 
REMARK    5  A    between atoms: O1_10  and  C7_11 
ROOT
HETATM    1  C3  UNL     1      27.072   6.127  48.550  1.00  0.00     0.248 A 
HETATM    2  C4  UNL     1      25.678   6.165  49.071  1.00  0.00     0.035 A 
HETATM    3  C5  UNL     1      24.800   5.334  49.608  1.00  0.00     0.065 A 
HETATM    4 CL1  UNL     1      23.190   5.686  50.133  1.00  0.00    -0.082 Cl
HETATM    5  C6  UNL     1      25.315   3.978  49.755  1.00  0.00     0.087 A 
HETATM    6  C16 UNL     1      26.558   3.815  49.333  1.00  0.00     0.014 A 
HETATM    7  C17 UNL     1      27.588   4.730  48.720  1.00  0.00     0.069 A 
ENDROOT
BRANCH   5   8
HETATM    8  O1  UNL     1      24.627   2.920  50.278  1.00  0.00    -0.340 OA
BRANCH   8   9
HETATM    9  C7  UNL     1      24.451   2.582  51.617  1.00  0.00     0.162 C 
HETATM   10  C8  UNL     1      23.021   2.231  51.956  1.00  0.00     0.042 C 
HETATM   11  C9  UNL     1      23.124   1.197  53.078  1.00  0.00     0.042 C 
HETATM   12  C10 UNL     1      24.476   0.593  52.849  1.00  0.00    -0.049 A 
HETATM   13  C11 UNL     1      24.963  -0.598  53.377  1.00  0.00     0.007 A 
HETATM   14  C15 UNL     1      25.247   1.392  52.004  1.00  0.00    -0.023 A 
HETATM   15  C12 UNL     1      26.233  -1.032  53.080  1.00  0.00     0.001 A 
HETATM   16  C13 UNL     1      26.976  -0.242  52.251  1.00  0.00     0.001 A 
HETATM   17  C14 UNL     1      26.515   0.942  51.718  1.00  0.00     0.010 A 
ENDBRANCH   8   9
ENDBRANCH   5   8
BRANCH   1  18
HETATM   18  N1  UNL     1      27.911   7.083  49.189  1.00  0.00     0.094 N 
HETATM   19  H5  UNL     1      27.719   7.178  50.211  1.00  0.00     0.316 HD
BRANCH  18  20
HETATM   20  C2  UNL     1      27.859   8.391  48.578  1.00  0.00     0.301 C 
BRANCH  20  21
HETATM   21  C1  UNL     1      27.985   9.464  49.644  1.00  0.00     0.252 C 
HETATM   22  F1  UNL     1      27.360   9.089  50.809  1.00  0.00    -0.254 F 
ENDBRANCH  20  21
ENDBRANCH  18  20
ENDBRANCH   1  18
TORSDOF 5
ENDMDL
MODEL 5
REMARK VINA RESULT:      -7.7      3.590      7.597
REMARK  5 active torsions:
REMARK  status: ('A' for Active; 'I' for Inactive)
REMARK    1  A    between atoms: C1_2  and  C2_3 
REMARK    2  A    between atoms: C2_3  and  N1_4 
REMARK    3  A    between atoms: N1_4  and  C3_5 
REMARK    4  A    between atoms: C6_9  and  O1_10 
REMARK    5  A    between atoms: O1_10  and  C7_11 
ROOT
HETATM    1  C3  UNL     1      27.018   0.298  52.379  1.00  0.00     0.248 A 
HETATM    2  C4  UNL     1      26.076   1.427  52.140  1.00  0.00     0.035 A 
HETATM    3  C5  UNL     1      24.806   1.719  52.366  1.00  0.00     0.065 A 
HETATM    4 CL1  UNL     1      23.963   3.172  51.954  1.00  0.00    -0.082 Cl
HETATM    5  C6  UNL     1      24.089   0.652  53.054  1.00  0.00     0.087 A 
HETATM    6  C16 UNL     1      24.825  -0.411  53.332  1.00  0.00     0.014 A 
HETATM    7  C17 UNL     1      26.268  -0.782  53.096  1.00  0.00     0.069 A 
ENDROOT
BRANCH   5   8
HETATM    8  O1  UNL     1      22.771   0.683  53.411  1.00  0.00    -0.340 OA
BRANCH   8   9
HETATM    9  C7  UNL     1      21.759  -0.201  53.049  1.00  0.00     0.162 C 
HETATM   10  C8  UNL     1      20.734  -0.407  54.141  1.00  0.00     0.042 C 
HETATM   11  C9  UNL     1      19.420  -0.676  53.404  1.00  0.00     0.042 C 
HETATM   12  C10 UNL     1      19.636   0.001  52.085  1.00  0.00    -0.049 A 
HETATM   13  C11 UNL     1      18.665   0.338  51.147  1.00  0.00     0.007 A 
HETATM   14  C15 UNL     1      20.987   0.277  51.877  1.00  0.00    -0.023 A 
HETATM   15  C12 UNL     1      19.010   0.961  49.971  1.00  0.00     0.001 A 
HETATM   16  C13 UNL     1      20.335   1.226  49.780  1.00  0.00     0.001 A 
HETATM   17  C14 UNL     1      21.313   0.900  50.694  1.00  0.00     0.010 A 
ENDBRANCH   8   9
ENDBRANCH   5   8
BRANCH   1  18
HETATM   18  N1  UNL     1      28.176   0.708  53.100  1.00  0.00     0.094 N 
HETATM   19  H5  UNL     1      29.001   0.879  52.484  1.00  0.00     0.316 HD
BRANCH  18  20
HETATM   20  C2  UNL     1      28.553  -0.211  54.148  1.00  0.00     0.301 C 
BRANCH  20  21
HETATM   21  C1  UNL     1      29.816  -0.954  53.752  1.00  0.00     0.252 C 
HETATM   22  F1  UNL     1      29.525  -2.098  53.048  1.00  0.00    -0.254 F 
ENDBRANCH  20  21
ENDBRANCH  18  20
ENDBRANCH   1  18
TORSDOF 5
ENDMDL
MODEL 6
REMARK VINA RESULT:      -7.7      4.245      6.737
REMARK  5 active torsions:
REMARK  status: ('A' for Active; 'I' for Inactive)
REMARK    1  A    between atoms: C1_2  and  C2_3 
REMARK    2  A    between atoms: C2_3  and  N1_4 
REMARK    3  A    between atoms: N1_4  and  C3_5 
REMARK    4  A    between atoms: C6_9  and  O1_10 
REMARK    5  A    between atoms: O1_10  and  C7_11 
ROOT
HETATM    1  C3  UNL     1      27.867   0.592  54.540  1.00  0.00     0.248 A 
HETATM    2  C4  UNL     1      26.457   0.114  54.500  1.00  0.00     0.035 A 
HETATM    3  C5  UNL     1      25.413   0.183  53.691  1.00  0.00     0.065 A 
HETATM    4 CL1  UNL     1      23.842  -0.500  53.928  1.00  0.00    -0.082 Cl
HETATM    5  C6  UNL     1      25.686   0.930  52.469  1.00  0.00     0.087 A 
HETATM    6  C16 UNL     1      26.918   1.403  52.381  1.00  0.00     0.014 A 
HETATM    7  C17 UNL     1      28.133   1.347  53.273  1.00  0.00     0.069 A 
ENDROOT
BRANCH   5   8
HETATM    8  O1  UNL     1      24.792   1.159  51.462  1.00  0.00    -0.340 OA
BRANCH   8   9
HETATM    9  C7  UNL     1      23.970   2.266  51.273  1.00  0.00     0.162 C 
HETATM   10  C8  UNL     1      23.469   2.859  52.570  1.00  0.00     0.042 C 
HETATM   11  C9  UNL     1      23.318   4.355  52.288  1.00  0.00     0.042 C 
HETATM   12  C10 UNL     1      24.293   4.582  51.173  1.00  0.00    -0.049 A 
HETATM   13  C11 UNL     1      24.793   5.802  50.731  1.00  0.00     0.007 A 
HETATM   14  C15 UNL     1      24.672   3.375  50.583  1.00  0.00    -0.023 A 
HETATM   15  C12 UNL     1      25.687   5.861  49.689  1.00  0.00     0.001 A 
HETATM   16  C13 UNL     1      26.051   4.673  49.122  1.00  0.00     0.001 A 
HETATM   17  C14 UNL     1      25.567   3.453  49.542  1.00  0.00     0.010 A 
ENDBRANCH   8   9
ENDBRANCH   5   8
BRANCH   1  18
HETATM   18  N1  UNL     1      28.791  -0.476  54.725  1.00  0.00     0.094 N 
HETATM   19  H5  UNL     1      29.528  -0.261  55.433  1.00  0.00     0.316 HD
BRANCH  18  20
HETATM   20  C2  UNL     1      29.426  -0.902  53.500  1.00  0.00     0.301 C 
BRANCH  20  21
HETATM   21  C1  UNL     1      29.049  -2.341  53.198  1.00  0.00     0.252 C 
HETATM   22  F1  UNL     1      27.752  -2.436  52.752  1.00  0.00    -0.254 F 
ENDBRANCH  20  21
ENDBRANCH  18  20
ENDBRANCH   1  18
TORSDOF 5
ENDMDL
MODEL 7
REMARK VINA RESULT:      -7.7      4.547      7.322
REMARK  5 active torsions:
REMARK  status: ('A' for Active; 'I' for Inactive)
REMARK    1  A    between atoms: C1_2  and  C2_3 
REMARK    2  A    between atoms: C2_3  and  N1_4 
REMARK    3  A    between atoms: N1_4  and  C3_5 
REMARK    4  A    between atoms: C6_9  and  O1_10 
REMARK    5  A    between atoms: O1_10  and  C7_11 
ROOT
HETATM    1  C3  UNL     1      26.323   0.249  54.710  1.00  0.00     0.248 A 
HETATM    2  C4  UNL     1      25.053  -0.432  54.331  1.00  0.00     0.035 A 
HETATM    3  C5  UNL     1      23.992  -0.195  53.578  1.00  0.00     0.065 A 
HETATM    4 CL1  UNL     1      22.621  -1.219  53.327  1.00  0.00    -0.082 Cl
HETATM    5  C6  UNL     1      24.049   1.095  52.901  1.00  0.00     0.087 A 
HETATM    6  C16 UNL     1      25.142   1.797  53.152  1.00  0.00     0.014 A 
HETATM    7  C17 UNL     1      26.370   1.565  53.997  1.00  0.00     0.069 A 
ENDROOT
BRANCH   5   8
HETATM    8  O1  UNL     1      23.093   1.595  52.065  1.00  0.00    -0.340 OA
BRANCH   8   9
HETATM    9  C7  UNL     1      22.947   1.384  50.696  1.00  0.00     0.162 C 
HETATM   10  C8  UNL     1      21.572   0.883  50.318  1.00  0.00     0.042 C 
HETATM   11  C9  UNL     1      21.319   1.444  48.917  1.00  0.00     0.042 C 
HETATM   12  C10 UNL     1      22.194   2.659  48.885  1.00  0.00    -0.049 A 
HETATM   13  C11 UNL     1      22.131   3.714  47.980  1.00  0.00     0.007 A 
HETATM   14  C15 UNL     1      23.137   2.628  49.913  1.00  0.00    -0.023 A 
HETATM   15  C12 UNL     1      23.004   4.772  48.070  1.00  0.00     0.001 A 
HETATM   16  C13 UNL     1      23.922   4.729  49.081  1.00  0.00     0.001 A 
HETATM   17  C14 UNL     1      24.003   3.694  49.987  1.00  0.00     0.010 A 
ENDBRANCH   8   9
ENDBRANCH   5   8
BRANCH   1  18
HETATM   18  N1  UNL     1      27.467  -0.550  54.425  1.00  0.00     0.094 N 
HETATM   19  H5  UNL     1      27.470  -1.459  54.939  1.00  0.00     0.316 HD
BRANCH  18  20
HETATM   20  C2  UNL     1      28.717   0.131  54.669  1.00  0.00     0.301 C 
BRANCH  20  21
HETATM   21  C1  UNL     1      29.747  -0.299  53.640  1.00  0.00     0.252 C 
HETATM   22  F1  UNL     1      30.465  -1.388  54.074  1.00  0.00    -0.254 F 
ENDBRANCH  20  21
ENDBRANCH  18  20
ENDBRANCH   1  18
TORSDOF 5
ENDMDL
MODEL 8
REMARK VINA RESULT:      -7.6      5.218      7.698
REMARK  5 active torsions:
REMARK  status: ('A' for Active; 'I' for Inactive)
REMARK    1  A    between atoms: C1_2  and  C2_3 
REMARK    2  A    between atoms: C2_3  and  N1_4 
REMARK    3  A    between atoms: N1_4  and  C3_5 
REMARK    4  A    between atoms: C6_9  and  O1_10 
REMARK    5  A    between atoms: O1_10  and  C7_11 
ROOT
HETATM    1  C3  UNL     1      26.092   4.953  49.314  1.00  0.00     0.248 A 
HETATM    2  C4  UNL     1      24.892   5.241  50.148  1.00  0.00     0.035 A 
HETATM    3  C5  UNL     1      24.182   4.652  51.096  1.00  0.00     0.065 A 
HETATM    4 CL1  UNL     1      22.780   5.262  51.904  1.00  0.00    -0.082 Cl
HETATM    5  C6  UNL     1      24.700   3.339  51.463  1.00  0.00     0.087 A 
HETATM    6  C16 UNL     1      25.779   2.969  50.794  1.00  0.00     0.014 A 
HETATM    7  C17 UNL     1      26.616   3.607  49.713  1.00  0.00     0.069 A 
ENDROOT
BRANCH   5   8
HETATM    8  O1  UNL     1      24.165   2.512  52.409  1.00  0.00    -0.340 OA
BRANCH   8   9
HETATM    9  C7  UNL     1      24.290   1.129  52.516  1.00  0.00     0.162 C 
HETATM   10  C8  UNL     1      25.430   0.706  53.414  1.00  0.00     0.042 C 
HETATM   11  C9  UNL     1      24.972  -0.615  54.036  1.00  0.00     0.042 C 
HETATM   12  C10 UNL     1      23.479  -0.509  53.976  1.00  0.00    -0.049 A 
HETATM   13  C11 UNL     1      22.555  -1.280  54.674  1.00  0.00     0.007 A 
HETATM   14  C15 UNL     1      23.081   0.499  53.097  1.00  0.00    -0.023 A 
HETATM   15  C12 UNL     1      21.205  -1.071  54.520  1.00  0.00     0.001 A 
HETATM   16  C13 UNL     1      20.829  -0.081  53.658  1.00  0.00     0.001 A 
HETATM   17  C14 UNL     1      21.726   0.693  52.956  1.00  0.00     0.010 A 
ENDBRANCH   8   9
ENDBRANCH   5   8
BRANCH   1  18
HETATM   18  N1  UNL     1      27.086   5.966  49.434  1.00  0.00     0.094 N 
HETATM   19  H5  UNL     1      26.772   6.781  50.005  1.00  0.00     0.316 HD
BRANCH  18  20
HETATM   20  C2  UNL     1      27.574   6.443  48.162  1.00  0.00     0.301 C 
BRANCH  20  21
HETATM   21  C1  UNL     1      29.047   6.105  48.016  1.00  0.00     0.252 C 
HETATM   22  F1  UNL     1      29.245   4.747  47.939  1.00  0.00    -0.254 F 
ENDBRANCH  20  21
ENDBRANCH  18  20
ENDBRANCH   1  18
TORSDOF 5
ENDMDL
MODEL 9
REMARK VINA RESULT:      -7.3      3.801      7.280
REMARK  5 active torsions:
REMARK  status: ('A' for Active; 'I' for Inactive)
REMARK    1  A    between atoms: C1_2  and  C2_3 
REMARK    2  A    between atoms: C2_3  and  N1_4 
REMARK    3  A    between atoms: N1_4  and  C3_5 
REMARK    4  A    between atoms: C6_9  and  O1_10 
REMARK    5  A    between atoms: O1_10  and  C7_11 
ROOT
HETATM    1  C3  UNL     1      26.509  -0.708  53.050  1.00  0.00     0.248 A 
HETATM    2  C4  UNL     1      26.782   0.494  52.215  1.00  0.00     0.035 A 
HETATM    3  C5  UNL     1      26.168   1.610  51.857  1.00  0.00     0.065 A 
HETATM    4 CL1  UNL     1      26.766   2.867  50.832  1.00  0.00    -0.082 Cl
HETATM    5  C6  UNL     1      24.835   1.737  52.434  1.00  0.00     0.087 A 
HETATM    6  C16 UNL     1      24.475   0.727  53.210  1.00  0.00     0.014 A 
HETATM    7  C17 UNL     1      25.142  -0.554  53.644  1.00  0.00     0.069 A 
ENDROOT
BRANCH   5   8
HETATM    8  O1  UNL     1      23.980   2.783  52.233  1.00  0.00    -0.340 OA
BRANCH   8   9
HETATM    9  C7  UNL     1      22.964   2.897  51.288  1.00  0.00     0.162 C 
HETATM   10  C8  UNL     1      23.398   2.482  49.901  1.00  0.00     0.042 C 
HETATM   11  C9  UNL     1      22.137   1.914  49.246  1.00  0.00     0.042 C 
HETATM   12  C10 UNL     1      21.325   1.468  50.424  1.00  0.00    -0.049 A 
HETATM   13  C11 UNL     1      20.232   0.608  50.411  1.00  0.00     0.007 A 
HETATM   14  C15 UNL     1      21.801   2.035  51.607  1.00  0.00    -0.023 A 
HETATM   15  C12 UNL     1      19.578   0.284  51.576  1.00  0.00     0.001 A 
HETATM   16  C13 UNL     1      20.055   0.844  52.726  1.00  0.00     0.001 A 
HETATM   17  C14 UNL     1      21.134   1.700  52.762  1.00  0.00     0.010 A 
ENDBRANCH   8   9
ENDBRANCH   5   8
BRANCH   1  18
HETATM   18  N1  UNL     1      27.502  -0.905  54.052  1.00  0.00     0.094 N 
HETATM   19  H5  UNL     1      27.103  -0.998  55.012  1.00  0.00     0.316 HD
BRANCH  18  20
HETATM   20  C2  UNL     1      28.516   0.124  54.062  1.00  0.00     0.301 C 
BRANCH  20  21
HETATM   21  C1  UNL     1      29.882  -0.496  53.833  1.00  0.00     0.252 C 
HETATM   22  F1  UNL     1      29.788  -1.665  53.117  1.00  0.00    -0.254 F 
ENDBRANCH  20  21
ENDBRANCH  18  20
ENDBRANCH   1  18
TORSDOF 5
ENDMDL
