MODEL 1
REMARK VINA RESULT:      -8.6      0.000      0.000
REMARK  2 active torsions:
REMARK  status: ('A' for Active; 'I' for Inactive)
REMARK    1  A    between atoms: O1_2  and  C2_3 
REMARK    2  A    between atoms: C13_18  and  C14_19 
ROOT
HETATM    1  C2  UNL     1      24.626   2.792  51.179  1.00  0.00     0.109 C 
HETATM    2  C3  UNL     1      24.364   4.041  50.707  1.00  0.00     0.123 C 
HETATM    3  N1  UNL     1      25.441   4.348  49.944  1.00  0.00    -0.251 N 
HETATM    4  C4  UNL     1      25.747   5.347  49.254  1.00  0.00     0.111 A 
HETATM    5 CL1  UNL     1      27.132   4.320  49.033  1.00  0.00    -0.045 Cl
HETATM    6  C5  UNL     1      25.221   6.698  48.855  1.00  0.00     0.068 C 
HETATM    7  C6  UNL     1      25.983   7.312  47.733  1.00  0.00     0.021 C 
HETATM    8  C7  UNL     1      25.114   7.523  50.067  1.00  0.00    -0.019 C 
HETATM    9  C8  UNL     1      24.122   8.001  50.875  1.00  0.00    -0.028 C 
HETATM   10  C9  UNL     1      23.083   7.380  50.077  1.00  0.00     0.066 C 
HETATM   11  C10 UNL     1      22.668   6.054  50.712  1.00  0.00     0.184 A 
HETATM   12  N2  UNL     1      22.458   4.666  50.697  1.00  0.00     0.030 N 
HETATM   13  C11 UNL     1      22.739   4.001  49.413  1.00  0.00     0.896 C 
HETATM   14  N3  UNL     1      23.189   2.761  49.288  1.00  0.00     0.064 NA
HETATM   15  C12 UNL     1      23.409   2.067  50.582  1.00  0.00     0.292 C 
HETATM   16  C13 UNL     1      22.228   2.371  51.469  1.00  0.00     0.169 C 
HETATM   17  O2  UNL     1      22.507   3.570  52.193  1.00  0.00    -0.341 OA
HETATM   18  C20 UNL     1      23.042   4.586  51.299  1.00  0.00     0.285 A 
HETATM   19  C21 UNL     1      21.930   5.246  51.684  1.00  0.00     0.382 A 
ENDROOT
BRANCH  16  20
HETATM   20  C14 UNL     1      21.908   1.197  52.313  1.00  0.00     0.045 C 
HETATM   21  C15 UNL     1      23.061   0.780  53.213  1.00  0.00     0.011 C 
HETATM   22  C16 UNL     1      22.664  -0.600  53.763  1.00  0.00     0.031 C 
HETATM   23  C17 UNL     1      21.459  -0.405  54.632  1.00  0.00     0.272 C 
HETATM   24  N4  UNL     1      20.391   0.296  53.970  1.00  0.00     0.084 N 
HETATM   25  C18 UNL     1      19.564  -0.571  53.153  1.00  0.00     0.309 C 
HETATM   26  C19 UNL     1      20.785   1.491  53.299  1.00  0.00     0.279 C 
ENDBRANCH  16  20
BRANCH   1  27
HETATM   27  O1  UNL     1      25.791   2.627  51.958  1.00  0.00    -0.356 OA
HETATM   28  C1  UNL     1      26.575   1.456  51.828  1.00  0.00     0.209 C 
ENDBRANCH   1  27
TORSDOF 2
ENDMDL
MODEL 2
REMARK VINA RESULT:      -8.6      2.256      6.852
REMARK  2 active torsions:
REMARK  status: ('A' for Active; 'I' for Inactive)
REMARK    1  A    between atoms: O1_2  and  C2_3 
REMARK    2  A    between atoms: C13_18  and  C14_19 
ROOT
HETATM    1  C2  UNL     1      22.206   3.914  51.171  1.00  0.00     0.109 C 
HETATM    2  C3  UNL     1      21.939   2.682  51.682  1.00  0.00     0.123 C 
HETATM    3  N1  UNL     1      20.586   2.605  51.690  1.00  0.00    -0.251 N 
HETATM    4  C4  UNL     1      19.779   1.711  52.032  1.00  0.00     0.111 A 
HETATM    5 CL1  UNL     1      18.709   2.984  51.527  1.00  0.00    -0.045 Cl
HETATM    6  C5  UNL     1      19.749   0.315  52.593  1.00  0.00     0.068 C 
HETATM    7  C6  UNL     1      18.406  -0.320  52.501  1.00  0.00     0.021 C 
HETATM    8  C7  UNL     1      20.337   0.351  53.940  1.00  0.00    -0.019 C 
HETATM    9  C8  UNL     1      21.499  -0.038  54.542  1.00  0.00    -0.028 C 
HETATM   10  C9  UNL     1      22.040  -0.565  53.304  1.00  0.00     0.066 C 
HETATM   11  C10 UNL     1      22.967   0.467  52.665  1.00  0.00     0.184 A 
HETATM   12  N2  UNL     1      23.387   1.296  51.612  1.00  0.00     0.030 N 
HETATM   13  C11 UNL     1      22.588   1.201  50.378  1.00  0.00     0.896 C 
HETATM   14  N3  UNL     1      22.379   2.201  49.536  1.00  0.00     0.064 NA
HETATM   15  C12 UNL     1      23.020   3.477  49.944  1.00  0.00     0.292 C 
HETATM   16  C13 UNL     1      24.413   3.152  50.422  1.00  0.00     0.169 C 
HETATM   17  O2  UNL     1      24.352   2.867  51.820  1.00  0.00    -0.341 OA
HETATM   18  C20 UNL     1      23.245   1.966  52.103  1.00  0.00     0.285 A 
HETATM   19  C21 UNL     1      24.245   1.166  52.527  1.00  0.00     0.382 A 
ENDROOT
BRANCH  16  20
HETATM   20  C14 UNL     1      25.346   4.242  50.053  1.00  0.00     0.045 C 
HETATM   21  C15 UNL     1      26.470   3.778  49.139  1.00  0.00     0.011 C 
HETATM   22  C16 UNL     1      27.480   4.938  49.123  1.00  0.00     0.031 C 
HETATM   23  C17 UNL     1      26.810   6.104  48.461  1.00  0.00     0.272 C 
HETATM   24  N4  UNL     1      25.540   6.436  49.050  1.00  0.00     0.084 N 
HETATM   25  C18 UNL     1      25.661   7.274  50.227  1.00  0.00     0.309 C 
HETATM   26  C19 UNL     1      24.660   5.330  49.238  1.00  0.00     0.279 C 
ENDBRANCH  16  20
BRANCH   1  27
HETATM   27  O1  UNL     1      21.696   5.028  51.871  1.00  0.00    -0.356 OA
HETATM   28  C1  UNL     1      21.651   6.299  51.251  1.00  0.00     0.209 C 
ENDBRANCH   1  27
TORSDOF 2
ENDMDL
MODEL 3
REMARK VINA RESULT:      -8.4      2.729      4.965
REMARK  2 active torsions:
REMARK  status: ('A' for Active; 'I' for Inactive)
REMARK    1  A    between atoms: O1_2  and  C2_3 
REMARK    2  A    between atoms: C13_18  and  C14_19 
ROOT
HETATM    1  C2  UNL     1      23.262   1.566  52.129  1.00  0.00     0.109 C 
HETATM    2  C3  UNL     1      23.061   2.610  51.279  1.00  0.00     0.123 C 
HETATM    3  N1  UNL     1      21.751   2.924  51.433  1.00  0.00    -0.251 N 
HETATM    4  C4  UNL     1      21.014   3.801  50.928  1.00  0.00     0.111 A 
HETATM    5 CL1  UNL     1      19.907   2.959  51.970  1.00  0.00    -0.045 Cl
HETATM    6  C5  UNL     1      21.056   4.939  49.945  1.00  0.00     0.068 C 
HETATM    7  C6  UNL     1      19.846   5.804  50.005  1.00  0.00     0.021 C 
HETATM    8  C7  UNL     1      21.369   4.387  48.619  1.00  0.00    -0.019 C 
HETATM    9  C8  UNL     1      22.437   4.356  47.768  1.00  0.00    -0.028 C 
HETATM   10  C9  UNL     1      23.264   5.129  48.673  1.00  0.00     0.066 C 
HETATM   11  C10 UNL     1      24.157   4.193  49.485  1.00  0.00     0.184 A 
HETATM   12  N2  UNL     1      24.659   3.664  50.685  1.00  0.00     0.030 N 
HETATM   13  C11 UNL     1      24.127   4.276  51.914  1.00  0.00     0.896 C 
HETATM   14  N3  UNL     1      23.956   3.637  53.062  1.00  0.00     0.064 NA
HETATM   15  C12 UNL     1      24.342   2.203  53.017  1.00  0.00     0.292 C 
HETATM   16  C13 UNL     1      25.649   2.108  52.270  1.00  0.00     0.169 C 
HETATM   17  O2  UNL     1      25.361   1.958  50.880  1.00  0.00    -0.341 OA
HETATM   18  C20 UNL     1      24.343   2.914  50.469  1.00  0.00     0.285 A 
HETATM   19  C21 UNL     1      25.339   3.350  49.669  1.00  0.00     0.382 A 
ENDROOT
BRANCH  16  20
HETATM   20  C14 UNL     1      26.489   1.034  52.848  1.00  0.00     0.045 C 
HETATM   21  C15 UNL     1      26.499  -0.233  52.006  1.00  0.00     0.011 C 
HETATM   22  C16 UNL     1      27.147  -1.304  52.898  1.00  0.00     0.031 C 
HETATM   23  C17 UNL     1      28.572  -0.898  53.121  1.00  0.00     0.272 C 
HETATM   24  N4  UNL     1      28.706   0.445  53.620  1.00  0.00     0.084 N 
HETATM   25  C18 UNL     1      28.538   0.536  55.058  1.00  0.00     0.309 C 
HETATM   26  C19 UNL     1      27.960   1.427  52.905  1.00  0.00     0.279 C 
ENDBRANCH  16  20
BRANCH   1  27
HETATM   27  O1  UNL     1      22.492   0.403  51.916  1.00  0.00    -0.356 OA
HETATM   28  C1  UNL     1      22.366  -0.565  52.941  1.00  0.00     0.209 C 
ENDBRANCH   1  27
TORSDOF 2
ENDMDL
MODEL 4
REMARK VINA RESULT:      -8.4      2.917      5.083
REMARK  2 active torsions:
REMARK  status: ('A' for Active; 'I' for Inactive)
REMARK    1  A    between atoms: O1_2  and  C2_3 
REMARK    2  A    between atoms: C13_18  and  C14_19 
ROOT
HETATM    1  C2  UNL     1      23.152   2.658  50.203  1.00  0.00     0.109 C 
HETATM    2  C3  UNL     1      23.952   2.073  51.136  1.00  0.00     0.123 C 
HETATM    3  N1  UNL     1      25.174   2.621  50.925  1.00  0.00    -0.251 N 
HETATM    4  C4  UNL     1      26.285   2.480  51.484  1.00  0.00     0.111 A 
HETATM    5 CL1  UNL     1      26.655   3.631  50.235  1.00  0.00    -0.045 Cl
HETATM    6  C5  UNL     1      26.943   1.719  52.602  1.00  0.00     0.068 C 
HETATM    7  C6  UNL     1      28.296   2.240  52.944  1.00  0.00     0.021 C 
HETATM    8  C7  UNL     1      26.885   0.287  52.277  1.00  0.00    -0.019 C 
HETATM    9  C8  UNL     1      26.190  -0.813  52.694  1.00  0.00    -0.028 C 
HETATM   10  C9  UNL     1      25.444  -0.050  53.675  1.00  0.00     0.066 C 
HETATM   11  C10 UNL     1      24.079   0.331  53.104  1.00  0.00     0.184 A 
HETATM   12  N2  UNL     1      23.081   1.251  52.744  1.00  0.00     0.030 N 
HETATM   13  C11 UNL     1      23.384   2.660  53.046  1.00  0.00     0.896 C 
HETATM   14  N3  UNL     1      22.962   3.692  52.332  1.00  0.00     0.064 NA
HETATM   15  C12 UNL     1      22.140   3.315  51.155  1.00  0.00     0.292 C 
HETATM   16  C13 UNL     1      21.179   2.240  51.597  1.00  0.00     0.169 C 
HETATM   17  O2  UNL     1      21.811   0.972  51.420  1.00  0.00    -0.341 OA
HETATM   18  C20 UNL     1      23.169   1.009  51.942  1.00  0.00     0.285 A 
HETATM   19  C21 UNL     1      22.684   0.053  52.761  1.00  0.00     0.382 A 
ENDROOT
BRANCH  16  20
HETATM   20  C14 UNL     1      19.885   2.391  50.891  1.00  0.00     0.045 C 
HETATM   21  C15 UNL     1      19.093   1.095  50.818  1.00  0.00     0.011 C 
HETATM   22  C16 UNL     1      17.966   1.368  49.807  1.00  0.00     0.031 C 
HETATM   23  C17 UNL     1      17.073   2.412  50.406  1.00  0.00     0.272 C 
HETATM   24  N4  UNL     1      17.784   3.589  50.830  1.00  0.00     0.084 N 
HETATM   25  C18 UNL     1      18.024   4.527  49.751  1.00  0.00     0.309 C 
HETATM   26  C19 UNL     1      18.941   3.336  51.622  1.00  0.00     0.279 C 
ENDBRANCH  16  20
BRANCH   1  27
HETATM   27  O1  UNL     1      23.500   2.474  48.848  1.00  0.00    -0.356 OA
HETATM   28  C1  UNL     1      22.504   2.158  47.894  1.00  0.00     0.209 C 
ENDBRANCH   1  27
TORSDOF 2
ENDMDL
MODEL 5
REMARK VINA RESULT:      -7.9      2.102      6.606
REMARK  2 active torsions:
REMARK  status: ('A' for Active; 'I' for Inactive)
REMARK    1  A    between atoms: O1_2  and  C2_3 
REMARK    2  A    between atoms: C13_18  and  C14_19 
ROOT
HETATM    1  C2  UNL     1      24.383   3.664  51.061  1.00  0.00     0.109 C 
HETATM    2  C3  UNL     1      23.206   3.050  51.362  1.00  0.00     0.123 C 
HETATM    3  N1  UNL     1      23.551   2.062  52.224  1.00  0.00    -0.251 N 
HETATM    4  C4  UNL     1      22.894   1.194  52.841  1.00  0.00     0.111 A 
HETATM    5 CL1  UNL     1      24.518   0.840  53.348  1.00  0.00    -0.045 Cl
HETATM    6  C5  UNL     1      21.482   0.708  53.025  1.00  0.00     0.068 C 
HETATM    7  C6  UNL     1      21.335  -0.235  54.168  1.00  0.00     0.021 C 
HETATM    8  C7  UNL     1      20.998   0.206  51.731  1.00  0.00    -0.019 C 
HETATM    9  C8  UNL     1      20.133   0.610  50.755  1.00  0.00    -0.028 C 
HETATM   10  C9  UNL     1      19.790   1.824  51.469  1.00  0.00     0.066 C 
HETATM   11  C10 UNL     1      20.612   2.992  50.926  1.00  0.00     0.184 A 
HETATM   12  N2  UNL     1      21.505   4.067  51.058  1.00  0.00     0.030 N 
HETATM   13  C11 UNL     1      21.971   4.335  52.429  1.00  0.00     0.896 C 
HETATM   14  N3  UNL     1      23.164   4.820  52.740  1.00  0.00     0.064 NA
HETATM   15  C12 UNL     1      24.036   5.073  51.565  1.00  0.00     0.292 C 
HETATM   16  C13 UNL     1      23.189   5.732  50.504  1.00  0.00     0.169 C 
HETATM   17  O2  UNL     1      22.598   4.709  49.703  1.00  0.00    -0.341 OA
HETATM   18  C20 UNL     1      22.042   3.664  50.549  1.00  0.00     0.285 A 
HETATM   19  C21 UNL     1      20.894   4.050  49.955  1.00  0.00     0.382 A 
ENDROOT
BRANCH  16  20
HETATM   20  C14 UNL     1      23.994   6.721  49.751  1.00  0.00     0.045 C 
HETATM   21  C15 UNL     1      23.312   8.076  49.632  1.00  0.00     0.011 C 
HETATM   22  C16 UNL     1      24.130   8.847  48.582  1.00  0.00     0.031 C 
HETATM   23  C17 UNL     1      25.494   9.076  49.159  1.00  0.00     0.272 C 
HETATM   24  N4  UNL     1      26.122   7.867  49.625  1.00  0.00     0.084 N 
HETATM   25  C18 UNL     1      26.780   7.126  48.567  1.00  0.00     0.309 C 
HETATM   26  C19 UNL     1      25.303   7.050  50.457  1.00  0.00     0.279 C 
ENDBRANCH  16  20
BRANCH   1  27
HETATM   27  O1  UNL     1      25.388   2.875  50.463  1.00  0.00    -0.356 OA
HETATM   28  C1  UNL     1      26.418   3.486  49.708  1.00  0.00     0.209 C 
ENDBRANCH   1  27
TORSDOF 2
ENDMDL
MODEL 6
REMARK VINA RESULT:      -7.7      2.530      3.898
REMARK  2 active torsions:
REMARK  status: ('A' for Active; 'I' for Inactive)
REMARK    1  A    between atoms: O1_2  and  C2_3 
REMARK    2  A    between atoms: C13_18  and  C14_19 
ROOT
HETATM    1  C2  UNL     1      22.657   3.558  50.442  1.00  0.00     0.109 C 
HETATM    2  C3  UNL     1      23.049   4.757  49.931  1.00  0.00     0.123 C 
HETATM    3  N1  UNL     1      21.896   5.457  49.790  1.00  0.00    -0.251 N 
HETATM    4  C4  UNL     1      21.639   6.614  49.387  1.00  0.00     0.111 A 
HETATM    5 CL1  UNL     1      20.055   6.003  49.758  1.00  0.00    -0.045 Cl
HETATM    6  C5  UNL     1      22.321   7.845  48.854  1.00  0.00     0.068 C 
HETATM    7  C6  UNL     1      21.429   9.037  48.825  1.00  0.00     0.021 C 
HETATM    8  C7  UNL     1      22.951   7.500  47.573  1.00  0.00    -0.019 C 
HETATM    9  C8  UNL     1      24.213   7.283  47.097  1.00  0.00    -0.028 C 
HETATM   10  C9  UNL     1      24.814   7.532  48.393  1.00  0.00     0.066 C 
HETATM   11  C10 UNL     1      25.083   6.205  49.101  1.00  0.00     0.184 A 
HETATM   12  N2  UNL     1      24.962   5.307  50.174  1.00  0.00     0.030 N 
HETATM   13  C11 UNL     1      24.184   5.800  51.323  1.00  0.00     0.896 C 
HETATM   14  N3  UNL     1      23.450   5.039  52.120  1.00  0.00     0.064 NA
HETATM   15  C12 UNL     1      23.458   3.600  51.753  1.00  0.00     0.292 C 
HETATM   16  C13 UNL     1      24.879   3.222  51.422  1.00  0.00     0.169 C 
HETATM   17  O2  UNL     1      25.096   3.462  50.031  1.00  0.00    -0.341 OA
HETATM   18  C20 UNL     1      24.571   4.767  49.658  1.00  0.00     0.285 A 
HETATM   19  C21 UNL     1      25.866   4.995  49.352  1.00  0.00     0.382 A 
ENDROOT
BRANCH  16  20
HETATM   20  C14 UNL     1      25.154   1.834  51.861  1.00  0.00     0.045 C 
HETATM   21  C15 UNL     1      26.610   1.432  51.687  1.00  0.00     0.011 C 
HETATM   22  C16 UNL     1      26.634  -0.092  51.892  1.00  0.00     0.031 C 
HETATM   23  C17 UNL     1      26.259  -0.357  53.319  1.00  0.00     0.272 C 
HETATM   24  N4  UNL     1      25.022   0.271  53.704  1.00  0.00     0.084 N 
HETATM   25  C18 UNL     1      23.853  -0.503  53.335  1.00  0.00     0.309 C 
HETATM   26  C19 UNL     1      24.916   1.649  53.354  1.00  0.00     0.279 C 
ENDBRANCH  16  20
BRANCH   1  27
HETATM   27  O1  UNL     1      21.757   2.791  49.672  1.00  0.00    -0.356 OA
HETATM   28  C1  UNL     1      22.228   2.023  48.581  1.00  0.00     0.209 C 
ENDBRANCH   1  27
TORSDOF 2
ENDMDL
MODEL 7
REMARK VINA RESULT:      -7.7      3.176      5.004
REMARK  2 active torsions:
REMARK  status: ('A' for Active; 'I' for Inactive)
REMARK    1  A    between atoms: O1_2  and  C2_3 
REMARK    2  A    between atoms: C13_18  and  C14_19 
ROOT
HETATM    1  C2  UNL     1      20.637   0.385  52.859  1.00  0.00     0.109 C 
HETATM    2  C3  UNL     1      21.522   1.365  52.533  1.00  0.00     0.123 C 
HETATM    3  N1  UNL     1      22.739   0.800  52.728  1.00  0.00    -0.251 N 
HETATM    4  C4  UNL     1      23.911   1.213  52.576  1.00  0.00     0.111 A 
HETATM    5 CL1  UNL     1      24.174  -0.401  53.165  1.00  0.00    -0.045 Cl
HETATM    6  C5  UNL     1      24.673   2.437  52.146  1.00  0.00     0.068 C 
HETATM    7  C6  UNL     1      26.120   2.171  51.916  1.00  0.00     0.021 C 
HETATM    8  C7  UNL     1      24.376   3.519  53.096  1.00  0.00    -0.019 C 
HETATM    9  C8  UNL     1      23.644   4.671  53.112  1.00  0.00    -0.028 C 
HETATM   10  C9  UNL     1      23.201   4.487  51.744  1.00  0.00     0.066 C 
HETATM   11  C10 UNL     1      21.809   3.855  51.733  1.00  0.00     0.184 A 
HETATM   12  N2  UNL     1      20.882   2.866  51.368  1.00  0.00     0.030 N 
HETATM   13  C11 UNL     1      21.410   1.797  50.504  1.00  0.00     0.896 C 
HETATM   14  N3  UNL     1      20.990   0.541  50.516  1.00  0.00     0.064 NA
HETATM   15  C12 UNL     1      19.916   0.274  51.507  1.00  0.00     0.292 C 
HETATM   16  C13 UNL     1      18.932   1.415  51.429  1.00  0.00     0.169 C 
HETATM   17  O2  UNL     1      19.357   2.436  52.332  1.00  0.00    -0.341 OA
HETATM   18  C20 UNL     1      20.784   2.679  52.183  1.00  0.00     0.285 A 
HETATM   19  C21 UNL     1      20.351   3.909  51.838  1.00  0.00     0.382 A 
ENDROOT
BRANCH  16  20
HETATM   20  C14 UNL     1      17.556   0.918  51.659  1.00  0.00     0.045 C 
HETATM   21  C15 UNL     1      16.489   1.955  51.347  1.00  0.00     0.011 C 
HETATM   22  C16 UNL     1      15.187   1.381  51.929  1.00  0.00     0.031 C 
HETATM   23  C17 UNL     1      14.856   0.144  51.150  1.00  0.00     0.272 C 
HETATM   24  N4  UNL     1      15.944  -0.797  51.095  1.00  0.00     0.084 N 
HETATM   25  C18 UNL     1      16.017  -1.649  52.266  1.00  0.00     0.309 C 
HETATM   26  C19 UNL     1      17.203  -0.237  50.730  1.00  0.00     0.279 C 
ENDBRANCH  16  20
BRANCH   1  27
HETATM   27  O1  UNL     1      20.692  -0.124  54.174  1.00  0.00    -0.356 OA
HETATM   28  C1  UNL     1      20.874  -1.510  54.395  1.00  0.00     0.209 C 
ENDBRANCH   1  27
TORSDOF 2
ENDMDL
MODEL 8
REMARK VINA RESULT:      -7.3      2.255      6.918
REMARK  2 active torsions:
REMARK  status: ('A' for Active; 'I' for Inactive)
REMARK    1  A    between atoms: O1_2  and  C2_3 
REMARK    2  A    between atoms: C13_18  and  C14_19 
ROOT
HETATM    1  C2  UNL     1      24.894   4.557  50.269  1.00  0.00     0.109 C 
HETATM    2  C3  UNL     1      23.750   3.828  50.371  1.00  0.00     0.123 C 
HETATM    3  N1  UNL     1      23.905   3.113  51.513  1.00  0.00    -0.251 N 
HETATM    4  C4  UNL     1      23.177   2.293  52.117  1.00  0.00     0.111 A 
HETATM    5 CL1  UNL     1      24.590   2.332  53.129  1.00  0.00    -0.045 Cl
HETATM    6  C5  UNL     1      21.834   1.623  52.013  1.00  0.00     0.068 C 
HETATM    7  C6  UNL     1      21.433   0.927  53.266  1.00  0.00     0.021 C 
HETATM    8  C7  UNL     1      21.830   0.790  50.802  1.00  0.00    -0.019 C 
HETATM    9  C8  UNL     1      21.277   0.830  49.554  1.00  0.00    -0.028 C 
HETATM   10  C9  UNL     1      20.610   2.090  49.819  1.00  0.00     0.066 C 
HETATM   11  C10 UNL     1      21.440   3.242  49.255  1.00  0.00     0.184 A 
HETATM   12  N2  UNL     1      22.136   4.456  49.360  1.00  0.00     0.030 N 
HETATM   13  C11 UNL     1      22.122   5.077  50.695  1.00  0.00     0.896 C 
HETATM   14  N3  UNL     1      23.104   5.811  51.197  1.00  0.00     0.064 NA
HETATM   15  C12 UNL     1      24.269   5.960  50.288  1.00  0.00     0.292 C 
HETATM   16  C13 UNL     1      23.734   6.232  48.904  1.00  0.00     0.169 C 
HETATM   17  O2  UNL     1      23.527   4.980  48.250  1.00  0.00    -0.341 OA
HETATM   18  C20 UNL     1      22.842   4.053  49.139  1.00  0.00     0.285 A 
HETATM   19  C21 UNL     1      21.904   4.107  48.170  1.00  0.00     0.382 A 
ENDROOT
BRANCH  16  20
HETATM   20  C14 UNL     1      24.631   7.166  48.185  1.00  0.00     0.045 C 
HETATM   21  C15 UNL     1      24.032   7.686  46.888  1.00  0.00     0.011 C 
HETATM   22  C16 UNL     1      25.197   8.368  46.151  1.00  0.00     0.031 C 
HETATM   23  C17 UNL     1      25.608   9.555  46.968  1.00  0.00     0.272 C 
HETATM   24  N4  UNL     1      25.889   9.227  48.341  1.00  0.00     0.084 N 
HETATM   25  C18 UNL     1      27.234   8.724  48.541  1.00  0.00     0.309 C 
HETATM   26  C19 UNL     1      24.892   8.436  48.984  1.00  0.00     0.279 C 
ENDBRANCH  16  20
BRANCH   1  27
HETATM   27  O1  UNL     1      26.109   3.844  50.192  1.00  0.00    -0.356 OA
HETATM   28  C1  UNL     1      27.053   4.153  49.184  1.00  0.00     0.209 C 
ENDBRANCH   1  27
TORSDOF 2
ENDMDL
MODEL 9
REMARK VINA RESULT:      -7.3      2.301      3.952
REMARK  2 active torsions:
REMARK  status: ('A' for Active; 'I' for Inactive)
REMARK    1  A    between atoms: O1_2  and  C2_3 
REMARK    2  A    between atoms: C13_18  and  C14_19 
ROOT
HETATM    1  C2  UNL     1      21.310   3.453  49.547  1.00  0.00     0.109 C 
HETATM    2  C3  UNL     1      22.615   3.607  49.900  1.00  0.00     0.123 C 
HETATM    3  N1  UNL     1      23.062   4.618  49.115  1.00  0.00    -0.251 N 
HETATM    4  C4  UNL     1      24.165   5.200  49.011  1.00  0.00     0.111 A 
HETATM    5 CL1  UNL     1      23.212   6.019  47.809  1.00  0.00    -0.045 Cl
HETATM    6  C5  UNL     1      25.554   5.185  49.587  1.00  0.00     0.068 C 
HETATM    7  C6  UNL     1      26.356   6.379  49.205  1.00  0.00     0.021 C 
HETATM    8  C7  UNL     1      26.167   3.888  49.269  1.00  0.00    -0.019 C 
HETATM    9  C8  UNL     1      26.489   2.737  49.929  1.00  0.00    -0.028 C 
HETATM   10  C9  UNL     1      25.989   3.244  51.192  1.00  0.00     0.066 C 
HETATM   11  C10 UNL     1      24.570   2.731  51.429  1.00  0.00     0.184 A 
HETATM   12  N2  UNL     1      23.200   2.901  51.684  1.00  0.00     0.030 N 
HETATM   13  C11 UNL     1      22.759   4.295  51.855  1.00  0.00     0.896 C 
HETATM   14  N3  UNL     1      21.565   4.757  51.515  1.00  0.00     0.064 NA
HETATM   15  C12 UNL     1      20.672   3.733  50.916  1.00  0.00     0.292 C 
HETATM   16  C13 UNL     1      20.806   2.475  51.738  1.00  0.00     0.169 C 
HETATM   17  O2  UNL     1      21.874   1.698  51.196  1.00  0.00    -0.341 OA
HETATM   18  C20 UNL     1      23.032   2.541  50.941  1.00  0.00     0.285 A 
HETATM   19  C21 UNL     1      23.601   1.716  51.844  1.00  0.00     0.382 A 
ENDROOT
BRANCH  16  20
HETATM   20  C14 UNL     1      19.504   1.773  51.811  1.00  0.00     0.045 C 
HETATM   21  C15 UNL     1      18.419   2.442  50.982  1.00  0.00     0.011 C 
HETATM   22  C16 UNL     1      17.106   1.774  51.422  1.00  0.00     0.031 C 
HETATM   23  C17 UNL     1      17.174   0.336  51.003  1.00  0.00     0.272 C 
HETATM   24  N4  UNL     1      18.361  -0.332  51.467  1.00  0.00     0.084 N 
HETATM   25  C18 UNL     1      18.244  -0.816  52.829  1.00  0.00     0.309 C 
HETATM   26  C19 UNL     1      19.577   0.369  51.224  1.00  0.00     0.279 C 
ENDBRANCH  16  20
BRANCH   1  27
HETATM   27  O1  UNL     1      21.040   3.130  48.200  1.00  0.00    -0.356 OA
HETATM   28  C1  UNL     1      19.866   3.611  47.573  1.00  0.00     0.209 C 
ENDBRANCH   1  27
TORSDOF 2
ENDMDL
