MODEL 1
REMARK VINA RESULT:      -8.8      0.000      0.000
REMARK  5 active torsions:
REMARK  status: ('A' for Active; 'I' for Inactive)
REMARK    1  A    between atoms: C8_11  and  N3_12 
REMARK    2  A    between atoms: N3_12  and  C9_13 
REMARK    3  A    between atoms: C12_16  and  N4_17 
REMARK    4  A    between atoms: N4_17  and  C13_18 
REMARK    5  A    between atoms: C13_18  and  C14_19 
ROOT
HETATM    1  N1  UNL     1      24.068   4.283  51.796  1.00  0.00    -0.195 NA
HETATM    2  C1  UNL     1      24.561   3.253  51.627  1.00  0.00     0.093 C 
HETATM    3  C2  UNL     1      25.189   1.981  51.420  1.00  0.00     0.264 C 
HETATM    4  N2  UNL     1      26.647   2.191  51.703  1.00  0.00    -0.268 NA
HETATM    5  C3  UNL     1      27.248   1.338  52.462  1.00  0.00     0.036 C 
HETATM    6  C4  UNL     1      28.117   1.418  53.667  1.00  0.00     0.051 C 
HETATM    7  C5  UNL     1      27.990   0.517  54.689  1.00  0.00     0.137 C 
HETATM    8  O1  UNL     1      27.041  -0.527  54.805  1.00  0.00    -0.359 OA
HETATM    9  C6  UNL     1      25.725  -0.678  54.214  1.00  0.00     0.211 C 
HETATM   10  C7  UNL     1      25.581   0.083  52.972  1.00  0.00    -0.025 C 
HETATM   11  C8  UNL     1      24.732   1.006  52.496  1.00  0.00     0.053 C 
HETATM   12  C21 UNL     1      26.735  -0.045  51.946  1.00  0.00     0.097 C 
ENDROOT
BRANCH  11  13
HETATM   13  N3  UNL     1      23.536   0.754  53.272  1.00  0.00    -0.357 N 
HETATM   14  H6  UNL     1      23.710   0.793  54.309  1.00  0.00     0.166 HD
BRANCH  13  15
HETATM   15  C9  UNL     1      22.203   0.472  52.870  1.00  0.00     0.034 A 
HETATM   16  C10 UNL     1      21.393  -0.186  53.778  1.00  0.00     0.032 A 
HETATM   17  C11 UNL     1      20.065  -0.521  53.481  1.00  0.00     0.033 A 
HETATM   18  C12 UNL     1      19.539  -0.185  52.235  1.00  0.00     0.050 A 
HETATM   19  C19 UNL     1      20.409   0.465  51.395  1.00  0.00     0.062 A 
HETATM   20 CL1  UNL     1      19.765   0.899  49.815  1.00  0.00    -0.082 Cl
HETATM   21  C20 UNL     1      21.709   0.826  51.608  1.00  0.00     0.055 A 
BRANCH  18  22
HETATM   22  N4  UNL     1      18.204  -0.494  51.859  1.00  0.00    -0.384 N 
HETATM   23  H9  UNL     1      17.993  -0.565  50.850  1.00  0.00     0.160 HD
BRANCH  22  24
HETATM   24  C13 UNL     1      17.184  -0.699  52.844  1.00  0.00     0.160 C 
BRANCH  24  25
HETATM   25  C14 UNL     1      16.707  -2.103  52.890  1.00  0.00    -0.023 A 
HETATM   26  C15 UNL     1      17.406  -3.103  53.486  1.00  0.00     0.012 A 
HETATM   27  C16 UNL     1      16.967  -4.425  53.534  1.00  0.00     0.020 A 
HETATM   28  C17 UNL     1      15.738  -4.679  52.919  1.00  0.00     0.116 A 
HETATM   29  N5  UNL     1      15.036  -3.690  52.322  1.00  0.00    -0.273 NA
HETATM   30  C18 UNL     1      15.490  -2.422  52.296  1.00  0.00     0.124 A 
ENDBRANCH  24  25
ENDBRANCH  22  24
ENDBRANCH  18  22
ENDBRANCH  13  15
ENDBRANCH  11  13
TORSDOF 5
ENDMDL
MODEL 2
REMARK VINA RESULT:      -8.5      6.205      9.078
REMARK  5 active torsions:
REMARK  status: ('A' for Active; 'I' for Inactive)
REMARK    1  A    between atoms: C8_11  and  N3_12 
REMARK    2  A    between atoms: N3_12  and  C9_13 
REMARK    3  A    between atoms: C12_16  and  N4_17 
REMARK    4  A    between atoms: N4_17  and  C13_18 
REMARK    5  A    between atoms: C13_18  and  C14_19 
ROOT
HETATM    1  N1  UNL     1      27.176   9.500  50.431  1.00  0.00    -0.195 NA
HETATM    2  C1  UNL     1      27.959   9.284  49.610  1.00  0.00     0.093 C 
HETATM    3  C2  UNL     1      28.944   9.018  48.603  1.00  0.00     0.264 C 
HETATM    4  N2  UNL     1      30.266   9.015  49.311  1.00  0.00    -0.268 NA
HETATM    5  C3  UNL     1      31.083   8.046  49.070  1.00  0.00     0.036 C 
HETATM    6  C4  UNL     1      31.867   7.089  49.897  1.00  0.00     0.051 C 
HETATM    7  C5  UNL     1      31.998   5.779  49.524  1.00  0.00     0.137 C 
HETATM    8  O1  UNL     1      31.405   5.135  48.412  1.00  0.00    -0.359 OA
HETATM    9  C6  UNL     1      30.206   5.456  47.662  1.00  0.00     0.211 C 
HETATM   10  C7  UNL     1      29.861   6.876  47.745  1.00  0.00    -0.025 C 
HETATM   11  C8  UNL     1      28.783   7.591  48.098  1.00  0.00     0.053 C 
HETATM   12  C21 UNL     1      31.018   7.882  47.517  1.00  0.00     0.097 C 
ENDROOT
BRANCH  11  13
HETATM   13  N3  UNL     1      27.704   6.649  47.881  1.00  0.00    -0.357 N 
HETATM   14  H6  UNL     1      27.481   6.516  46.861  1.00  0.00     0.166 HD
BRANCH  13  15
HETATM   15  C9  UNL     1      26.923   5.896  48.798  1.00  0.00     0.034 A 
HETATM   16  C10 UNL     1      27.243   4.559  48.954  1.00  0.00     0.032 A 
HETATM   17  C11 UNL     1      26.531   3.723  49.825  1.00  0.00     0.033 A 
HETATM   18  C12 UNL     1      25.469   4.247  50.558  1.00  0.00     0.050 A 
HETATM   19  C19 UNL     1      25.219   5.580  50.344  1.00  0.00     0.062 A 
HETATM   20 CL1  UNL     1      23.881   6.263  51.261  1.00  0.00    -0.082 Cl
HETATM   21  C20 UNL     1      25.862   6.458  49.518  1.00  0.00     0.055 A 
BRANCH  18  22
HETATM   22  N4  UNL     1      24.699   3.462  51.458  1.00  0.00    -0.384 N 
HETATM   23  H9  UNL     1      24.120   3.959  52.155  1.00  0.00     0.160 HD
BRANCH  22  24
HETATM   24  C13 UNL     1      24.723   2.031  51.402  1.00  0.00     0.160 C 
BRANCH  24  25
HETATM   25  C14 UNL     1      25.698   1.436  52.348  1.00  0.00    -0.023 A 
HETATM   26  C15 UNL     1      26.530   0.418  52.010  1.00  0.00     0.012 A 
HETATM   27  C16 UNL     1      27.449  -0.149  52.892  1.00  0.00     0.020 A 
HETATM   28  C17 UNL     1      27.471   0.396  54.178  1.00  0.00     0.116 A 
HETATM   29  N5  UNL     1      26.645   1.410  54.524  1.00  0.00    -0.273 NA
HETATM   30  C18 UNL     1      25.770   1.935  53.645  1.00  0.00     0.124 A 
ENDBRANCH  24  25
ENDBRANCH  22  24
ENDBRANCH  18  22
ENDBRANCH  13  15
ENDBRANCH  11  13
TORSDOF 5
ENDMDL
MODEL 3
REMARK VINA RESULT:      -8.1      5.798     11.418
REMARK  5 active torsions:
REMARK  status: ('A' for Active; 'I' for Inactive)
REMARK    1  A    between atoms: C8_11  and  N3_12 
REMARK    2  A    between atoms: N3_12  and  C9_13 
REMARK    3  A    between atoms: C12_16  and  N4_17 
REMARK    4  A    between atoms: N4_17  and  C13_18 
REMARK    5  A    between atoms: C13_18  and  C14_19 
ROOT
HETATM    1  N1  UNL     1      21.986   2.590  49.108  1.00  0.00    -0.195 NA
HETATM    2  C1  UNL     1      22.568   2.804  50.082  1.00  0.00     0.093 C 
HETATM    3  C2  UNL     1      23.283   3.055  51.299  1.00  0.00     0.264 C 
HETATM    4  N2  UNL     1      23.028   1.867  52.179  1.00  0.00    -0.268 NA
HETATM    5  C3  UNL     1      24.036   1.322  52.771  1.00  0.00     0.036 C 
HETATM    6  C4  UNL     1      24.567  -0.061  52.903  1.00  0.00     0.051 C 
HETATM    7  C5  UNL     1      25.913  -0.306  52.865  1.00  0.00     0.137 C 
HETATM    8  O1  UNL     1      26.954   0.627  52.642  1.00  0.00    -0.359 OA
HETATM    9  C6  UNL     1      26.945   1.908  51.963  1.00  0.00     0.211 C 
HETATM   10  C7  UNL     1      25.618   2.527  51.957  1.00  0.00    -0.025 C 
HETATM   11  C8  UNL     1      24.780   3.011  51.028  1.00  0.00     0.053 C 
HETATM   12  C21 UNL     1      24.857   2.540  53.306  1.00  0.00     0.097 C 
ENDROOT
BRANCH  11  13
HETATM   13  N3  UNL     1      25.681   3.342  49.943  1.00  0.00    -0.357 N 
HETATM   14  H6  UNL     1      25.968   2.498  49.384  1.00  0.00     0.166 HD
BRANCH  13  15
HETATM   15  C9  UNL     1      26.222   4.587  49.526  1.00  0.00     0.034 A 
HETATM   16  C10 UNL     1      27.412   4.556  48.820  1.00  0.00     0.032 A 
HETATM   17  C11 UNL     1      28.038   5.726  48.369  1.00  0.00     0.033 A 
HETATM   18  C12 UNL     1      27.450   6.961  48.636  1.00  0.00     0.050 A 
HETATM   19  C19 UNL     1      26.273   6.902  49.341  1.00  0.00     0.062 A 
HETATM   20 CL1  UNL     1      25.514   8.451  49.690  1.00  0.00    -0.082 Cl
HETATM   21  C20 UNL     1      25.602   5.809  49.813  1.00  0.00     0.055 A 
BRANCH  18  22
HETATM   22  N4  UNL     1      28.025   8.190  48.215  1.00  0.00    -0.384 N 
HETATM   23  H9  UNL     1      27.526   8.730  47.490  1.00  0.00     0.160 HD
BRANCH  22  24
HETATM   24  C13 UNL     1      29.255   8.664  48.776  1.00  0.00     0.160 C 
BRANCH  24  25
HETATM   25  C14 UNL     1      29.300  10.142  48.890  1.00  0.00    -0.023 A 
HETATM   26  C15 UNL     1      30.461  10.842  48.983  1.00  0.00     0.012 A 
HETATM   27  C16 UNL     1      30.515  12.231  49.091  1.00  0.00     0.020 A 
HETATM   28  C17 UNL     1      29.282  12.886  49.101  1.00  0.00     0.116 A 
HETATM   29  N5  UNL     1      28.121  12.198  49.010  1.00  0.00    -0.273 NA
HETATM   30  C18 UNL     1      28.106  10.856  48.905  1.00  0.00     0.124 A 
ENDBRANCH  24  25
ENDBRANCH  22  24
ENDBRANCH  18  22
ENDBRANCH  13  15
ENDBRANCH  11  13
TORSDOF 5
ENDMDL
MODEL 4
REMARK VINA RESULT:      -8.1      4.490     10.125
REMARK  5 active torsions:
REMARK  status: ('A' for Active; 'I' for Inactive)
REMARK    1  A    between atoms: C8_11  and  N3_12 
REMARK    2  A    between atoms: N3_12  and  C9_13 
REMARK    3  A    between atoms: C12_16  and  N4_17 
REMARK    4  A    between atoms: N4_17  and  C13_18 
REMARK    5  A    between atoms: C13_18  and  C14_19 
ROOT
HETATM    1  N1  UNL     1      26.709   1.646  54.509  1.00  0.00    -0.195 NA
HETATM    2  C1  UNL     1      25.917   1.167  53.820  1.00  0.00     0.093 C 
HETATM    3  C2  UNL     1      24.930   0.560  52.975  1.00  0.00     0.264 C 
HETATM    4  N2  UNL     1      24.290  -0.518  53.799  1.00  0.00    -0.268 NA
HETATM    5  C3  UNL     1      23.002  -0.590  53.812  1.00  0.00     0.036 C 
HETATM    6  C4  UNL     1      21.954  -0.670  54.864  1.00  0.00     0.051 C 
HETATM    7  C5  UNL     1      20.776   0.014  54.739  1.00  0.00     0.137 C 
HETATM    8  O1  UNL     1      20.399   0.902  53.702  1.00  0.00    -0.359 OA
HETATM    9  C6  UNL     1      21.208   1.692  52.795  1.00  0.00     0.211 C 
HETATM   10  C7  UNL     1      22.542   1.120  52.596  1.00  0.00    -0.025 C 
HETATM   11  C8  UNL     1      23.806   1.552  52.712  1.00  0.00     0.053 C 
HETATM   12  C21 UNL     1      22.605  -0.401  52.311  1.00  0.00     0.097 C 
ENDROOT
BRANCH  11  13
HETATM   13  N3  UNL     1      23.658   2.984  52.556  1.00  0.00    -0.357 N 
HETATM   14  H6  UNL     1      23.002   3.403  53.264  1.00  0.00     0.166 HD
BRANCH  13  15
HETATM   15  C9  UNL     1      24.242   3.888  51.629  1.00  0.00     0.034 A 
HETATM   16  C10 UNL     1      23.673   5.145  51.525  1.00  0.00     0.032 A 
HETATM   17  C11 UNL     1      24.163   6.110  50.635  1.00  0.00     0.033 A 
HETATM   18  C12 UNL     1      25.256   5.802  49.828  1.00  0.00     0.050 A 
HETATM   19  C19 UNL     1      25.759   4.536  49.994  1.00  0.00     0.062 A 
HETATM   20 CL1  UNL     1      27.140   4.125  48.983  1.00  0.00    -0.082 Cl
HETATM   21  C20 UNL     1      25.342   3.542  50.834  1.00  0.00     0.055 A 
BRANCH  18  22
HETATM   22  N4  UNL     1      25.807   6.726  48.900  1.00  0.00    -0.384 N 
HETATM   23  H9  UNL     1      25.670   6.536  47.894  1.00  0.00     0.160 HD
BRANCH  22  24
HETATM   24  C13 UNL     1      26.527   7.882  49.343  1.00  0.00     0.160 C 
BRANCH  24  25
HETATM   25  C14 UNL     1      27.874   7.987  48.731  1.00  0.00    -0.023 A 
HETATM   26  C15 UNL     1      28.271   7.222  47.681  1.00  0.00     0.012 A 
HETATM   27  C16 UNL     1      29.534   7.311  47.099  1.00  0.00     0.020 A 
HETATM   28  C17 UNL     1      30.398   8.252  47.666  1.00  0.00     0.116 A 
HETATM   29  N5  UNL     1      30.013   9.017  48.712  1.00  0.00    -0.273 NA
HETATM   30  C18 UNL     1      28.783   8.905  49.249  1.00  0.00     0.124 A 
ENDBRANCH  24  25
ENDBRANCH  22  24
ENDBRANCH  18  22
ENDBRANCH  13  15
ENDBRANCH  11  13
TORSDOF 5
ENDMDL
MODEL 5
REMARK VINA RESULT:      -8.0      2.446      3.414
REMARK  5 active torsions:
REMARK  status: ('A' for Active; 'I' for Inactive)
REMARK    1  A    between atoms: C8_11  and  N3_12 
REMARK    2  A    between atoms: N3_12  and  C9_13 
REMARK    3  A    between atoms: C12_16  and  N4_17 
REMARK    4  A    between atoms: N4_17  and  C13_18 
REMARK    5  A    between atoms: C13_18  and  C14_19 
ROOT
HETATM    1  N1  UNL     1      24.219   4.497  51.556  1.00  0.00    -0.195 NA
HETATM    2  C1  UNL     1      24.639   3.430  51.428  1.00  0.00     0.093 C 
HETATM    3  C2  UNL     1      25.178   2.111  51.272  1.00  0.00     0.264 C 
HETATM    4  N2  UNL     1      26.622   2.206  51.665  1.00  0.00    -0.268 NA
HETATM    5  C3  UNL     1      27.094   1.315  52.469  1.00  0.00     0.036 C 
HETATM    6  C4  UNL     1      27.873   1.336  53.737  1.00  0.00     0.051 C 
HETATM    7  C5  UNL     1      27.596   0.457  54.748  1.00  0.00     0.137 C 
HETATM    8  O1  UNL     1      26.561  -0.507  54.794  1.00  0.00    -0.359 OA
HETATM    9  C6  UNL     1      25.286  -0.559  54.106  1.00  0.00     0.211 C 
HETATM   10  C7  UNL     1      25.298   0.201  52.854  1.00  0.00    -0.025 C 
HETATM   11  C8  UNL     1      24.564   1.184  52.312  1.00  0.00     0.053 C 
HETATM   12  C21 UNL     1      26.512  -0.028  51.919  1.00  0.00     0.097 C 
ENDROOT
BRANCH  11  13
HETATM   13  N3  UNL     1      23.296   1.035  52.996  1.00  0.00    -0.357 N 
HETATM   14  H6  UNL     1      23.378   1.172  54.036  1.00  0.00     0.166 HD
BRANCH  13  15
HETATM   15  C9  UNL     1      21.997   0.743  52.501  1.00  0.00     0.034 A 
HETATM   16  C10 UNL     1      21.657   1.267  51.266  1.00  0.00     0.032 A 
HETATM   17  C11 UNL     1      20.399   1.049  50.689  1.00  0.00     0.033 A 
HETATM   18  C12 UNL     1      19.457   0.284  51.374  1.00  0.00     0.050 A 
HETATM   19  C19 UNL     1      19.875  -0.196  52.590  1.00  0.00     0.062 A 
HETATM   20 CL1  UNL     1      18.699  -1.165  53.472  1.00  0.00    -0.082 Cl
HETATM   21  C20 UNL     1      21.076  -0.030  53.219  1.00  0.00     0.055 A 
BRANCH  18  22
HETATM   22  N4  UNL     1      18.160   0.023  50.855  1.00  0.00    -0.384 N 
HETATM   23  H9  UNL     1      17.750  -0.908  51.034  1.00  0.00     0.160 HD
BRANCH  22  24
HETATM   24  C13 UNL     1      17.445   1.016  50.110  1.00  0.00     0.160 C 
BRANCH  24  25
HETATM   25  C14 UNL     1      16.735   1.985  50.980  1.00  0.00    -0.023 A 
HETATM   26  C15 UNL     1      17.093   3.291  51.078  1.00  0.00     0.012 A 
HETATM   27  C16 UNL     1      16.435   4.210  51.894  1.00  0.00     0.020 A 
HETATM   28  C17 UNL     1      15.359   3.706  52.628  1.00  0.00     0.116 A 
HETATM   29  N5  UNL     1      14.995   2.407  52.538  1.00  0.00    -0.273 NA
HETATM   30  C18 UNL     1      15.654   1.546  51.738  1.00  0.00     0.124 A 
ENDBRANCH  24  25
ENDBRANCH  22  24
ENDBRANCH  18  22
ENDBRANCH  13  15
ENDBRANCH  11  13
TORSDOF 5
ENDMDL
MODEL 6
REMARK VINA RESULT:      -7.9      5.390     11.089
REMARK  5 active torsions:
REMARK  status: ('A' for Active; 'I' for Inactive)
REMARK    1  A    between atoms: C8_11  and  N3_12 
REMARK    2  A    between atoms: N3_12  and  C9_13 
REMARK    3  A    between atoms: C12_16  and  N4_17 
REMARK    4  A    between atoms: N4_17  and  C13_18 
REMARK    5  A    between atoms: C13_18  and  C14_19 
ROOT
HETATM    1  N1  UNL     1      22.185   1.754  49.187  1.00  0.00    -0.195 NA
HETATM    2  C1  UNL     1      22.713   2.096  50.155  1.00  0.00     0.093 C 
HETATM    3  C2  UNL     1      23.364   2.505  51.365  1.00  0.00     0.264 C 
HETATM    4  N2  UNL     1      23.291   1.326  52.290  1.00  0.00    -0.268 NA
HETATM    5  C3  UNL     1      24.366   0.973  52.910  1.00  0.00     0.036 C 
HETATM    6  C4  UNL     1      25.110  -0.302  53.101  1.00  0.00     0.051 C 
HETATM    7  C5  UNL     1      26.478  -0.329  53.080  1.00  0.00     0.137 C 
HETATM    8  O1  UNL     1      27.359   0.750  52.826  1.00  0.00    -0.359 OA
HETATM    9  C6  UNL     1      27.154   1.985  52.096  1.00  0.00     0.211 C 
HETATM   10  C7  UNL     1      25.745   2.383  52.057  1.00  0.00    -0.025 C 
HETATM   11  C8  UNL     1      24.853   2.690  51.105  1.00  0.00     0.053 C 
HETATM   12  C21 UNL     1      24.975   2.326  53.401  1.00  0.00     0.097 C 
ENDROOT
BRANCH  11  13
HETATM   13  N3  UNL     1      25.702   3.119  50.013  1.00  0.00    -0.357 N 
HETATM   14  H6  UNL     1      26.046   2.315  49.427  1.00  0.00     0.166 HD
BRANCH  13  15
HETATM   15  C9  UNL     1      26.132   4.414  49.617  1.00  0.00     0.034 A 
HETATM   16  C10 UNL     1      27.294   4.494  48.871  1.00  0.00     0.032 A 
HETATM   17  C11 UNL     1      27.813   5.721  48.436  1.00  0.00     0.033 A 
HETATM   18  C12 UNL     1      27.144   6.899  48.763  1.00  0.00     0.050 A 
HETATM   19  C19 UNL     1      26.002   6.730  49.504  1.00  0.00     0.062 A 
HETATM   20 CL1  UNL     1      25.140   8.205  49.928  1.00  0.00    -0.082 Cl
HETATM   21  C20 UNL     1      25.432   5.576  49.964  1.00  0.00     0.055 A 
BRANCH  18  22
HETATM   22  N4  UNL     1      27.609   8.180  48.362  1.00  0.00    -0.384 N 
HETATM   23  H9  UNL     1      27.178   8.608  47.526  1.00  0.00     0.160 HD
BRANCH  22  24
HETATM   24  C13 UNL     1      28.641   8.857  49.091  1.00  0.00     0.160 C 
BRANCH  24  25
HETATM   25  C14 UNL     1      29.996   8.582  48.554  1.00  0.00    -0.023 A 
HETATM   26  C15 UNL     1      31.067   8.320  49.348  1.00  0.00     0.012 A 
HETATM   27  C16 UNL     1      32.345   8.062  48.855  1.00  0.00     0.020 A 
HETATM   28  C17 UNL     1      32.474   8.087  47.464  1.00  0.00     0.116 A 
HETATM   29  N5  UNL     1      31.414   8.349  46.665  1.00  0.00    -0.273 NA
HETATM   30  C18 UNL     1      30.192   8.593  47.177  1.00  0.00     0.124 A 
ENDBRANCH  24  25
ENDBRANCH  22  24
ENDBRANCH  18  22
ENDBRANCH  13  15
ENDBRANCH  11  13
TORSDOF 5
ENDMDL
MODEL 7
REMARK VINA RESULT:      -7.9      6.553      9.816
REMARK  5 active torsions:
REMARK  status: ('A' for Active; 'I' for Inactive)
REMARK    1  A    between atoms: C8_11  and  N3_12 
REMARK    2  A    between atoms: N3_12  and  C9_13 
REMARK    3  A    between atoms: C12_16  and  N4_17 
REMARK    4  A    between atoms: N4_17  and  C13_18 
REMARK    5  A    between atoms: C13_18  and  C14_19 
ROOT
HETATM    1  N1  UNL     1      31.513   4.528  47.742  1.00  0.00    -0.195 NA
HETATM    2  C1  UNL     1      31.228   5.508  48.281  1.00  0.00     0.093 C 
HETATM    3  C2  UNL     1      30.887   6.733  48.944  1.00  0.00     0.264 C 
HETATM    4  N2  UNL     1      31.884   7.749  48.469  1.00  0.00    -0.268 NA
HETATM    5  C3  UNL     1      31.445   8.899  48.085  1.00  0.00     0.036 C 
HETATM    6  C4  UNL     1      31.627   9.758  46.884  1.00  0.00     0.051 C 
HETATM    7  C5  UNL     1      30.577  10.453  46.348  1.00  0.00     0.137 C 
HETATM    8  O1  UNL     1      29.224  10.430  46.766  1.00  0.00    -0.359 OA
HETATM    9  C6  UNL     1      28.473   9.417  47.482  1.00  0.00     0.211 C 
HETATM   10  C7  UNL     1      29.334   8.559  48.299  1.00  0.00    -0.025 C 
HETATM   11  C8  UNL     1      29.551   7.242  48.420  1.00  0.00     0.053 C 
HETATM   12  C21 UNL     1      30.390   9.277  49.176  1.00  0.00     0.097 C 
ENDROOT
BRANCH  11  13
HETATM   13  N3  UNL     1      28.310   6.678  47.932  1.00  0.00    -0.357 N 
HETATM   14  H6  UNL     1      28.127   6.915  46.923  1.00  0.00     0.166 HD
BRANCH  13  15
HETATM   15  C9  UNL     1      27.329   5.878  48.577  1.00  0.00     0.034 A 
HETATM   16  C10 UNL     1      27.636   4.546  48.786  1.00  0.00     0.032 A 
HETATM   17  C11 UNL     1      26.739   3.666  49.405  1.00  0.00     0.033 A 
HETATM   18  C12 UNL     1      25.497   4.141  49.825  1.00  0.00     0.050 A 
HETATM   19  C19 UNL     1      25.274   5.472  49.580  1.00  0.00     0.062 A 
HETATM   20 CL1  UNL     1      23.712   6.093  50.101  1.00  0.00    -0.082 Cl
HETATM   21  C20 UNL     1      26.092   6.392  48.986  1.00  0.00     0.055 A 
BRANCH  18  22
HETATM   22  N4  UNL     1      24.534   3.310  50.456  1.00  0.00    -0.384 N 
HETATM   23  H9  UNL     1      23.915   2.746  49.851  1.00  0.00     0.160 HD
BRANCH  22  24
HETATM   24  C13 UNL     1      24.423   3.254  51.884  1.00  0.00     0.160 C 
BRANCH  24  25
HETATM   25  C14 UNL     1      25.288   2.210  52.485  1.00  0.00    -0.023 A 
HETATM   26  C15 UNL     1      25.556   1.028  51.873  1.00  0.00     0.012 A 
HETATM   27  C16 UNL     1      26.366   0.039  52.429  1.00  0.00     0.020 A 
HETATM   28  C17 UNL     1      26.904   0.333  53.684  1.00  0.00     0.116 A 
HETATM   29  N5  UNL     1      26.643   1.507  54.303  1.00  0.00    -0.273 NA
HETATM   30  C18 UNL     1      25.856   2.440  53.734  1.00  0.00     0.124 A 
ENDBRANCH  24  25
ENDBRANCH  22  24
ENDBRANCH  18  22
ENDBRANCH  13  15
ENDBRANCH  11  13
TORSDOF 5
ENDMDL
MODEL 8
REMARK VINA RESULT:      -7.7      6.623      9.402
REMARK  5 active torsions:
REMARK  status: ('A' for Active; 'I' for Inactive)
REMARK    1  A    between atoms: C8_11  and  N3_12 
REMARK    2  A    between atoms: N3_12  and  C9_13 
REMARK    3  A    between atoms: C12_16  and  N4_17 
REMARK    4  A    between atoms: N4_17  and  C13_18 
REMARK    5  A    between atoms: C13_18  and  C14_19 
ROOT
HETATM    1  N1  UNL     1      31.742   3.804  46.791  1.00  0.00    -0.195 NA
HETATM    2  C1  UNL     1      31.668   4.607  47.617  1.00  0.00     0.093 C 
HETATM    3  C2  UNL     1      31.592   5.611  48.638  1.00  0.00     0.264 C 
HETATM    4  N2  UNL     1      32.816   6.462  48.470  1.00  0.00    -0.268 NA
HETATM    5  C3  UNL     1      32.672   7.744  48.477  1.00  0.00     0.036 C 
HETATM    6  C4  UNL     1      33.100   8.864  47.597  1.00  0.00     0.051 C 
HETATM    7  C5  UNL     1      32.263   9.916  47.337  1.00  0.00     0.137 C 
HETATM    8  O1  UNL     1      30.925  10.081  47.769  1.00  0.00    -0.359 OA
HETATM    9  C6  UNL     1      29.930   9.100  48.158  1.00  0.00     0.211 C 
HETATM   10  C7  UNL     1      30.533   7.856  48.641  1.00  0.00    -0.025 C 
HETATM   11  C8  UNL     1      30.434   6.554  48.341  1.00  0.00     0.053 C 
HETATM   12  C21 UNL     1      31.687   8.000  49.664  1.00  0.00     0.097 C 
ENDROOT
BRANCH  11  13
HETATM   13  N3  UNL     1      29.118   6.474  47.740  1.00  0.00    -0.357 N 
HETATM   14  H6  UNL     1      29.104   6.825  46.748  1.00  0.00     0.166 HD
BRANCH  13  15
HETATM   15  C9  UNL     1      27.880   6.011  48.261  1.00  0.00     0.034 A 
HETATM   16  C10 UNL     1      27.836   4.708  48.723  1.00  0.00     0.032 A 
HETATM   17  C11 UNL     1      26.664   4.147  49.248  1.00  0.00     0.033 A 
HETATM   18  C12 UNL     1      25.505   4.918  49.309  1.00  0.00     0.050 A 
HETATM   19  C19 UNL     1      25.637   6.198  48.830  1.00  0.00     0.062 A 
HETATM   20 CL1  UNL     1      24.185   7.191  48.898  1.00  0.00    -0.082 Cl
HETATM   21  C20 UNL     1      26.736   6.817  48.306  1.00  0.00     0.055 A 
BRANCH  18  22
HETATM   22  N4  UNL     1      24.279   4.419  49.824  1.00  0.00    -0.384 N 
HETATM   23  H9  UNL     1      23.737   5.033  50.454  1.00  0.00     0.160 HD
BRANCH  22  24
HETATM   24  C13 UNL     1      23.810   3.109  49.483  1.00  0.00     0.160 C 
BRANCH  24  25
HETATM   25  C14 UNL     1      23.657   2.229  50.668  1.00  0.00    -0.023 A 
HETATM   26  C15 UNL     1      24.618   2.095  51.618  1.00  0.00     0.012 A 
HETATM   27  C16 UNL     1      24.486   1.270  52.734  1.00  0.00     0.020 A 
HETATM   28  C17 UNL     1      23.282   0.567  52.829  1.00  0.00     0.116 A 
HETATM   29  N5  UNL     1      22.320   0.694  51.887  1.00  0.00    -0.273 NA
HETATM   30  C18 UNL     1      22.481   1.502  50.822  1.00  0.00     0.124 A 
ENDBRANCH  24  25
ENDBRANCH  22  24
ENDBRANCH  18  22
ENDBRANCH  13  15
ENDBRANCH  11  13
TORSDOF 5
ENDMDL
MODEL 9
REMARK VINA RESULT:      -7.6      6.069      8.909
REMARK  5 active torsions:
REMARK  status: ('A' for Active; 'I' for Inactive)
REMARK    1  A    between atoms: C8_11  and  N3_12 
REMARK    2  A    between atoms: N3_12  and  C9_13 
REMARK    3  A    between atoms: C12_16  and  N4_17 
REMARK    4  A    between atoms: N4_17  and  C13_18 
REMARK    5  A    between atoms: C13_18  and  C14_19 
ROOT
HETATM    1  N1  UNL     1      27.349   9.644  50.434  1.00  0.00    -0.195 NA
HETATM    2  C1  UNL     1      28.216   9.550  49.679  1.00  0.00     0.093 C 
HETATM    3  C2  UNL     1      29.306   9.433  48.754  1.00  0.00     0.264 C 
HETATM    4  N2  UNL     1      30.537   9.244  49.590  1.00  0.00    -0.268 NA
HETATM    5  C3  UNL     1      31.355   8.302  49.263  1.00  0.00     0.036 C 
HETATM    6  C4  UNL     1      32.018   7.177  49.976  1.00  0.00     0.051 C 
HETATM    7  C5  UNL     1      32.165   5.954  49.381  1.00  0.00     0.137 C 
HETATM    8  O1  UNL     1      31.691   5.551  48.109  1.00  0.00    -0.359 OA
HETATM    9  C6  UNL     1      30.594   6.055  47.306  1.00  0.00     0.211 C 
HETATM   10  C7  UNL     1      30.271   7.449  47.616  1.00  0.00    -0.025 C 
HETATM   11  C8  UNL     1      29.175   8.131  47.975  1.00  0.00     0.053 C 
HETATM   12  C21 UNL     1      31.467   8.430  47.709  1.00  0.00     0.097 C 
ENDROOT
BRANCH  11  13
HETATM   13  N3  UNL     1      28.109   7.291  47.468  1.00  0.00    -0.357 N 
HETATM   14  H6  UNL     1      28.075   7.271  46.416  1.00  0.00     0.166 HD
BRANCH  13  15
HETATM   15  C9  UNL     1      27.132   6.513  48.143  1.00  0.00     0.034 A 
HETATM   16  C10 UNL     1      25.894   7.094  48.354  1.00  0.00     0.032 A 
HETATM   17  C11 UNL     1      24.861   6.419  49.018  1.00  0.00     0.033 A 
HETATM   18  C12 UNL     1      25.080   5.124  49.483  1.00  0.00     0.050 A 
HETATM   19  C19 UNL     1      26.333   4.623  49.232  1.00  0.00     0.062 A 
HETATM   20 CL1  UNL     1      26.632   2.988  49.811  1.00  0.00    -0.082 Cl
HETATM   21  C20 UNL     1      27.389   5.212  48.596  1.00  0.00     0.055 A 
BRANCH  18  22
HETATM   22  N4  UNL     1      24.084   4.377  50.167  1.00  0.00    -0.384 N 
HETATM   23  H9  UNL     1      23.422   3.824  49.598  1.00  0.00     0.160 HD
BRANCH  22  24
HETATM   24  C13 UNL     1      23.998   4.390  51.597  1.00  0.00     0.160 C 
BRANCH  24  25
HETATM   25  C14 UNL     1      23.817   3.035  52.172  1.00  0.00    -0.023 A 
HETATM   26  C15 UNL     1      24.804   2.373  52.831  1.00  0.00     0.012 A 
HETATM   27  C16 UNL     1      24.646   1.099  53.374  1.00  0.00     0.020 A 
HETATM   28  C17 UNL     1      23.386   0.519  53.201  1.00  0.00     0.116 A 
HETATM   29  N5  UNL     1      22.398   1.169  52.546  1.00  0.00    -0.273 NA
HETATM   30  C18 UNL     1      22.586   2.401  52.035  1.00  0.00     0.124 A 
ENDBRANCH  24  25
ENDBRANCH  22  24
ENDBRANCH  18  22
ENDBRANCH  13  15
ENDBRANCH  11  13
TORSDOF 5
ENDMDL
