MODEL 1
REMARK VINA RESULT:      -8.0      0.000      0.000
REMARK  4 active torsions:
REMARK  status: ('A' for Active; 'I' for Inactive)
REMARK    1  A    between atoms: O1_2  and  C2_3 
REMARK    2  A    between atoms: C6_9  and  N3_10 
REMARK    3  A    between atoms: N3_10  and  C7_11 
REMARK    4  A    between atoms: C14_20  and  N4_21 
ROOT
HETATM    1  N4  UNL     1      22.623   1.774  52.094  1.00  0.00    -0.313 N 
HETATM    2  C15 UNL     1      23.086   2.274  50.871  1.00  0.00     0.178 C 
HETATM    3  N5  UNL     1      23.459   2.697  49.848  1.00  0.00    -0.172 NA
HETATM    4  H11 UNL     1      22.525   2.372  52.956  1.00  0.00     0.172 HD
ENDROOT
BRANCH   1   5
HETATM    5  C14 UNL     1      22.276   0.379  52.149  1.00  0.00     0.188 A 
HETATM    6  C2  UNL     1      20.816   0.167  52.299  1.00  0.00     0.076 A 
HETATM    7  C3  UNL     1      20.506  -0.513  53.382  1.00  0.00     0.067 A 
HETATM    8  C4  UNL     1      21.753  -0.810  54.044  1.00  0.00     0.073 A 
HETATM    9  N1  UNL     1      21.986  -1.489  55.201  1.00  0.00    -0.241 NA
HETATM   10  C13 UNL     1      22.827  -0.299  53.348  1.00  0.00     0.046 A 
HETATM   11  C5  UNL     1      23.242  -1.632  55.610  1.00  0.00     0.235 A 
HETATM   12  N2  UNL     1      24.280  -1.133  54.928  1.00  0.00    -0.224 NA
HETATM   13  C6  UNL     1      24.145  -0.457  53.789  1.00  0.00     0.140 A 
BRANCH   6  14
HETATM   14  O1  UNL     1      19.811   0.609  51.429  1.00  0.00    -0.358 OA
HETATM   15  C1  UNL     1      18.522   0.059  51.467  1.00  0.00     0.209 C 
ENDBRANCH   6  14
BRANCH  13  16
HETATM   16  N3  UNL     1      25.173   0.099  53.012  1.00  0.00    -0.340 N 
HETATM   17  H6  UNL     1      24.918   0.718  52.200  1.00  0.00     0.167 HD
BRANCH  16  18
HETATM   18  C7  UNL     1      26.566  -0.074  53.187  1.00  0.00     0.035 A 
HETATM   19  C8  UNL     1      27.308  -1.196  52.895  1.00  0.00     0.032 A 
HETATM   20  C9  UNL     1      28.650  -1.346  53.069  1.00  0.00     0.046 A 
HETATM   21  C10 UNL     1      29.361  -0.288  53.588  1.00  0.00     0.138 A 
HETATM   22  F1  UNL     1      30.694  -0.397  53.777  1.00  0.00    -0.204 F 
HETATM   23  C11 UNL     1      28.704   0.857  53.905  1.00  0.00     0.074 A 
HETATM   24 CL1  UNL     1      29.610   2.196  54.562  1.00  0.00    -0.081 Cl
HETATM   25  C12 UNL     1      27.365   0.942  53.705  1.00  0.00     0.056 A 
ENDBRANCH  16  18
ENDBRANCH  13  16
ENDBRANCH   1   5
TORSDOF 4
ENDMDL
MODEL 2
REMARK VINA RESULT:      -7.9      1.693      3.755
REMARK  4 active torsions:
REMARK  status: ('A' for Active; 'I' for Inactive)
REMARK    1  A    between atoms: O1_2  and  C2_3 
REMARK    2  A    between atoms: C6_9  and  N3_10 
REMARK    3  A    between atoms: N3_10  and  C7_11 
REMARK    4  A    between atoms: C14_20  and  N4_21 
ROOT
HETATM    1  N4  UNL     1      23.483  -0.318  53.339  1.00  0.00    -0.313 N 
HETATM    2  C15 UNL     1      23.038  -0.954  54.505  1.00  0.00     0.178 C 
HETATM    3  N5  UNL     1      22.659  -1.492  55.470  1.00  0.00    -0.172 NA
HETATM    4  H11 UNL     1      24.225  -0.728  52.713  1.00  0.00     0.172 HD
ENDROOT
BRANCH   1   5
HETATM    5  C14 UNL     1      22.886   0.947  53.007  1.00  0.00     0.188 A 
HETATM    6  C2  UNL     1      21.606   0.792  52.274  1.00  0.00     0.076 A 
HETATM    7  C3  UNL     1      21.620   1.370  51.091  1.00  0.00     0.067 A 
HETATM    8  C4  UNL     1      22.928   1.963  50.946  1.00  0.00     0.073 A 
HETATM    9  N1  UNL     1      23.453   2.673  49.911  1.00  0.00    -0.241 NA
HETATM   10  C13 UNL     1      23.710   1.735  52.059  1.00  0.00     0.046 A 
HETATM   11  C5  UNL     1      24.700   3.120  50.016  1.00  0.00     0.235 A 
HETATM   12  N2  UNL     1      25.453   2.895  51.100  1.00  0.00    -0.224 NA
HETATM   13  C6  UNL     1      25.022   2.211  52.157  1.00  0.00     0.140 A 
BRANCH   6  14
HETATM   14  O1  UNL     1      20.462   0.119  52.719  1.00  0.00    -0.358 OA
HETATM   15  C1  UNL     1      19.304   0.054  51.931  1.00  0.00     0.209 C 
ENDBRANCH   6  14
BRANCH  13  16
HETATM   16  N3  UNL     1      25.740   1.930  53.330  1.00  0.00    -0.340 N 
HETATM   17  H6  UNL     1      25.373   2.286  54.249  1.00  0.00     0.167 HD
BRANCH  16  18
HETATM   18  C7  UNL     1      26.944   1.196  53.439  1.00  0.00     0.035 A 
HETATM   19  C8  UNL     1      28.173   1.669  53.843  1.00  0.00     0.032 A 
HETATM   20  C9  UNL     1      29.324   0.949  53.942  1.00  0.00     0.046 A 
HETATM   21  C10 UNL     1      29.286  -0.387  53.612  1.00  0.00     0.138 A 
HETATM   22  F1  UNL     1      30.407  -1.137  53.697  1.00  0.00    -0.204 F 
HETATM   23  C11 UNL     1      28.113  -0.933  53.202  1.00  0.00     0.074 A 
HETATM   24 CL1  UNL     1      28.070  -2.627  52.785  1.00  0.00    -0.081 Cl
HETATM   25  C12 UNL     1      27.001  -0.160  53.126  1.00  0.00     0.056 A 
ENDBRANCH  16  18
ENDBRANCH  13  16
ENDBRANCH   1   5
TORSDOF 4
ENDMDL
MODEL 3
REMARK VINA RESULT:      -7.6      2.354      3.411
REMARK  4 active torsions:
REMARK  status: ('A' for Active; 'I' for Inactive)
REMARK    1  A    between atoms: O1_2  and  C2_3 
REMARK    2  A    between atoms: C6_9  and  N3_10 
REMARK    3  A    between atoms: N3_10  and  C7_11 
REMARK    4  A    between atoms: C14_20  and  N4_21 
ROOT
HETATM    1  N4  UNL     1      24.520   3.975  51.559  1.00  0.00    -0.313 N 
HETATM    2  C15 UNL     1      23.342   4.599  51.987  1.00  0.00     0.178 C 
HETATM    3  N5  UNL     1      22.361   5.115  52.357  1.00  0.00    -0.172 NA
HETATM    4  H11 UNL     1      25.476   4.391  51.715  1.00  0.00     0.172 HD
ENDROOT
BRANCH   1   5
HETATM    5  C14 UNL     1      24.391   2.715  50.879  1.00  0.00     0.188 A 
HETATM    6  C2  UNL     1      23.431   2.779  49.750  1.00  0.00     0.076 A 
HETATM    7  C3  UNL     1      22.435   1.928  49.876  1.00  0.00     0.067 A 
HETATM    8  C4  UNL     1      22.660   1.223  51.114  1.00  0.00     0.073 A 
HETATM    9  N1  UNL     1      21.924   0.241  51.705  1.00  0.00    -0.241 NA
HETATM   10  C13 UNL     1      23.808   1.659  51.740  1.00  0.00     0.046 A 
HETATM   11  C5  UNL     1      22.345  -0.257  52.863  1.00  0.00     0.235 A 
HETATM   12  N2  UNL     1      23.460   0.171  53.465  1.00  0.00    -0.224 NA
HETATM   13  C6  UNL     1      24.240   1.125  52.960  1.00  0.00     0.140 A 
BRANCH   6  14
HETATM   14  O1  UNL     1      23.504   3.624  48.635  1.00  0.00    -0.358 OA
HETATM   15  C1  UNL     1      22.447   4.486  48.307  1.00  0.00     0.209 C 
ENDBRANCH   6  14
BRANCH  13  16
HETATM   16  N3  UNL     1      25.422   1.633  53.520  1.00  0.00    -0.340 N 
HETATM   17  H6  UNL     1      25.396   2.570  53.999  1.00  0.00     0.167 HD
BRANCH  16  18
HETATM   18  C7  UNL     1      26.698   1.022  53.524  1.00  0.00     0.035 A 
HETATM   19  C8  UNL     1      27.907   1.621  53.795  1.00  0.00     0.032 A 
HETATM   20  C9  UNL     1      29.127   1.018  53.795  1.00  0.00     0.046 A 
HETATM   21  C10 UNL     1      29.189  -0.324  53.497  1.00  0.00     0.138 A 
HETATM   22  F1  UNL     1      30.381  -0.961  53.486  1.00  0.00    -0.204 F 
HETATM   23  C11 UNL     1      28.041  -0.992  53.217  1.00  0.00     0.074 A 
HETATM   24 CL1  UNL     1      28.124  -2.694  52.840  1.00  0.00    -0.081 Cl
HETATM   25  C12 UNL     1      26.857  -0.331  53.235  1.00  0.00     0.056 A 
ENDBRANCH  16  18
ENDBRANCH  13  16
ENDBRANCH   1   5
TORSDOF 4
ENDMDL
MODEL 4
REMARK VINA RESULT:      -7.6      4.128      5.800
REMARK  4 active torsions:
REMARK  status: ('A' for Active; 'I' for Inactive)
REMARK    1  A    between atoms: O1_2  and  C2_3 
REMARK    2  A    between atoms: C6_9  and  N3_10 
REMARK    3  A    between atoms: N3_10  and  C7_11 
REMARK    4  A    between atoms: C14_20  and  N4_21 
ROOT
HETATM    1  N4  UNL     1      23.633   1.753  51.655  1.00  0.00    -0.313 N 
HETATM    2  C15 UNL     1      22.608   1.358  50.785  1.00  0.00     0.178 C 
HETATM    3  N5  UNL     1      21.745   1.028  50.070  1.00  0.00    -0.172 NA
HETATM    4  H11 UNL     1      23.710   2.730  52.040  1.00  0.00     0.172 HD
ENDROOT
BRANCH   1   5
HETATM    5  C14 UNL     1      24.608   0.761  52.019  1.00  0.00     0.188 A 
HETATM    6  C2  UNL     1      24.241   0.038  53.261  1.00  0.00     0.076 A 
HETATM    7  C3  UNL     1      25.148   0.154  54.208  1.00  0.00     0.067 A 
HETATM    8  C4  UNL     1      26.203   0.973  53.660  1.00  0.00     0.073 A 
HETATM    9  N1  UNL     1      27.367   1.390  54.229  1.00  0.00    -0.241 NA
HETATM   10  C13 UNL     1      25.923   1.354  52.366  1.00  0.00     0.046 A 
HETATM   11  C5  UNL     1      28.188   2.148  53.510  1.00  0.00     0.235 A 
HETATM   12  N2  UNL     1      27.909   2.515  52.253  1.00  0.00    -0.224 NA
HETATM   13  C6  UNL     1      26.795   2.154  51.619  1.00  0.00     0.140 A 
BRANCH   6  14
HETATM   14  O1  UNL     1      23.077  -0.707  53.483  1.00  0.00    -0.358 OA
HETATM   15  C1  UNL     1      21.999  -0.174  54.205  1.00  0.00     0.209 C 
ENDBRANCH   6  14
BRANCH  13  16
HETATM   16  N3  UNL     1      26.423   2.491  50.308  1.00  0.00    -0.340 N 
HETATM   17  H6  UNL     1      26.238   1.719  49.618  1.00  0.00     0.167 HD
BRANCH  16  18
HETATM   18  C7  UNL     1      26.259   3.790  49.774  1.00  0.00     0.035 A 
HETATM   19  C8  UNL     1      25.125   4.570  49.816  1.00  0.00     0.032 A 
HETATM   20  C9  UNL     1      24.982   5.820  49.297  1.00  0.00     0.046 A 
HETATM   21  C10 UNL     1      26.063   6.386  48.660  1.00  0.00     0.138 A 
HETATM   22  F1  UNL     1      25.963   7.626  48.130  1.00  0.00    -0.204 F 
HETATM   23  C11 UNL     1      27.221   5.684  48.573  1.00  0.00     0.074 A 
HETATM   24 CL1  UNL     1      28.589   6.407  47.765  1.00  0.00    -0.081 Cl
HETATM   25  C12 UNL     1      27.297   4.442  49.114  1.00  0.00     0.056 A 
ENDBRANCH  16  18
ENDBRANCH  13  16
ENDBRANCH   1   5
TORSDOF 4
ENDMDL
MODEL 5
REMARK VINA RESULT:      -7.6      2.403      3.998
REMARK  4 active torsions:
REMARK  status: ('A' for Active; 'I' for Inactive)
REMARK    1  A    between atoms: O1_2  and  C2_3 
REMARK    2  A    between atoms: C6_9  and  N3_10 
REMARK    3  A    between atoms: N3_10  and  C7_11 
REMARK    4  A    between atoms: C14_20  and  N4_21 
ROOT
HETATM    1  N4  UNL     1      24.669   3.821  52.010  1.00  0.00    -0.313 N 
HETATM    2  C15 UNL     1      23.500   4.523  52.331  1.00  0.00     0.178 C 
HETATM    3  N5  UNL     1      22.524   5.102  52.610  1.00  0.00    -0.172 NA
HETATM    4  H11 UNL     1      25.584   3.978  52.508  1.00  0.00     0.172 HD
ENDROOT
BRANCH   1   5
HETATM    5  C14 UNL     1      24.587   2.852  50.951  1.00  0.00     0.188 A 
HETATM    6  C2  UNL     1      24.184   3.461  49.659  1.00  0.00     0.076 A 
HETATM    7  C3  UNL     1      23.080   2.938  49.170  1.00  0.00     0.067 A 
HETATM    8  C4  UNL     1      22.658   1.928  50.110  1.00  0.00     0.073 A 
HETATM    9  N1  UNL     1      21.578   1.100  50.074  1.00  0.00    -0.241 NA
HETATM   10  C13 UNL     1      23.523   1.845  51.180  1.00  0.00     0.046 A 
HETATM   11  C5  UNL     1      21.404   0.243  51.074  1.00  0.00     0.235 A 
HETATM   12  N2  UNL     1      22.247   0.167  52.110  1.00  0.00    -0.224 NA
HETATM   13  C6  UNL     1      23.327   0.938  52.227  1.00  0.00     0.140 A 
BRANCH   6  14
HETATM   14  O1  UNL     1      24.850   4.483  48.971  1.00  0.00    -0.358 OA
HETATM   15  C1  UNL     1      26.190   4.790  49.247  1.00  0.00     0.209 C 
ENDBRANCH   6  14
BRANCH  13  16
HETATM   16  N3  UNL     1      24.262   0.926  53.274  1.00  0.00    -0.340 N 
HETATM   17  H6  UNL     1      24.017   1.404  54.179  1.00  0.00     0.167 HD
BRANCH  16  18
HETATM   18  C7  UNL     1      25.544   0.330  53.268  1.00  0.00     0.035 A 
HETATM   19  C8  UNL     1      25.877  -0.923  52.806  1.00  0.00     0.032 A 
HETATM   20  C9  UNL     1      27.118  -1.483  52.807  1.00  0.00     0.046 A 
HETATM   21  C10 UNL     1      28.163  -0.746  53.316  1.00  0.00     0.138 A 
HETATM   22  F1  UNL     1      29.411  -1.266  53.336  1.00  0.00    -0.204 F 
HETATM   23  C11 UNL     1      27.921   0.501  53.795  1.00  0.00     0.074 A 
HETATM   24 CL1  UNL     1      29.249   1.431  54.439  1.00  0.00    -0.081 Cl
HETATM   25  C12 UNL     1      26.660   1.000  53.763  1.00  0.00     0.056 A 
ENDBRANCH  16  18
ENDBRANCH  13  16
ENDBRANCH   1   5
TORSDOF 4
ENDMDL
MODEL 6
REMARK VINA RESULT:      -7.5      3.907      6.224
REMARK  4 active torsions:
REMARK  status: ('A' for Active; 'I' for Inactive)
REMARK    1  A    between atoms: O1_2  and  C2_3 
REMARK    2  A    between atoms: C6_9  and  N3_10 
REMARK    3  A    between atoms: N3_10  and  C7_11 
REMARK    4  A    between atoms: C14_20  and  N4_21 
ROOT
HETATM    1  N4  UNL     1      26.191   0.865  52.065  1.00  0.00    -0.313 N 
HETATM    2  C15 UNL     1      26.624   2.013  51.390  1.00  0.00     0.178 C 
HETATM    3  N5  UNL     1      26.998   2.968  50.831  1.00  0.00    -0.172 NA
HETATM    4  H11 UNL     1      26.359  -0.109  51.701  1.00  0.00     0.172 HD
ENDROOT
BRANCH   1   5
HETATM    5  C14 UNL     1      25.487   1.054  53.305  1.00  0.00     0.188 A 
HETATM    6  C2  UNL     1      26.208   0.462  54.458  1.00  0.00     0.076 A 
HETATM    7  C3  UNL     1      25.498  -0.446  55.094  1.00  0.00     0.067 A 
HETATM    8  C4  UNL     1      24.234  -0.529  54.403  1.00  0.00     0.073 A 
HETATM    9  N1  UNL     1      23.151  -1.313  54.658  1.00  0.00    -0.241 NA
HETATM   10  C13 UNL     1      24.186   0.343  53.336  1.00  0.00     0.046 A 
HETATM   11  C5  UNL     1      22.089  -1.204  53.866  1.00  0.00     0.235 A 
HETATM   12  N2  UNL     1      22.050  -0.355  52.832  1.00  0.00    -0.224 NA
HETATM   13  C6  UNL     1      23.062   0.449  52.510  1.00  0.00     0.140 A 
BRANCH   6  14
HETATM   14  O1  UNL     1      27.502   0.779  54.890  1.00  0.00    -0.358 OA
HETATM   15  C1  UNL     1      28.581  -0.081  54.641  1.00  0.00     0.209 C 
ENDBRANCH   6  14
BRANCH  13  16
HETATM   16  N3  UNL     1      23.106   1.365  51.449  1.00  0.00    -0.340 N 
HETATM   17  H6  UNL     1      23.545   1.069  50.539  1.00  0.00     0.167 HD
BRANCH  16  18
HETATM   18  C7  UNL     1      22.616   2.692  51.444  1.00  0.00     0.035 A 
HETATM   19  C8  UNL     1      21.302   3.095  51.517  1.00  0.00     0.032 A 
HETATM   20  C9  UNL     1      20.846   4.377  51.511  1.00  0.00     0.046 A 
HETATM   21  C10 UNL     1      21.770   5.395  51.425  1.00  0.00     0.138 A 
HETATM   22  F1  UNL     1      21.359   6.682  51.417  1.00  0.00    -0.204 F 
HETATM   23  C11 UNL     1      23.089   5.084  51.349  1.00  0.00     0.074 A 
HETATM   24 CL1  UNL     1      24.256   6.378  51.240  1.00  0.00    -0.081 Cl
HETATM   25  C12 UNL     1      23.476   3.785  51.360  1.00  0.00     0.056 A 
ENDBRANCH  16  18
ENDBRANCH  13  16
ENDBRANCH   1   5
TORSDOF 4
ENDMDL
MODEL 7
REMARK VINA RESULT:      -7.4      3.276      4.815
REMARK  4 active torsions:
REMARK  status: ('A' for Active; 'I' for Inactive)
REMARK    1  A    between atoms: O1_2  and  C2_3 
REMARK    2  A    between atoms: C6_9  and  N3_10 
REMARK    3  A    between atoms: N3_10  and  C7_11 
REMARK    4  A    between atoms: C14_20  and  N4_21 
ROOT
HETATM    1  N4  UNL     1      22.498   1.100  53.367  1.00  0.00    -0.313 N 
HETATM    2  C15 UNL     1      21.398   1.177  52.504  1.00  0.00     0.178 C 
HETATM    3  N5  UNL     1      20.472   1.240  51.794  1.00  0.00    -0.172 NA
HETATM    4  H11 UNL     1      22.809   1.906  53.970  1.00  0.00     0.172 HD
ENDROOT
BRANCH   1   5
HETATM    5  C14 UNL     1      23.217  -0.145  53.412  1.00  0.00     0.188 A 
HETATM    6  C2  UNL     1      22.955  -0.903  54.659  1.00  0.00     0.076 A 
HETATM    7  C3  UNL     1      24.048  -1.144  55.351  1.00  0.00     0.067 A 
HETATM    8  C4  UNL     1      25.135  -0.556  54.607  1.00  0.00     0.073 A 
HETATM    9  N1  UNL     1      26.467  -0.524  54.889  1.00  0.00    -0.241 NA
HETATM   10  C13 UNL     1      24.687   0.047  53.452  1.00  0.00     0.046 A 
HETATM   11  C5  UNL     1      27.281   0.088  54.034  1.00  0.00     0.235 A 
HETATM   12  N2  UNL     1      26.838   0.671  52.914  1.00  0.00    -0.224 NA
HETATM   13  C6  UNL     1      25.554   0.687  52.560  1.00  0.00     0.140 A 
BRANCH   6  14
HETATM   14  O1  UNL     1      21.711  -1.351  55.121  1.00  0.00    -0.358 OA
HETATM   15  C1  UNL     1      20.764  -1.898  54.243  1.00  0.00     0.209 C 
ENDBRANCH   6  14
BRANCH  13  16
HETATM   16  N3  UNL     1      25.004   1.272  51.409  1.00  0.00    -0.340 N 
HETATM   17  H6  UNL     1      24.437   0.673  50.756  1.00  0.00     0.167 HD
BRANCH  16  18
HETATM   18  C7  UNL     1      25.119   2.621  50.997  1.00  0.00     0.035 A 
HETATM   19  C8  UNL     1      24.301   3.671  51.348  1.00  0.00     0.032 A 
HETATM   20  C9  UNL     1      24.425   4.964  50.943  1.00  0.00     0.046 A 
HETATM   21  C10 UNL     1      25.462   5.283  50.096  1.00  0.00     0.138 A 
HETATM   22  F1  UNL     1      25.621   6.556  49.670  1.00  0.00    -0.204 F 
HETATM   23  C11 UNL     1      26.316   4.305  49.700  1.00  0.00     0.074 A 
HETATM   24 CL1  UNL     1      27.630   4.715  48.626  1.00  0.00    -0.081 Cl
HETATM   25  C12 UNL     1      26.137   3.035  50.142  1.00  0.00     0.056 A 
ENDBRANCH  16  18
ENDBRANCH  13  16
ENDBRANCH   1   5
TORSDOF 4
ENDMDL
MODEL 8
REMARK VINA RESULT:      -7.3      4.453      5.839
REMARK  4 active torsions:
REMARK  status: ('A' for Active; 'I' for Inactive)
REMARK    1  A    between atoms: O1_2  and  C2_3 
REMARK    2  A    between atoms: C6_9  and  N3_10 
REMARK    3  A    between atoms: N3_10  and  C7_11 
REMARK    4  A    between atoms: C14_20  and  N4_21 
ROOT
HETATM    1  N4  UNL     1      23.270   3.116  50.629  1.00  0.00    -0.313 N 
HETATM    2  C15 UNL     1      22.953   3.994  51.674  1.00  0.00     0.178 C 
HETATM    3  N5  UNL     1      22.699   4.733  52.542  1.00  0.00    -0.172 NA
HETATM    4  H11 UNL     1      23.098   3.349  49.616  1.00  0.00     0.172 HD
ENDROOT
BRANCH   1   5
HETATM    5  C14 UNL     1      23.852   1.851  50.984  1.00  0.00     0.188 A 
HETATM    6  C2  UNL     1      23.102   1.168  52.067  1.00  0.00     0.076 A 
HETATM    7  C3  UNL     1      23.842   0.924  53.127  1.00  0.00     0.067 A 
HETATM    8  C4  UNL     1      25.159   1.433  52.827  1.00  0.00     0.073 A 
HETATM    9  N1  UNL     1      26.288   1.432  53.588  1.00  0.00    -0.241 NA
HETATM   10  C13 UNL     1      25.208   1.990  51.568  1.00  0.00     0.046 A 
HETATM   11  C5  UNL     1      27.394   1.968  53.082  1.00  0.00     0.235 A 
HETATM   12  N2  UNL     1      27.434   2.508  51.858  1.00  0.00    -0.224 NA
HETATM   13  C6  UNL     1      26.379   2.552  51.047  1.00  0.00     0.140 A 
BRANCH   6  14
HETATM   14  O1  UNL     1      21.754   0.789  52.042  1.00  0.00    -0.358 OA
HETATM   15  C1  UNL     1      21.266  -0.216  52.888  1.00  0.00     0.209 C 
ENDBRANCH   6  14
BRANCH  13  16
HETATM   16  N3  UNL     1      26.332   3.096  49.754  1.00  0.00    -0.340 N 
HETATM   17  H6  UNL     1      26.058   2.474  48.951  1.00  0.00     0.167 HD
BRANCH  16  18
HETATM   18  C7  UNL     1      26.617   4.429  49.376  1.00  0.00     0.035 A 
HETATM   19  C8  UNL     1      27.676   4.870  48.616  1.00  0.00     0.032 A 
HETATM   20  C9  UNL     1      27.936   6.158  48.261  1.00  0.00     0.046 A 
HETATM   21  C10 UNL     1      27.072   7.139  48.692  1.00  0.00     0.138 A 
HETATM   22  F1  UNL     1      27.295   8.430  48.362  1.00  0.00    -0.204 F 
HETATM   23  C11 UNL     1      26.001   6.789  49.449  1.00  0.00     0.074 A 
HETATM   24 CL1  UNL     1      24.908   8.036  49.993  1.00  0.00    -0.081 Cl
HETATM   25  C12 UNL     1      25.798   5.486  49.767  1.00  0.00     0.056 A 
ENDBRANCH  16  18
ENDBRANCH  13  16
ENDBRANCH   1   5
TORSDOF 4
ENDMDL
MODEL 9
REMARK VINA RESULT:      -7.3      2.934      4.609
REMARK  4 active torsions:
REMARK  status: ('A' for Active; 'I' for Inactive)
REMARK    1  A    between atoms: O1_2  and  C2_3 
REMARK    2  A    between atoms: C6_9  and  N3_10 
REMARK    3  A    between atoms: N3_10  and  C7_11 
REMARK    4  A    between atoms: C14_20  and  N4_21 
ROOT
HETATM    1  N4  UNL     1      23.045   2.435  52.338  1.00  0.00    -0.313 N 
HETATM    2  C15 UNL     1      22.614   1.718  51.215  1.00  0.00     0.178 C 
HETATM    3  N5  UNL     1      22.266   1.112  50.279  1.00  0.00    -0.172 NA
HETATM    4  H11 UNL     1      22.955   2.066  53.321  1.00  0.00     0.172 HD
ENDROOT
BRANCH   1   5
HETATM    5  C14 UNL     1      23.630   3.729  52.111  1.00  0.00     0.188 A 
HETATM    6  C2  UNL     1      22.741   4.620  51.326  1.00  0.00     0.076 A 
HETATM    7  C3  UNL     1      23.294   5.036  50.206  1.00  0.00     0.067 A 
HETATM    8  C4  UNL     1      24.610   4.446  50.161  1.00  0.00     0.073 A 
HETATM    9  N1  UNL     1      25.584   4.559  49.216  1.00  0.00    -0.241 NA
HETATM   10  C13 UNL     1      24.849   3.664  51.270  1.00  0.00     0.046 A 
HETATM   11  C5  UNL     1      26.727   3.909  49.404  1.00  0.00     0.235 A 
HETATM   12  N2  UNL     1      26.953   3.151  50.484  1.00  0.00    -0.224 NA
HETATM   13  C6  UNL     1      26.058   2.985  51.456  1.00  0.00     0.140 A 
BRANCH   6  14
HETATM   14  O1  UNL     1      21.444   5.022  51.667  1.00  0.00    -0.358 OA
HETATM   15  C1  UNL     1      20.320   4.341  51.179  1.00  0.00     0.209 C 
ENDBRANCH   6  14
BRANCH  13  16
HETATM   16  N3  UNL     1      26.210   2.213  52.618  1.00  0.00    -0.340 N 
HETATM   17  H6  UNL     1      25.933   2.628  53.545  1.00  0.00     0.167 HD
BRANCH  16  18
HETATM   18  C7  UNL     1      26.707   0.892  52.708  1.00  0.00     0.035 A 
HETATM   19  C8  UNL     1      26.029  -0.274  52.432  1.00  0.00     0.032 A 
HETATM   20  C9  UNL     1      26.523  -1.539  52.523  1.00  0.00     0.046 A 
HETATM   21  C10 UNL     1      27.828  -1.699  52.930  1.00  0.00     0.138 A 
HETATM   22  F1  UNL     1      28.357  -2.939  53.034  1.00  0.00    -0.204 F 
HETATM   23  C11 UNL     1      28.568  -0.600  53.224  1.00  0.00     0.074 A 
HETATM   24 CL1  UNL     1      30.222  -0.809  53.740  1.00  0.00    -0.081 Cl
HETATM   25  C12 UNL     1      28.015   0.633  53.111  1.00  0.00     0.056 A 
ENDBRANCH  16  18
ENDBRANCH  13  16
ENDBRANCH   1   5
TORSDOF 4
ENDMDL
