MODEL 1
REMARK VINA RESULT:      -7.7      0.000      0.000
REMARK  7 active torsions:
REMARK  status: ('A' for Active; 'I' for Inactive)
REMARK    1  A    between atoms: C2_2  and  N1_3 
REMARK    2  A    between atoms: N1_3  and  C4_5 
REMARK    3  A    between atoms: C4_5  and  C5_6 
REMARK    4  A    between atoms: C5_6  and  O1_7 
REMARK    5  A    between atoms: O1_7  and  C6_8 
REMARK    6  A    between atoms: C9_11  and  N2_12 
REMARK    7  A    between atoms: N2_12  and  C10_13 
ROOT
HETATM    1  C6  UNL     1      21.898  -0.953  53.978  1.00  0.00     0.165 A 
HETATM    2  C7  UNL     1      22.866  -0.180  53.374  1.00  0.00     0.074 A 
HETATM    3  C8  UNL     1      24.165  -0.053  53.824  1.00  0.00     0.026 A 
HETATM    4  C9  UNL     1      25.116   0.731  53.196  1.00  0.00     0.068 A 
HETATM    5  C16 UNL     1      26.366   0.743  53.778  1.00  0.00     0.089 A 
HETATM    6  C17 UNL     1      27.346   1.572  53.103  1.00  0.00     0.103 C 
HETATM    7  N3  UNL     1      28.133   2.248  52.544  1.00  0.00    -0.191 NA
HETATM    8  C18 UNL     1      26.708   0.053  54.897  1.00  0.00     0.142 A 
HETATM    9  N4  UNL     1      25.756  -0.697  55.478  1.00  0.00    -0.257 NA
HETATM   10  C19 UNL     1      24.513  -0.766  54.977  1.00  0.00     0.086 A 
HETATM   11  C20 UNL     1      23.540  -1.531  55.567  1.00  0.00     0.152 A 
HETATM   12  N5  UNL     1      22.301  -1.611  55.082  1.00  0.00    -0.235 NA
ENDROOT
BRANCH   4  13
HETATM   13  N2  UNL     1      24.750   1.449  52.032  1.00  0.00    -0.354 N 
HETATM   14  H14 UNL     1      24.974   0.688  51.359  1.00  0.00     0.166 HD
BRANCH  13  15
HETATM   15  C10 UNL     1      24.245   2.739  51.724  1.00  0.00     0.033 A 
HETATM   16  C11 UNL     1      23.893   3.479  52.825  1.00  0.00     0.029 A 
HETATM   17  C12 UNL     1      23.388   4.747  52.637  1.00  0.00     0.004 A 
HETATM   18  C13 UNL     1      23.258   5.215  51.344  1.00  0.00     0.019 A 
HETATM   19  C14 UNL     1      23.629   4.428  50.251  1.00  0.00     0.013 A 
HETATM   20 BR1  UNL     1      23.412   5.164  48.491  1.00  0.00    -0.051 Br
HETATM   21  C15 UNL     1      24.142   3.142  50.428  1.00  0.00     0.048 A 
ENDBRANCH  13  15
ENDBRANCH   4  13
BRANCH   1  22
HETATM   22  O1  UNL     1      20.676  -0.912  53.333  1.00  0.00    -0.333 OA
BRANCH  22  23
HETATM   23  C5  UNL     1      19.960   0.281  53.080  1.00  0.00     0.207 C 
BRANCH  23  24
HETATM   24  C4  UNL     1      19.506   0.265  51.658  1.00  0.00     0.298 C 
BRANCH  24  25
HETATM   25  N1  UNL     1      20.166   1.227  50.801  1.00  0.00     0.085 N 
HETATM   26  C3  UNL     1      20.479   2.391  51.607  1.00  0.00     0.310 C 
BRANCH  25  27
HETATM   27  C2  UNL     1      21.340   0.687  50.146  1.00  0.00     0.267 C 
HETATM   28  C1  UNL     1      21.442   1.223  48.751  1.00  0.00     0.037 C 
ENDBRANCH  25  27
ENDBRANCH  24  25
ENDBRANCH  23  24
ENDBRANCH  22  23
ENDBRANCH   1  22
TORSDOF 7
ENDMDL
MODEL 2
REMARK VINA RESULT:      -7.6      2.400      5.555
REMARK  7 active torsions:
REMARK  status: ('A' for Active; 'I' for Inactive)
REMARK    1  A    between atoms: C2_2  and  N1_3 
REMARK    2  A    between atoms: N1_3  and  C4_5 
REMARK    3  A    between atoms: C4_5  and  C5_6 
REMARK    4  A    between atoms: C5_6  and  O1_7 
REMARK    5  A    between atoms: O1_7  and  C6_8 
REMARK    6  A    between atoms: C9_11  and  N2_12 
REMARK    7  A    between atoms: N2_12  and  C10_13 
ROOT
HETATM    1  C6  UNL     1      24.268  -0.056  53.580  1.00  0.00     0.165 A 
HETATM    2  C7  UNL     1      24.172   1.228  53.091  1.00  0.00     0.074 A 
HETATM    3  C8  UNL     1      22.987   1.866  52.781  1.00  0.00     0.026 A 
HETATM    4  C9  UNL     1      22.921   3.157  52.290  1.00  0.00     0.068 A 
HETATM    5  C16 UNL     1      21.655   3.641  52.035  1.00  0.00     0.089 A 
HETATM    6  C17 UNL     1      21.611   4.996  51.521  1.00  0.00     0.103 C 
HETATM    7  N3  UNL     1      21.590   6.099  51.105  1.00  0.00    -0.191 NA
HETATM    8  C18 UNL     1      20.505   2.946  52.231  1.00  0.00     0.142 A 
HETATM    9  N4  UNL     1      20.610   1.694  52.709  1.00  0.00    -0.257 NA
HETATM   10  C19 UNL     1      21.804   1.146  52.985  1.00  0.00     0.086 A 
HETATM   11  C20 UNL     1      21.914  -0.131  53.473  1.00  0.00     0.152 A 
HETATM   12  N5  UNL     1      23.092  -0.690  53.751  1.00  0.00    -0.235 NA
ENDROOT
BRANCH   4  13
HETATM   13  N2  UNL     1      24.126   3.873  52.086  1.00  0.00    -0.354 N 
HETATM   14  H14 UNL     1      24.215   4.218  53.063  1.00  0.00     0.166 HD
BRANCH  13  15
HETATM   15  C10 UNL     1      25.013   4.126  51.007  1.00  0.00     0.033 A 
HETATM   16  C11 UNL     1      25.802   3.056  50.669  1.00  0.00     0.029 A 
HETATM   17  C12 UNL     1      26.702   3.196  49.636  1.00  0.00     0.004 A 
HETATM   18  C13 UNL     1      26.769   4.414  48.987  1.00  0.00     0.019 A 
HETATM   19  C14 UNL     1      25.946   5.479  49.364  1.00  0.00     0.013 A 
HETATM   20 BR1  UNL     1      26.111   7.133  48.403  1.00  0.00    -0.051 Br
HETATM   21  C15 UNL     1      25.030   5.349  50.409  1.00  0.00     0.048 A 
ENDBRANCH  13  15
ENDBRANCH   4  13
BRANCH   1  22
HETATM   22  O1  UNL     1      25.569  -0.464  53.810  1.00  0.00    -0.333 OA
BRANCH  22  23
HETATM   23  C5  UNL     1      26.431  -0.948  52.800  1.00  0.00     0.207 C 
BRANCH  23  24
HETATM   24  C4  UNL     1      27.622  -0.052  52.728  1.00  0.00     0.298 C 
BRANCH  24  25
HETATM   25  N1  UNL     1      28.500  -0.117  53.877  1.00  0.00     0.085 N 
HETATM   26  C3  UNL     1      29.560  -1.057  53.566  1.00  0.00     0.310 C 
BRANCH  25  27
HETATM   27  C2  UNL     1      29.018   1.179  54.265  1.00  0.00     0.267 C 
HETATM   28  C1  UNL     1      28.321   2.262  53.498  1.00  0.00     0.037 C 
ENDBRANCH  25  27
ENDBRANCH  24  25
ENDBRANCH  23  24
ENDBRANCH  22  23
ENDBRANCH   1  22
TORSDOF 7
ENDMDL
MODEL 3
REMARK VINA RESULT:      -7.5      1.911      5.469
REMARK  7 active torsions:
REMARK  status: ('A' for Active; 'I' for Inactive)
REMARK    1  A    between atoms: C2_2  and  N1_3 
REMARK    2  A    between atoms: N1_3  and  C4_5 
REMARK    3  A    between atoms: C4_5  and  C5_6 
REMARK    4  A    between atoms: C5_6  and  O1_7 
REMARK    5  A    between atoms: O1_7  and  C6_8 
REMARK    6  A    between atoms: C9_11  and  N2_12 
REMARK    7  A    between atoms: N2_12  and  C10_13 
ROOT
HETATM    1  C6  UNL     1      24.107  -0.793  54.527  1.00  0.00     0.165 A 
HETATM    2  C7  UNL     1      23.611  -0.130  53.425  1.00  0.00     0.074 A 
HETATM    3  C8  UNL     1      22.278  -0.090  53.065  1.00  0.00     0.026 A 
HETATM    4  C9  UNL     1      21.810   0.584  51.951  1.00  0.00     0.068 A 
HETATM    5  C16 UNL     1      20.448   0.522  51.739  1.00  0.00     0.089 A 
HETATM    6  C17 UNL     1      19.980   1.235  50.566  1.00  0.00     0.103 C 
HETATM    7  N3  UNL     1      19.613   1.821  49.612  1.00  0.00    -0.191 NA
HETATM    8  C18 UNL     1      19.569  -0.142  52.532  1.00  0.00     0.142 A 
HETATM    9  N4  UNL     1      20.062  -0.785  53.604  1.00  0.00    -0.257 NA
HETATM   10  C19 UNL     1      21.375  -0.775  53.885  1.00  0.00     0.086 A 
HETATM   11  C20 UNL     1      21.882  -1.430  54.978  1.00  0.00     0.152 A 
HETATM   12  N5  UNL     1      23.183  -1.431  55.271  1.00  0.00    -0.235 NA
ENDROOT
BRANCH   4  13
HETATM   13  N2  UNL     1      22.734   1.271  51.129  1.00  0.00    -0.354 N 
HETATM   14  H14 UNL     1      22.919   0.476  50.483  1.00  0.00     0.166 HD
BRANCH  13  15
HETATM   15  C10 UNL     1      23.307   2.568  51.069  1.00  0.00     0.033 A 
HETATM   16  C11 UNL     1      22.663   3.500  51.844  1.00  0.00     0.029 A 
HETATM   17  C12 UNL     1      23.137   4.794  51.856  1.00  0.00     0.004 A 
HETATM   18  C13 UNL     1      24.242   5.093  51.084  1.00  0.00     0.019 A 
HETATM   19  C14 UNL     1      24.869   4.113  50.309  1.00  0.00     0.013 A 
HETATM   20 BR1  UNL     1      26.399   4.624  49.268  1.00  0.00    -0.051 Br
HETATM   21  C15 UNL     1      24.399   2.799  50.288  1.00  0.00     0.048 A 
ENDBRANCH  13  15
ENDBRANCH   4  13
BRANCH   1  22
HETATM   22  O1  UNL     1      25.477  -0.680  54.669  1.00  0.00    -0.333 OA
BRANCH  22  23
HETATM   23  C5  UNL     1      26.210   0.481  54.332  1.00  0.00     0.207 C 
BRANCH  23  24
HETATM   24  C4  UNL     1      27.636   0.266  54.716  1.00  0.00     0.298 C 
BRANCH  24  25
HETATM   25  N1  UNL     1      28.597   0.596  53.686  1.00  0.00     0.085 N 
HETATM   26  C3  UNL     1      28.966   1.988  53.859  1.00  0.00     0.310 C 
BRANCH  25  27
HETATM   27  C2  UNL     1      29.752  -0.278  53.692  1.00  0.00     0.267 C 
HETATM   28  C1  UNL     1      29.344  -1.672  53.324  1.00  0.00     0.037 C 
ENDBRANCH  25  27
ENDBRANCH  24  25
ENDBRANCH  23  24
ENDBRANCH  22  23
ENDBRANCH   1  22
TORSDOF 7
ENDMDL
MODEL 4
REMARK VINA RESULT:      -7.4      2.687      5.254
REMARK  7 active torsions:
REMARK  status: ('A' for Active; 'I' for Inactive)
REMARK    1  A    between atoms: C2_2  and  N1_3 
REMARK    2  A    between atoms: N1_3  and  C4_5 
REMARK    3  A    between atoms: C4_5  and  C5_6 
REMARK    4  A    between atoms: C5_6  and  O1_7 
REMARK    5  A    between atoms: O1_7  and  C6_8 
REMARK    6  A    between atoms: C9_11  and  N2_12 
REMARK    7  A    between atoms: N2_12  and  C10_13 
ROOT
HETATM    1  C6  UNL     1      26.976   2.007  51.938  1.00  0.00     0.165 A 
HETATM    2  C7  UNL     1      25.717   1.491  52.153  1.00  0.00     0.074 A 
HETATM    3  C8  UNL     1      25.377   0.650  53.195  1.00  0.00     0.026 A 
HETATM    4  C9  UNL     1      24.103   0.148  53.385  1.00  0.00     0.068 A 
HETATM    5  C16 UNL     1      23.938  -0.678  54.477  1.00  0.00     0.089 A 
HETATM    6  C17 UNL     1      22.594  -1.193  54.656  1.00  0.00     0.103 C 
HETATM    7  N3  UNL     1      21.498  -1.603  54.790  1.00  0.00    -0.191 NA
HETATM    8  C18 UNL     1      24.922  -1.016  55.349  1.00  0.00     0.142 A 
HETATM    9  N4  UNL     1      26.147  -0.508  55.131  1.00  0.00    -0.257 NA
HETATM   10  C19 UNL     1      26.395   0.305  54.091  1.00  0.00     0.086 A 
HETATM   11  C20 UNL     1      27.643   0.825  53.866  1.00  0.00     0.152 A 
HETATM   12  N5  UNL     1      27.906   1.633  52.838  1.00  0.00    -0.235 NA
ENDROOT
BRANCH   4  13
HETATM   13  N2  UNL     1      23.084   0.504  52.469  1.00  0.00    -0.354 N 
HETATM   14  H14 UNL     1      23.204  -0.321  51.845  1.00  0.00     0.166 HD
BRANCH  13  15
HETATM   15  C10 UNL     1      22.151   1.562  52.314  1.00  0.00     0.033 A 
HETATM   16  C11 UNL     1      20.845   1.190  52.512  1.00  0.00     0.029 A 
HETATM   17  C12 UNL     1      19.857   2.141  52.382  1.00  0.00     0.004 A 
HETATM   18  C13 UNL     1      20.230   3.431  52.056  1.00  0.00     0.019 A 
HETATM   19  C14 UNL     1      21.572   3.767  51.862  1.00  0.00     0.013 A 
HETATM   20 BR1  UNL     1      21.993   5.586  51.410  1.00  0.00    -0.051 Br
HETATM   21  C15 UNL     1      22.582   2.813  51.991  1.00  0.00     0.048 A 
ENDBRANCH  13  15
ENDBRANCH   4  13
BRANCH   1  22
HETATM   22  O1  UNL     1      27.056   2.824  50.826  1.00  0.00    -0.333 OA
BRANCH  22  23
HETATM   23  C5  UNL     1      25.951   3.146  50.005  1.00  0.00     0.207 C 
BRANCH  23  24
HETATM   24  C4  UNL     1      25.738   4.622  50.059  1.00  0.00     0.298 C 
BRANCH  24  25
HETATM   25  N1  UNL     1      26.261   5.352  48.924  1.00  0.00     0.085 N 
HETATM   26  C3  UNL     1      26.147   6.767  49.221  1.00  0.00     0.310 C 
BRANCH  25  27
HETATM   27  C2  UNL     1      27.618   4.974  48.587  1.00  0.00     0.267 C 
HETATM   28  C1  UNL     1      28.402   6.183  48.176  1.00  0.00     0.037 C 
ENDBRANCH  25  27
ENDBRANCH  24  25
ENDBRANCH  23  24
ENDBRANCH  22  23
ENDBRANCH   1  22
TORSDOF 7
ENDMDL
MODEL 5
REMARK VINA RESULT:      -7.4      2.510      4.809
REMARK  7 active torsions:
REMARK  status: ('A' for Active; 'I' for Inactive)
REMARK    1  A    between atoms: C2_2  and  N1_3 
REMARK    2  A    between atoms: N1_3  and  C4_5 
REMARK    3  A    between atoms: C4_5  and  C5_6 
REMARK    4  A    between atoms: C5_6  and  O1_7 
REMARK    5  A    between atoms: O1_7  and  C6_8 
REMARK    6  A    between atoms: C9_11  and  N2_12 
REMARK    7  A    between atoms: N2_12  and  C10_13 
ROOT
HETATM    1  C6  UNL     1      27.014   1.852  52.415  1.00  0.00     0.165 A 
HETATM    2  C7  UNL     1      25.737   1.337  52.467  1.00  0.00     0.074 A 
HETATM    3  C8  UNL     1      25.267   0.496  53.456  1.00  0.00     0.026 A 
HETATM    4  C9  UNL     1      23.978  -0.006  53.481  1.00  0.00     0.068 A 
HETATM    5  C16 UNL     1      23.674  -0.833  54.542  1.00  0.00     0.089 A 
HETATM    6  C17 UNL     1      22.319  -1.347  54.547  1.00  0.00     0.103 C 
HETATM    7  N3  UNL     1      21.214  -1.756  54.539  1.00  0.00    -0.191 NA
HETATM    8  C18 UNL     1      24.538  -1.172  55.533  1.00  0.00     0.142 A 
HETATM    9  N4  UNL     1      25.782  -0.664  55.474  1.00  0.00    -0.257 NA
HETATM   10  C19 UNL     1      26.161   0.149  54.475  1.00  0.00     0.086 A 
HETATM   11  C20 UNL     1      27.428   0.669  54.412  1.00  0.00     0.152 A 
HETATM   12  N5  UNL     1      27.820   1.477  53.427  1.00  0.00    -0.235 NA
ENDROOT
BRANCH   4  13
HETATM   13  N2  UNL     1      23.086   0.351  52.442  1.00  0.00    -0.354 N 
HETATM   14  H14 UNL     1      23.484  -0.293  51.728  1.00  0.00     0.166 HD
BRANCH  13  15
HETATM   15  C10 UNL     1      21.993   1.241  52.272  1.00  0.00     0.033 A 
HETATM   16  C11 UNL     1      22.310   2.560  52.476  1.00  0.00     0.029 A 
HETATM   17  C12 UNL     1      21.319   3.508  52.340  1.00  0.00     0.004 A 
HETATM   18  C13 UNL     1      20.048   3.083  52.004  1.00  0.00     0.019 A 
HETATM   19  C14 UNL     1      19.769   1.729  51.805  1.00  0.00     0.013 A 
HETATM   20 BR1  UNL     1      17.972   1.234  51.342  1.00  0.00    -0.051 Br
HETATM   21  C15 UNL     1      20.763   0.759  51.940  1.00  0.00     0.048 A 
ENDBRANCH  13  15
ENDBRANCH   4  13
BRANCH   1  22
HETATM   22  O1  UNL     1      27.237   2.670  51.324  1.00  0.00    -0.333 OA
BRANCH  22  23
HETATM   23  C5  UNL     1      26.374   2.741  50.205  1.00  0.00     0.207 C 
BRANCH  23  24
HETATM   24  C4  UNL     1      25.879   4.143  50.080  1.00  0.00     0.298 C 
BRANCH  24  25
HETATM   25  N1  UNL     1      24.450   4.298  50.244  1.00  0.00     0.085 N 
HETATM   26  C3  UNL     1      24.220   5.551  50.938  1.00  0.00     0.310 C 
BRANCH  25  27
HETATM   27  C2  UNL     1      23.728   4.230  48.990  1.00  0.00     0.267 C 
HETATM   28  C1  UNL     1      23.005   2.923  48.883  1.00  0.00     0.037 C 
ENDBRANCH  25  27
ENDBRANCH  24  25
ENDBRANCH  23  24
ENDBRANCH  22  23
ENDBRANCH   1  22
TORSDOF 7
ENDMDL
MODEL 6
REMARK VINA RESULT:      -7.3      2.298      5.094
REMARK  7 active torsions:
REMARK  status: ('A' for Active; 'I' for Inactive)
REMARK    1  A    between atoms: C2_2  and  N1_3 
REMARK    2  A    between atoms: N1_3  and  C4_5 
REMARK    3  A    between atoms: C4_5  and  C5_6 
REMARK    4  A    between atoms: C5_6  and  O1_7 
REMARK    5  A    between atoms: O1_7  and  C6_8 
REMARK    6  A    between atoms: C9_11  and  N2_12 
REMARK    7  A    between atoms: N2_12  and  C10_13 
ROOT
HETATM    1  C6  UNL     1      26.901   2.196  51.801  1.00  0.00     0.165 A 
HETATM    2  C7  UNL     1      25.616   1.853  52.161  1.00  0.00     0.074 A 
HETATM    3  C8  UNL     1      25.289   0.844  53.046  1.00  0.00     0.026 A 
HETATM    4  C9  UNL     1      23.989   0.522  53.389  1.00  0.00     0.068 A 
HETATM    5  C16 UNL     1      23.842  -0.513  54.289  1.00  0.00     0.089 A 
HETATM    6  C17 UNL     1      22.470  -0.833  54.633  1.00  0.00     0.103 C 
HETATM    7  N3  UNL     1      21.350  -1.081  54.904  1.00  0.00    -0.191 NA
HETATM    8  C18 UNL     1      24.866  -1.213  54.840  1.00  0.00     0.142 A 
HETATM    9  N4  UNL     1      26.116  -0.870  54.482  1.00  0.00    -0.257 NA
HETATM   10  C19 UNL     1      26.349   0.126  53.613  1.00  0.00     0.086 A 
HETATM   11  C20 UNL     1      27.622   0.478  53.245  1.00  0.00     0.152 A 
HETATM   12  N5  UNL     1      27.870   1.464  52.383  1.00  0.00    -0.235 NA
ENDROOT
BRANCH   4  13
HETATM   13  N2  UNL     1      22.927   1.255  52.806  1.00  0.00    -0.354 N 
HETATM   14  H14 UNL     1      22.815   1.929  53.591  1.00  0.00     0.166 HD
BRANCH  13  15
HETATM   15  C10 UNL     1      22.176   1.215  51.602  1.00  0.00     0.033 A 
HETATM   16  C11 UNL     1      20.933   0.648  51.737  1.00  0.00     0.029 A 
HETATM   17  C12 UNL     1      20.123   0.557  50.627  1.00  0.00     0.004 A 
HETATM   18  C13 UNL     1      20.602   1.041  49.425  1.00  0.00     0.019 A 
HETATM   19  C14 UNL     1      21.874   1.611  49.332  1.00  0.00     0.013 A 
HETATM   20 BR1  UNL     1      22.454   2.257  47.619  1.00  0.00    -0.051 Br
HETATM   21  C15 UNL     1      22.705   1.710  50.449  1.00  0.00     0.048 A 
ENDBRANCH  13  15
ENDBRANCH   4  13
BRANCH   1  22
HETATM   22  O1  UNL     1      26.961   3.241  50.899  1.00  0.00    -0.333 OA
BRANCH  22  23
HETATM   23  C5  UNL     1      26.192   3.303  49.714  1.00  0.00     0.207 C 
BRANCH  23  24
HETATM   24  C4  UNL     1      25.999   4.738  49.353  1.00  0.00     0.298 C 
BRANCH  24  25
HETATM   25  N1  UNL     1      25.332   5.533  50.362  1.00  0.00     0.085 N 
HETATM   26  C3  UNL     1      25.558   6.929  50.041  1.00  0.00     0.310 C 
BRANCH  25  27
HETATM   27  C2  UNL     1      23.922   5.224  50.482  1.00  0.00     0.267 C 
HETATM   28  C1  UNL     1      23.565   5.002  51.921  1.00  0.00     0.037 C 
ENDBRANCH  25  27
ENDBRANCH  24  25
ENDBRANCH  23  24
ENDBRANCH  22  23
ENDBRANCH   1  22
TORSDOF 7
ENDMDL
MODEL 7
REMARK VINA RESULT:      -6.9      1.594      2.089
REMARK  7 active torsions:
REMARK  status: ('A' for Active; 'I' for Inactive)
REMARK    1  A    between atoms: C2_2  and  N1_3 
REMARK    2  A    between atoms: N1_3  and  C4_5 
REMARK    3  A    between atoms: C4_5  and  C5_6 
REMARK    4  A    between atoms: C5_6  and  O1_7 
REMARK    5  A    between atoms: O1_7  and  C6_8 
REMARK    6  A    between atoms: C9_11  and  N2_12 
REMARK    7  A    between atoms: N2_12  and  C10_13 
ROOT
HETATM    1  C6  UNL     1      21.326   1.015  52.949  1.00  0.00     0.165 A 
HETATM    2  C7  UNL     1      22.522   1.685  52.813  1.00  0.00     0.074 A 
HETATM    3  C8  UNL     1      23.768   1.109  52.959  1.00  0.00     0.026 A 
HETATM    4  C9  UNL     1      24.953   1.808  52.817  1.00  0.00     0.068 A 
HETATM    5  C16 UNL     1      26.109   1.077  52.995  1.00  0.00     0.089 A 
HETATM    6  C17 UNL     1      27.338   1.831  52.842  1.00  0.00     0.103 C 
HETATM    7  N3  UNL     1      28.329   2.455  52.712  1.00  0.00    -0.191 NA
HETATM    8  C18 UNL     1      26.151  -0.247  53.293  1.00  0.00     0.142 A 
HETATM    9  N4  UNL     1      24.979  -0.892  53.423  1.00  0.00    -0.257 NA
HETATM   10  C19 UNL     1      23.807  -0.256  53.266  1.00  0.00     0.086 A 
HETATM   11  C20 UNL     1      22.609  -0.911  53.398  1.00  0.00     0.152 A 
HETATM   12  N5  UNL     1      21.437  -0.294  53.245  1.00  0.00    -0.235 NA
ENDROOT
BRANCH   4  13
HETATM   13  N2  UNL     1      24.899   3.189  52.509  1.00  0.00    -0.354 N 
HETATM   14  H14 UNL     1      25.060   3.525  53.481  1.00  0.00     0.166 HD
BRANCH  13  15
HETATM   15  C10 UNL     1      24.705   3.988  51.352  1.00  0.00     0.033 A 
HETATM   16  C11 UNL     1      25.638   3.780  50.367  1.00  0.00     0.029 A 
HETATM   17  C12 UNL     1      25.543   4.508  49.201  1.00  0.00     0.004 A 
HETATM   18  C13 UNL     1      24.511   5.417  49.079  1.00  0.00     0.019 A 
HETATM   19  C14 UNL     1      23.583   5.598  50.108  1.00  0.00     0.013 A 
HETATM   20 BR1  UNL     1      22.182   6.886  49.847  1.00  0.00    -0.051 Br
HETATM   21  C15 UNL     1      23.667   4.867  51.293  1.00  0.00     0.048 A 
ENDBRANCH  13  15
ENDBRANCH   4  13
BRANCH   1  22
HETATM   22  O1  UNL     1      20.217   1.817  52.754  1.00  0.00    -0.333 OA
BRANCH  22  23
HETATM   23  C5  UNL     1      19.903   2.439  51.523  1.00  0.00     0.207 C 
BRANCH  23  24
HETATM   24  C4  UNL     1      19.651   1.374  50.508  1.00  0.00     0.298 C 
BRANCH  24  25
HETATM   25  N1  UNL     1      20.137   1.677  49.179  1.00  0.00     0.085 N 
HETATM   26  C3  UNL     1      20.151   3.120  49.035  1.00  0.00     0.310 C 
BRANCH  25  27
HETATM   27  C2  UNL     1      21.432   1.090  48.904  1.00  0.00     0.267 C 
HETATM   28  C1  UNL     1      22.495   2.145  48.949  1.00  0.00     0.037 C 
ENDBRANCH  25  27
ENDBRANCH  24  25
ENDBRANCH  23  24
ENDBRANCH  22  23
ENDBRANCH   1  22
TORSDOF 7
ENDMDL
MODEL 8
REMARK VINA RESULT:      -6.8      2.907      6.665
REMARK  7 active torsions:
REMARK  status: ('A' for Active; 'I' for Inactive)
REMARK    1  A    between atoms: C2_2  and  N1_3 
REMARK    2  A    between atoms: N1_3  and  C4_5 
REMARK    3  A    between atoms: C4_5  and  C5_6 
REMARK    4  A    between atoms: C5_6  and  O1_7 
REMARK    5  A    between atoms: O1_7  and  C6_8 
REMARK    6  A    between atoms: C9_11  and  N2_12 
REMARK    7  A    between atoms: N2_12  and  C10_13 
ROOT
HETATM    1  C6  UNL     1      26.019   2.127  53.222  1.00  0.00     0.165 A 
HETATM    2  C7  UNL     1      24.672   2.112  52.936  1.00  0.00     0.074 A 
HETATM    3  C8  UNL     1      24.124   2.422  51.707  1.00  0.00     0.026 A 
HETATM    4  C9  UNL     1      22.765   2.399  51.450  1.00  0.00     0.068 A 
HETATM    5  C16 UNL     1      22.389   2.736  50.166  1.00  0.00     0.089 A 
HETATM    6  C17 UNL     1      20.960   2.704  49.920  1.00  0.00     0.103 C 
HETATM    7  N3  UNL     1      19.797   2.672  49.734  1.00  0.00    -0.191 NA
HETATM    8  C18 UNL     1      23.247   3.079  49.172  1.00  0.00     0.142 A 
HETATM    9  N4  UNL     1      24.560   3.091  49.460  1.00  0.00    -0.257 NA
HETATM   10  C19 UNL     1      25.012   2.776  50.684  1.00  0.00     0.086 A 
HETATM   11  C20 UNL     1      26.350   2.787  50.982  1.00  0.00     0.152 A 
HETATM   12  N5  UNL     1      26.816   2.477  52.193  1.00  0.00    -0.235 NA
ENDROOT
BRANCH   4  13
HETATM   13  N2  UNL     1      21.878   2.042  52.494  1.00  0.00    -0.354 N 
HETATM   14  H14 UNL     1      21.702   3.012  52.825  1.00  0.00     0.166 HD
BRANCH  13  15
HETATM   15  C10 UNL     1      21.328   0.846  53.026  1.00  0.00     0.033 A 
HETATM   16  C11 UNL     1      22.215   0.102  53.762  1.00  0.00     0.029 A 
HETATM   17  C12 UNL     1      21.784  -1.081  54.321  1.00  0.00     0.004 A 
HETATM   18  C13 UNL     1      20.473  -1.464  54.112  1.00  0.00     0.019 A 
HETATM   19  C14 UNL     1      19.603  -0.676  53.355  1.00  0.00     0.013 A 
HETATM   20 BR1  UNL     1      17.799  -1.291  53.118  1.00  0.00    -0.051 Br
HETATM   21  C15 UNL     1      20.027   0.524  52.783  1.00  0.00     0.048 A 
ENDBRANCH  13  15
ENDBRANCH   4  13
BRANCH   1  22
HETATM   22  O1  UNL     1      26.312   1.777  54.526  1.00  0.00    -0.333 OA
BRANCH  22  23
HETATM   23  C5  UNL     1      26.945   0.566  54.891  1.00  0.00     0.207 C 
BRANCH  23  24
HETATM   24  C4  UNL     1      26.407  -0.526  54.029  1.00  0.00     0.298 C 
BRANCH  24  25
HETATM   25  N1  UNL     1      27.413  -1.362  53.410  1.00  0.00     0.085 N 
HETATM   26  C3  UNL     1      26.822  -1.960  52.228  1.00  0.00     0.310 C 
BRANCH  25  27
HETATM   27  C2  UNL     1      28.633  -0.644  53.105  1.00  0.00     0.267 C 
HETATM   28  C1  UNL     1      29.823  -1.434  53.558  1.00  0.00     0.037 C 
ENDBRANCH  25  27
ENDBRANCH  24  25
ENDBRANCH  23  24
ENDBRANCH  22  23
ENDBRANCH   1  22
TORSDOF 7
ENDMDL
MODEL 9
REMARK VINA RESULT:      -6.8      1.829      5.171
REMARK  7 active torsions:
REMARK  status: ('A' for Active; 'I' for Inactive)
REMARK    1  A    between atoms: C2_2  and  N1_3 
REMARK    2  A    between atoms: N1_3  and  C4_5 
REMARK    3  A    between atoms: C4_5  and  C5_6 
REMARK    4  A    between atoms: C5_6  and  O1_7 
REMARK    5  A    between atoms: O1_7  and  C6_8 
REMARK    6  A    between atoms: C9_11  and  N2_12 
REMARK    7  A    between atoms: N2_12  and  C10_13 
ROOT
HETATM    1  C6  UNL     1      23.186  -0.703  54.247  1.00  0.00     0.165 A 
HETATM    2  C7  UNL     1      22.737   0.440  53.623  1.00  0.00     0.074 A 
HETATM    3  C8  UNL     1      21.448   0.633  53.165  1.00  0.00     0.026 A 
HETATM    4  C9  UNL     1      21.026   1.793  52.542  1.00  0.00     0.068 A 
HETATM    5  C16 UNL     1      19.704   1.818  52.148  1.00  0.00     0.089 A 
HETATM    6  C17 UNL     1      19.285   3.044  51.496  1.00  0.00     0.103 C 
HETATM    7  N3  UNL     1      18.957   4.046  50.970  1.00  0.00    -0.191 NA
HETATM    8  C18 UNL     1      18.821   0.803  52.330  1.00  0.00     0.142 A 
HETATM    9  N4  UNL     1      19.270  -0.308  52.940  1.00  0.00    -0.257 NA
HETATM   10  C19 UNL     1      20.542  -0.416  53.355  1.00  0.00     0.086 A 
HETATM   11  C20 UNL     1      21.002  -1.548  53.977  1.00  0.00     0.152 A 
HETATM   12  N5  UNL     1      22.262  -1.671  54.396  1.00  0.00    -0.235 NA
ENDROOT
BRANCH   4  13
HETATM   13  N2  UNL     1      21.955   2.845  52.353  1.00  0.00    -0.354 N 
HETATM   14  H14 UNL     1      21.889   3.223  53.320  1.00  0.00     0.166 HD
BRANCH  13  15
HETATM   15  C10 UNL     1      22.764   3.338  51.297  1.00  0.00     0.033 A 
HETATM   16  C11 UNL     1      22.832   2.505  50.209  1.00  0.00     0.029 A 
HETATM   17  C12 UNL     1      23.596   2.888  49.128  1.00  0.00     0.004 A 
HETATM   18  C13 UNL     1      24.260   4.098  49.191  1.00  0.00     0.019 A 
HETATM   19  C14 UNL     1      24.163   4.916  50.319  1.00  0.00     0.013 A 
HETATM   20 BR1  UNL     1      25.123   6.579  50.315  1.00  0.00    -0.051 Br
HETATM   21  C15 UNL     1      23.393   4.540  51.421  1.00  0.00     0.048 A 
ENDBRANCH  13  15
ENDBRANCH   4  13
BRANCH   1  22
HETATM   22  O1  UNL     1      24.518  -0.647  54.611  1.00  0.00    -0.333 OA
BRANCH  22  23
HETATM   23  C5  UNL     1      25.580  -0.505  53.688  1.00  0.00     0.207 C 
BRANCH  23  24
HETATM   24  C4  UNL     1      26.621   0.373  54.298  1.00  0.00     0.298 C 
BRANCH  24  25
HETATM   25  N1  UNL     1      26.666   1.719  53.767  1.00  0.00     0.085 N 
HETATM   26  C3  UNL     1      28.056   2.043  53.510  1.00  0.00     0.310 C 
BRANCH  25  27
HETATM   27  C2  UNL     1      25.840   1.888  52.589  1.00  0.00     0.267 C 
HETATM   28  C1  UNL     1      26.681   2.334  51.432  1.00  0.00     0.037 C 
ENDBRANCH  25  27
ENDBRANCH  24  25
ENDBRANCH  23  24
ENDBRANCH  22  23
ENDBRANCH   1  22
TORSDOF 7
ENDMDL
