MODEL 1
REMARK VINA RESULT:      -8.2      0.000      0.000
REMARK  6 active torsions:
REMARK  status: ('A' for Active; 'I' for Inactive)
REMARK    1  A    between atoms: C1_2  and  C2_3 
REMARK    2  A    between atoms: C2_3  and  C3_4 
REMARK    3  A    between atoms: C7_10  and  C8_11 
REMARK    4  A    between atoms: N3_19  and  C15_20 
REMARK    5  A    between atoms: C15_20  and  C16_21 
REMARK    6  A    between atoms: C16_21  and  N4_22 
ROOT
HETATM    1  C3  UNL     1      21.578  -0.040  52.739  1.00  0.00    -0.054 C 
HETATM    2  C4  UNL     1      20.908  -0.013  51.604  1.00  0.00     0.039 C 
HETATM    3  C5  UNL     1      21.547   0.892  50.657  1.00  0.00     0.087 A 
HETATM    4  N1  UNL     1      20.856   0.949  49.476  1.00  0.00    -0.240 NA
HETATM    5  C6  UNL     1      21.257   1.752  48.480  1.00  0.00     0.234 A 
HETATM    6  N2  UNL     1      22.361   2.471  48.740  1.00  0.00    -0.239 NA
HETATM    7  C7  UNL     1      23.046   2.408  49.922  1.00  0.00     0.097 A 
HETATM    8  C14 UNL     1      22.671   1.613  50.944  1.00  0.00     0.089 A 
HETATM    9  N3  UNL     1      23.363   1.600  52.176  1.00  0.00    -0.372 N 
HETATM   10  C21 UNL     1      22.864   0.585  53.073  1.00  0.00     0.158 C 
ENDROOT
BRANCH   9  11
HETATM   11  C15 UNL     1      24.315   2.576  52.492  1.00  0.00     0.143 C 
BRANCH  11  12
HETATM   12  C16 UNL     1      25.349   2.488  53.520  1.00  0.00     0.136 C 
BRANCH  12  13
HETATM   13  N4  UNL     1      26.542   1.744  53.392  1.00  0.00    -0.407 N 
HETATM   14  C17 UNL     1      27.763   2.243  53.023  1.00  0.00     0.143 C 
HETATM   15  C18 UNL     1      28.975   1.618  53.683  1.00  0.00     0.187 C 
HETATM   16  O2  UNL     1      28.828   0.270  53.973  1.00  0.00    -0.388 OA
HETATM   17  C19 UNL     1      27.754   0.221  54.893  1.00  0.00     0.187 C 
HETATM   18  C20 UNL     1      26.528   0.464  54.064  1.00  0.00     0.143 C 
ENDBRANCH  12  13
ENDBRANCH  11  12
ENDBRANCH   9  11
BRANCH   7  19
HETATM   19  C8  UNL     1      24.149   3.341  49.812  1.00  0.00    -0.004 A 
HETATM   20  C9  UNL     1      25.423   2.753  49.528  1.00  0.00     0.014 A 
HETATM   21  C10 UNL     1      26.661   3.375  49.436  1.00  0.00     0.002 A 
HETATM   22  C11 UNL     1      26.644   4.727  49.650  1.00  0.00     0.019 A 
HETATM   23  C12 UNL     1      25.485   5.408  49.933  1.00  0.00     0.011 A 
HETATM   24 BR1  UNL     1      25.342   7.281  50.245  1.00  0.00    -0.051 Br
HETATM   25  C13 UNL     1      24.310   4.706  50.002  1.00  0.00     0.033 A 
ENDBRANCH   7  19
BRANCH   1  26
HETATM   26  C2  UNL     1      21.087  -0.906  53.875  1.00  0.00     0.105 C 
BRANCH  26  27
HETATM   27  C1  UNL     1      22.205  -1.218  54.806  1.00  0.00     0.235 C 
HETATM   28  O1  UNL     1      22.913  -1.623  55.700  1.00  0.00    -0.307 OA
ENDBRANCH  26  27
ENDBRANCH   1  26
TORSDOF 6
ENDMDL
MODEL 2
REMARK VINA RESULT:      -8.1      2.772      5.508
REMARK  6 active torsions:
REMARK  status: ('A' for Active; 'I' for Inactive)
REMARK    1  A    between atoms: C1_2  and  C2_3 
REMARK    2  A    between atoms: C2_3  and  C3_4 
REMARK    3  A    between atoms: C7_10  and  C8_11 
REMARK    4  A    between atoms: N3_19  and  C15_20 
REMARK    5  A    between atoms: C15_20  and  C16_21 
REMARK    6  A    between atoms: C16_21  and  N4_22 
ROOT
HETATM    1  C3  UNL     1      27.019   0.149  53.362  1.00  0.00    -0.054 C 
HETATM    2  C4  UNL     1      26.001  -0.495  53.897  1.00  0.00     0.039 C 
HETATM    3  C5  UNL     1      24.746  -0.036  53.318  1.00  0.00     0.087 A 
HETATM    4  N1  UNL     1      23.674  -0.681  53.874  1.00  0.00    -0.240 NA
HETATM    5  C6  UNL     1      22.420  -0.380  53.505  1.00  0.00     0.234 A 
HETATM    6  N2  UNL     1      22.318   0.579  52.571  1.00  0.00    -0.239 NA
HETATM    7  C7  UNL     1      23.395   1.218  52.019  1.00  0.00     0.097 A 
HETATM    8  C14 UNL     1      24.667   0.941  52.367  1.00  0.00     0.089 A 
HETATM    9  N3  UNL     1      25.763   1.648  51.822  1.00  0.00    -0.372 N 
HETATM   10  C21 UNL     1      27.030   1.099  52.242  1.00  0.00     0.158 C 
ENDROOT
BRANCH   9  11
HETATM   11  C15 UNL     1      25.584   2.824  51.086  1.00  0.00     0.143 C 
BRANCH  11  12
HETATM   12  C16 UNL     1      26.567   3.474  50.224  1.00  0.00     0.136 C 
BRANCH  12  13
HETATM   13  N4  UNL     1      26.270   4.510  49.312  1.00  0.00    -0.407 N 
HETATM   14  C17 UNL     1      25.133   5.274  49.308  1.00  0.00     0.143 C 
HETATM   15  C18 UNL     1      25.295   6.724  48.899  1.00  0.00     0.187 C 
HETATM   16  O2  UNL     1      26.284   6.935  47.950  1.00  0.00    -0.388 OA
HETATM   17  C19 UNL     1      27.479   6.523  48.586  1.00  0.00     0.187 C 
HETATM   18  C20 UNL     1      27.413   5.025  48.592  1.00  0.00     0.143 C 
ENDBRANCH  12  13
ENDBRANCH  11  12
ENDBRANCH   9  11
BRANCH   7  19
HETATM   19  C8  UNL     1      22.865   2.187  51.081  1.00  0.00    -0.004 A 
HETATM   20  C9  UNL     1      22.304   3.365  51.669  1.00  0.00     0.014 A 
HETATM   21  C10 UNL     1      21.665   4.425  51.040  1.00  0.00     0.002 A 
HETATM   22  C11 UNL     1      21.565   4.312  49.680  1.00  0.00     0.019 A 
HETATM   23  C12 UNL     1      22.062   3.228  48.998  1.00  0.00     0.011 A 
HETATM   24 BR1  UNL     1      21.982   2.966  47.113  1.00  0.00    -0.051 Br
HETATM   25  C13 UNL     1      22.678   2.231  49.707  1.00  0.00     0.033 A 
ENDBRANCH   7  19
BRANCH   1  26
HETATM   26  C2  UNL     1      28.424  -0.157  53.824  1.00  0.00     0.105 C 
BRANCH  26  27
HETATM   27  C1  UNL     1      29.011   1.025  54.510  1.00  0.00     0.235 C 
HETATM   28  O1  UNL     1      29.345   2.132  54.867  1.00  0.00    -0.307 OA
ENDBRANCH  26  27
ENDBRANCH   1  26
TORSDOF 6
ENDMDL
MODEL 3
REMARK VINA RESULT:      -7.8      1.644      2.187
REMARK  6 active torsions:
REMARK  status: ('A' for Active; 'I' for Inactive)
REMARK    1  A    between atoms: C1_2  and  C2_3 
REMARK    2  A    between atoms: C2_3  and  C3_4 
REMARK    3  A    between atoms: C7_10  and  C8_11 
REMARK    4  A    between atoms: N3_19  and  C15_20 
REMARK    5  A    between atoms: C15_20  and  C16_21 
REMARK    6  A    between atoms: C16_21  and  N4_22 
ROOT
HETATM    1  C3  UNL     1      22.340  -0.594  54.307  1.00  0.00    -0.054 C 
HETATM    2  C4  UNL     1      21.076  -0.424  53.973  1.00  0.00     0.039 C 
HETATM    3  C5  UNL     1      20.950   0.639  52.984  1.00  0.00     0.087 A 
HETATM    4  N1  UNL     1      19.641   0.845  52.637  1.00  0.00    -0.240 NA
HETATM    5  C6  UNL     1      19.302   1.804  51.764  1.00  0.00     0.234 A 
HETATM    6  N2  UNL     1      20.329   2.520  51.279  1.00  0.00    -0.239 NA
HETATM    7  C7  UNL     1      21.634   2.308  51.630  1.00  0.00     0.097 A 
HETATM    8  C14 UNL     1      22.010   1.353  52.505  1.00  0.00     0.089 A 
HETATM    9  N3  UNL     1      23.358   1.183  52.893  1.00  0.00    -0.372 N 
HETATM   10  C21 UNL     1      23.542   0.025  53.736  1.00  0.00     0.158 C 
ENDROOT
BRANCH   9  11
HETATM   11  C15 UNL     1      24.335   2.138  52.589  1.00  0.00     0.143 C 
BRANCH  11  12
HETATM   12  C16 UNL     1      25.624   1.897  51.947  1.00  0.00     0.136 C 
BRANCH  12  13
HETATM   13  N4  UNL     1      26.672   1.142  52.516  1.00  0.00    -0.407 N 
HETATM   14  C17 UNL     1      27.316   1.422  53.693  1.00  0.00     0.143 C 
HETATM   15  C18 UNL     1      27.750   0.233  54.525  1.00  0.00     0.187 C 
HETATM   16  O2  UNL     1      28.110  -0.878  53.777  1.00  0.00    -0.388 OA
HETATM   17  C19 UNL     1      26.930  -1.235  53.084  1.00  0.00     0.187 C 
HETATM   18  C20 UNL     1      26.793  -0.205  52.003  1.00  0.00     0.143 C 
ENDBRANCH  12  13
ENDBRANCH  11  12
ENDBRANCH   9  11
BRANCH   7  19
HETATM   19  C8  UNL     1      22.421   3.291  50.914  1.00  0.00    -0.004 A 
HETATM   20  C9  UNL     1      22.936   2.860  49.650  1.00  0.00     0.014 A 
HETATM   21  C10 UNL     1      23.772   3.545  48.778  1.00  0.00     0.002 A 
HETATM   22  C11 UNL     1      24.146   4.793  49.199  1.00  0.00     0.019 A 
HETATM   23  C12 UNL     1      23.720   5.319  50.395  1.00  0.00     0.011 A 
HETATM   24 BR1  UNL     1      24.173   7.037  51.079  1.00  0.00    -0.051 Br
HETATM   25  C13 UNL     1      22.894   4.566  51.188  1.00  0.00     0.033 A 
ENDBRANCH   7  19
BRANCH   1  26
HETATM   26  C2  UNL     1      22.707  -1.641  55.333  1.00  0.00     0.105 C 
BRANCH  26  27
HETATM   27  C1  UNL     1      24.142  -1.517  55.705  1.00  0.00     0.235 C 
HETATM   28  O1  UNL     1      25.204  -1.267  56.229  1.00  0.00    -0.307 OA
ENDBRANCH  26  27
ENDBRANCH   1  26
TORSDOF 6
ENDMDL
MODEL 4
REMARK VINA RESULT:      -7.8      3.222      5.493
REMARK  6 active torsions:
REMARK  status: ('A' for Active; 'I' for Inactive)
REMARK    1  A    between atoms: C1_2  and  C2_3 
REMARK    2  A    between atoms: C2_3  and  C3_4 
REMARK    3  A    between atoms: C7_10  and  C8_11 
REMARK    4  A    between atoms: N3_19  and  C15_20 
REMARK    5  A    between atoms: C15_20  and  C16_21 
REMARK    6  A    between atoms: C16_21  and  N4_22 
ROOT
HETATM    1  C3  UNL     1      21.047   2.164  52.217  1.00  0.00    -0.054 C 
HETATM    2  C4  UNL     1      20.686   1.258  53.105  1.00  0.00     0.039 C 
HETATM    3  C5  UNL     1      21.852   0.540  53.602  1.00  0.00     0.087 A 
HETATM    4  N1  UNL     1      21.497  -0.419  54.513  1.00  0.00    -0.240 NA
HETATM    5  C6  UNL     1      22.420  -1.218  55.069  1.00  0.00     0.234 A 
HETATM    6  N2  UNL     1      23.680  -0.998  54.662  1.00  0.00    -0.239 NA
HETATM    7  C7  UNL     1      24.027  -0.037  53.752  1.00  0.00     0.097 A 
HETATM    8  C14 UNL     1      23.126   0.782  53.174  1.00  0.00     0.089 A 
HETATM    9  N3  UNL     1      23.499   1.734  52.199  1.00  0.00    -0.372 N 
HETATM   10  C21 UNL     1      22.395   2.582  51.814  1.00  0.00     0.158 C 
ENDROOT
BRANCH   9  11
HETATM   11  C15 UNL     1      24.764   1.717  51.602  1.00  0.00     0.143 C 
BRANCH  11  12
HETATM   12  C16 UNL     1      25.670   2.851  51.440  1.00  0.00     0.136 C 
BRANCH  12  13
HETATM   13  N4  UNL     1      25.610   3.776  50.375  1.00  0.00    -0.407 N 
HETATM   14  C17 UNL     1      24.991   4.997  50.407  1.00  0.00     0.143 C 
HETATM   15  C18 UNL     1      25.653   6.110  49.622  1.00  0.00     0.187 C 
HETATM   16  O2  UNL     1      26.300   5.684  48.472  1.00  0.00    -0.388 OA
HETATM   17  C19 UNL     1      27.313   4.813  48.939  1.00  0.00     0.187 C 
HETATM   18  C20 UNL     1      26.591   3.560  49.334  1.00  0.00     0.143 C 
ENDBRANCH  12  13
ENDBRANCH  11  12
ENDBRANCH   9  11
BRANCH   7  19
HETATM   19  C8  UNL     1      25.461  -0.138  53.570  1.00  0.00    -0.004 A 
HETATM   20  C9  UNL     1      25.910  -1.313  52.887  1.00  0.00     0.014 A 
HETATM   21  C10 UNL     1      27.213  -1.719  52.630  1.00  0.00     0.002 A 
HETATM   22  C11 UNL     1      28.183  -0.874  53.099  1.00  0.00     0.019 A 
HETATM   23  C12 UNL     1      27.879   0.285  53.773  1.00  0.00     0.011 A 
HETATM   24 BR1  UNL     1      29.141   1.531  54.467  1.00  0.00    -0.051 Br
HETATM   25  C13 UNL     1      26.562   0.601  53.978  1.00  0.00     0.033 A 
ENDBRANCH   7  19
BRANCH   1  26
HETATM   26  C2  UNL     1      19.994   3.022  51.556  1.00  0.00     0.105 C 
BRANCH  26  27
HETATM   27  C1  UNL     1      19.662   2.483  50.209  1.00  0.00     0.235 C 
HETATM   28  O1  UNL     1      19.675   2.008  49.096  1.00  0.00    -0.307 OA
ENDBRANCH  26  27
ENDBRANCH   1  26
TORSDOF 6
ENDMDL
MODEL 5
REMARK VINA RESULT:      -7.7      2.798      5.625
REMARK  6 active torsions:
REMARK  status: ('A' for Active; 'I' for Inactive)
REMARK    1  A    between atoms: C1_2  and  C2_3 
REMARK    2  A    between atoms: C2_3  and  C3_4 
REMARK    3  A    between atoms: C7_10  and  C8_11 
REMARK    4  A    between atoms: N3_19  and  C15_20 
REMARK    5  A    between atoms: C15_20  and  C16_21 
REMARK    6  A    between atoms: C16_21  and  N4_22 
ROOT
HETATM    1  C3  UNL     1      25.115   5.110  49.802  1.00  0.00    -0.054 C 
HETATM    2  C4  UNL     1      23.878   5.546  49.937  1.00  0.00     0.039 C 
HETATM    3  C5  UNL     1      23.084   4.597  50.704  1.00  0.00     0.087 A 
HETATM    4  N1  UNL     1      21.790   5.023  50.840  1.00  0.00    -0.240 NA
HETATM    5  C6  UNL     1      20.881   4.277  51.485  1.00  0.00     0.234 A 
HETATM    6  N2  UNL     1      21.343   3.113  51.968  1.00  0.00    -0.239 NA
HETATM    7  C7  UNL     1      22.638   2.694  51.829  1.00  0.00     0.097 A 
HETATM    8  C14 UNL     1      23.576   3.418  51.187  1.00  0.00     0.089 A 
HETATM    9  N3  UNL     1      24.896   2.945  51.010  1.00  0.00    -0.372 N 
HETATM   10  C21 UNL     1      25.756   3.937  50.409  1.00  0.00     0.158 C 
ENDROOT
BRANCH   9  11
HETATM   11  C15 UNL     1      25.239   1.613  51.269  1.00  0.00     0.143 C 
BRANCH  11  12
HETATM   12  C16 UNL     1      26.580   1.084  51.496  1.00  0.00     0.136 C 
BRANCH  12  13
HETATM   13  N4  UNL     1      27.194   0.976  52.762  1.00  0.00    -0.407 N 
HETATM   14  C17 UNL     1      27.795  -0.145  53.270  1.00  0.00     0.143 C 
HETATM   15  C18 UNL     1      29.015   0.078  54.140  1.00  0.00     0.187 C 
HETATM   16  O2  UNL     1      28.973   1.247  54.883  1.00  0.00    -0.388 OA
HETATM   17  C19 UNL     1      28.928   2.280  53.917  1.00  0.00     0.187 C 
HETATM   18  C20 UNL     1      27.530   2.240  53.379  1.00  0.00     0.143 C 
ENDBRANCH  12  13
ENDBRANCH  11  12
ENDBRANCH   9  11
BRANCH   7  19
HETATM   19  C8  UNL     1      22.723   1.393  52.462  1.00  0.00    -0.004 A 
HETATM   20  C9  UNL     1      21.710   0.458  52.077  1.00  0.00     0.014 A 
HETATM   21  C10 UNL     1      21.490  -0.826  52.558  1.00  0.00     0.002 A 
HETATM   22  C11 UNL     1      22.365  -1.235  53.529  1.00  0.00     0.019 A 
HETATM   23  C12 UNL     1      23.379  -0.428  53.986  1.00  0.00     0.011 A 
HETATM   24 BR1  UNL     1      24.650  -0.889  55.326  1.00  0.00    -0.051 Br
HETATM   25  C13 UNL     1      23.516   0.825  53.448  1.00  0.00     0.033 A 
ENDBRANCH   7  19
BRANCH   1  26
HETATM   26  C2  UNL     1      26.117   5.932  49.027  1.00  0.00     0.105 C 
BRANCH  26  27
HETATM   27  C1  UNL     1      27.319   5.115  48.709  1.00  0.00     0.235 C 
HETATM   28  O1  UNL     1      28.427   4.705  48.443  1.00  0.00    -0.307 OA
ENDBRANCH  26  27
ENDBRANCH   1  26
TORSDOF 6
ENDMDL
MODEL 6
REMARK VINA RESULT:      -7.4      2.411      5.895
REMARK  6 active torsions:
REMARK  status: ('A' for Active; 'I' for Inactive)
REMARK    1  A    between atoms: C1_2  and  C2_3 
REMARK    2  A    between atoms: C2_3  and  C3_4 
REMARK    3  A    between atoms: C7_10  and  C8_11 
REMARK    4  A    between atoms: N3_19  and  C15_20 
REMARK    5  A    between atoms: C15_20  and  C16_21 
REMARK    6  A    between atoms: C16_21  and  N4_22 
ROOT
HETATM    1  C3  UNL     1      25.716   0.753  53.226  1.00  0.00    -0.054 C 
HETATM    2  C4  UNL     1      26.610   1.462  52.565  1.00  0.00     0.039 C 
HETATM    3  C5  UNL     1      25.968   2.229  51.505  1.00  0.00     0.087 A 
HETATM    4  N1  UNL     1      26.882   2.959  50.794  1.00  0.00    -0.240 NA
HETATM    5  C6  UNL     1      26.503   3.710  49.750  1.00  0.00     0.234 A 
HETATM    6  N2  UNL     1      25.189   3.679  49.476  1.00  0.00    -0.239 NA
HETATM    7  C7  UNL     1      24.282   2.947  50.192  1.00  0.00     0.097 A 
HETATM    8  C14 UNL     1      24.628   2.181  51.246  1.00  0.00     0.089 A 
HETATM    9  N3  UNL     1      23.684   1.393  51.941  1.00  0.00    -0.372 N 
HETATM   10  C21 UNL     1      24.253   0.759  53.106  1.00  0.00     0.158 C 
ENDROOT
BRANCH   9  11
HETATM   11  C15 UNL     1      22.399   1.170  51.433  1.00  0.00     0.143 C 
BRANCH  11  12
HETATM   12  C16 UNL     1      21.513   0.055  51.756  1.00  0.00     0.136 C 
BRANCH  12  13
HETATM   13  N4  UNL     1      20.136   0.185  52.040  1.00  0.00    -0.407 N 
HETATM   14  C17 UNL     1      19.152   0.467  51.130  1.00  0.00     0.143 C 
HETATM   15  C18 UNL     1      17.810  -0.197  51.360  1.00  0.00     0.187 C 
HETATM   16  O2  UNL     1      17.494  -0.386  52.696  1.00  0.00    -0.388 OA
HETATM   17  C19 UNL     1      18.502  -1.255  53.179  1.00  0.00     0.187 C 
HETATM   18  C20 UNL     1      19.724  -0.395  53.299  1.00  0.00     0.143 C 
ENDBRANCH  12  13
ENDBRANCH  11  12
ENDBRANCH   9  11
BRANCH   7  19
HETATM   19  C8  UNL     1      22.991   3.164  49.570  1.00  0.00    -0.004 A 
HETATM   20  C9  UNL     1      22.813   2.538  48.295  1.00  0.00     0.014 A 
HETATM   21  C10 UNL     1      21.727   2.621  47.435  1.00  0.00     0.002 A 
HETATM   22  C11 UNL     1      20.700   3.411  47.878  1.00  0.00     0.019 A 
HETATM   23  C12 UNL     1      20.751   4.067  49.085  1.00  0.00     0.011 A 
HETATM   24 BR1  UNL     1      19.388   5.186  49.802  1.00  0.00    -0.051 Br
HETATM   25  C13 UNL     1      21.868   3.922  49.865  1.00  0.00     0.033 A 
ENDBRANCH   7  19
BRANCH   1  26
HETATM   26  C2  UNL     1      26.161  -0.133  54.366  1.00  0.00     0.105 C 
BRANCH  26  27
HETATM   27  C1  UNL     1      27.565   0.182  54.745  1.00  0.00     0.235 C 
HETATM   28  O1  UNL     1      28.581   0.595  55.257  1.00  0.00    -0.307 OA
ENDBRANCH  26  27
ENDBRANCH   1  26
TORSDOF 6
ENDMDL
MODEL 7
REMARK VINA RESULT:      -7.4      3.589      7.398
REMARK  6 active torsions:
REMARK  status: ('A' for Active; 'I' for Inactive)
REMARK    1  A    between atoms: C1_2  and  C2_3 
REMARK    2  A    between atoms: C2_3  and  C3_4 
REMARK    3  A    between atoms: C7_10  and  C8_11 
REMARK    4  A    between atoms: N3_19  and  C15_20 
REMARK    5  A    between atoms: C15_20  and  C16_21 
REMARK    6  A    between atoms: C16_21  and  N4_22 
ROOT
HETATM    1  C3  UNL     1      25.631   3.752  50.216  1.00  0.00    -0.054 C 
HETATM    2  C4  UNL     1      26.527   2.857  50.583  1.00  0.00     0.039 C 
HETATM    3  C5  UNL     1      25.895   1.783  51.337  1.00  0.00     0.087 A 
HETATM    4  N1  UNL     1      26.812   0.851  51.744  1.00  0.00    -0.240 NA
HETATM    5  C6  UNL     1      26.442  -0.205  52.483  1.00  0.00     0.234 A 
HETATM    6  N2  UNL     1      25.133  -0.261  52.777  1.00  0.00    -0.239 NA
HETATM    7  C7  UNL     1      24.222   0.674  52.366  1.00  0.00     0.097 A 
HETATM    8  C14 UNL     1      24.560   1.747  51.623  1.00  0.00     0.089 A 
HETATM    9  N3  UNL     1      23.613   2.728  51.251  1.00  0.00    -0.372 N 
HETATM   10  C21 UNL     1      24.170   3.713  50.355  1.00  0.00     0.158 C 
ENDROOT
BRANCH   9  11
HETATM   11  C15 UNL     1      22.340   2.774  51.829  1.00  0.00     0.143 C 
BRANCH  11  12
HETATM   12  C16 UNL     1      21.526   3.965  52.057  1.00  0.00     0.136 C 
BRANCH  12  13
HETATM   13  N4  UNL     1      20.800   4.642  51.053  1.00  0.00    -0.407 N 
HETATM   14  C17 UNL     1      21.083   5.889  50.562  1.00  0.00     0.143 C 
HETATM   15  C18 UNL     1      20.813   6.111  49.088  1.00  0.00     0.187 C 
HETATM   16  O2  UNL     1      19.733   5.394  48.597  1.00  0.00    -0.388 OA
HETATM   17  C19 UNL     1      20.096   4.039  48.777  1.00  0.00     0.187 C 
HETATM   18  C20 UNL     1      19.949   3.794  50.249  1.00  0.00     0.143 C 
ENDBRANCH  12  13
ENDBRANCH  11  12
ENDBRANCH   9  11
BRANCH   7  19
HETATM   19  C8  UNL     1      22.940   0.268  52.904  1.00  0.00    -0.004 A 
HETATM   20  C9  UNL     1      22.986  -0.352  54.193  1.00  0.00     0.014 A 
HETATM   21  C10 UNL     1      21.943  -0.904  54.925  1.00  0.00     0.002 A 
HETATM   22  C11 UNL     1      20.716  -0.840  54.319  1.00  0.00     0.019 A 
HETATM   23  C12 UNL     1      20.542  -0.272  53.080  1.00  0.00     0.011 A 
HETATM   24 BR1  UNL     1      18.890  -0.126  52.144  1.00  0.00    -0.051 Br
HETATM   25  C13 UNL     1      21.634   0.248  52.435  1.00  0.00     0.033 A 
ENDBRANCH   7  19
BRANCH   1  26
HETATM   26  C2  UNL     1      26.067   4.966  49.430  1.00  0.00     0.105 C 
BRANCH  26  27
HETATM   27  C1  UNL     1      27.453   4.780  48.921  1.00  0.00     0.235 C 
HETATM   28  O1  UNL     1      28.514   4.854  48.343  1.00  0.00    -0.307 OA
ENDBRANCH  26  27
ENDBRANCH   1  26
TORSDOF 6
ENDMDL
MODEL 8
REMARK VINA RESULT:      -7.3      3.401      6.162
REMARK  6 active torsions:
REMARK  status: ('A' for Active; 'I' for Inactive)
REMARK    1  A    between atoms: C1_2  and  C2_3 
REMARK    2  A    between atoms: C2_3  and  C3_4 
REMARK    3  A    between atoms: C7_10  and  C8_11 
REMARK    4  A    between atoms: N3_19  and  C15_20 
REMARK    5  A    between atoms: C15_20  and  C16_21 
REMARK    6  A    between atoms: C16_21  and  N4_22 
ROOT
HETATM    1  C3  UNL     1      21.824   3.560  47.927  1.00  0.00    -0.054 C 
HETATM    2  C4  UNL     1      22.739   4.507  47.850  1.00  0.00     0.039 C 
HETATM    3  C5  UNL     1      23.804   4.265  48.814  1.00  0.00     0.087 A 
HETATM    4  N1  UNL     1      24.756   5.248  48.763  1.00  0.00    -0.240 NA
HETATM    5  C6  UNL     1      25.808   5.234  49.595  1.00  0.00     0.234 A 
HETATM    6  N2  UNL     1      25.839   4.202  50.454  1.00  0.00    -0.239 NA
HETATM    7  C7  UNL     1      24.884   3.224  50.498  1.00  0.00     0.097 A 
HETATM    8  C14 UNL     1      23.814   3.208  49.678  1.00  0.00     0.089 A 
HETATM    9  N3  UNL     1      22.813   2.215  49.773  1.00  0.00    -0.372 N 
HETATM   10  C21 UNL     1      21.834   2.323  48.717  1.00  0.00     0.158 C 
ENDROOT
BRANCH   9  11
HETATM   11  C15 UNL     1      22.743   1.346  50.868  1.00  0.00     0.143 C 
BRANCH  11  12
HETATM   12  C16 UNL     1      21.565   0.619  51.334  1.00  0.00     0.136 C 
BRANCH  12  13
HETATM   13  N4  UNL     1      21.354   0.211  52.668  1.00  0.00    -0.407 N 
HETATM   14  C17 UNL     1      20.304  -0.544  53.119  1.00  0.00     0.143 C 
HETATM   15  C18 UNL     1      20.606  -1.520  54.238  1.00  0.00     0.187 C 
HETATM   16  O2  UNL     1      21.585  -1.085  55.118  1.00  0.00    -0.388 OA
HETATM   17  C19 UNL     1      22.747  -0.958  54.321  1.00  0.00     0.187 C 
HETATM   18  C20 UNL     1      22.524   0.286  53.514  1.00  0.00     0.143 C 
ENDBRANCH  12  13
ENDBRANCH  11  12
ENDBRANCH   9  11
BRANCH   7  19
HETATM   19  C8  UNL     1      25.266   2.319  51.563  1.00  0.00    -0.004 A 
HETATM   20  C9  UNL     1      25.182   2.861  52.886  1.00  0.00     0.014 A 
HETATM   21  C10 UNL     1      25.545   2.268  54.087  1.00  0.00     0.002 A 
HETATM   22  C11 UNL     1      26.049   1.000  53.976  1.00  0.00     0.019 A 
HETATM   23  C12 UNL     1      26.182   0.371  52.761  1.00  0.00     0.011 A 
HETATM   24 BR1  UNL     1      26.867  -1.385  52.485  1.00  0.00    -0.051 Br
HETATM   25  C13 UNL     1      25.796   1.038  51.629  1.00  0.00     0.033 A 
ENDBRANCH   7  19
BRANCH   1  26
HETATM   26  C2  UNL     1      20.616   3.615  47.023  1.00  0.00     0.105 C 
BRANCH  26  27
HETATM   27  C1  UNL     1      21.039   3.760  45.604  1.00  0.00     0.235 C 
HETATM   28  O1  UNL     1      21.445   3.600  44.476  1.00  0.00    -0.307 OA
ENDBRANCH  26  27
ENDBRANCH   1  26
TORSDOF 6
ENDMDL
MODEL 9
REMARK VINA RESULT:      -7.1      2.779      5.554
REMARK  6 active torsions:
REMARK  status: ('A' for Active; 'I' for Inactive)
REMARK    1  A    between atoms: C1_2  and  C2_3 
REMARK    2  A    between atoms: C2_3  and  C3_4 
REMARK    3  A    between atoms: C7_10  and  C8_11 
REMARK    4  A    between atoms: N3_19  and  C15_20 
REMARK    5  A    between atoms: C15_20  and  C16_21 
REMARK    6  A    between atoms: C16_21  and  N4_22 
ROOT
HETATM    1  C3  UNL     1      23.011  -0.353  53.842  1.00  0.00    -0.054 C 
HETATM    2  C4  UNL     1      24.309  -0.461  53.632  1.00  0.00     0.039 C 
HETATM    3  C5  UNL     1      24.778   0.620  52.776  1.00  0.00     0.087 A 
HETATM    4  N1  UNL     1      26.121   0.515  52.530  1.00  0.00    -0.240 NA
HETATM    5  C6  UNL     1      26.748   1.394  51.734  1.00  0.00     0.234 A 
HETATM    6  N2  UNL     1      25.962   2.352  51.218  1.00  0.00    -0.239 NA
HETATM    7  C7  UNL     1      24.621   2.451  51.469  1.00  0.00     0.097 A 
HETATM    8  C14 UNL     1      23.960   1.585  52.263  1.00  0.00     0.089 A 
HETATM    9  N3  UNL     1      22.565   1.675  52.469  1.00  0.00    -0.372 N 
HETATM   10  C21 UNL     1      22.096   0.726  53.451  1.00  0.00     0.158 C 
ENDROOT
BRANCH   9  11
HETATM   11  C15 UNL     1      21.758   2.502  51.680  1.00  0.00     0.143 C 
BRANCH  11  12
HETATM   12  C16 UNL     1      20.543   3.196  52.098  1.00  0.00     0.136 C 
BRANCH  12  13
HETATM   13  N4  UNL     1      19.234   2.789  51.763  1.00  0.00    -0.407 N 
HETATM   14  C17 UNL     1      18.187   3.621  51.464  1.00  0.00     0.143 C 
HETATM   15  C18 UNL     1      17.214   3.130  50.411  1.00  0.00     0.187 C 
HETATM   16  O2  UNL     1      17.041   1.754  50.400  1.00  0.00    -0.388 OA
HETATM   17  C19 UNL     1      18.321   1.238  50.089  1.00  0.00     0.187 C 
HETATM   18  C20 UNL     1      19.120   1.409  51.346  1.00  0.00     0.143 C 
ENDBRANCH  12  13
ENDBRANCH  11  12
ENDBRANCH   9  11
BRANCH   7  19
HETATM   19  C8  UNL     1      24.141   3.592  50.715  1.00  0.00    -0.004 A 
HETATM   20  C9  UNL     1      23.740   3.312  49.370  1.00  0.00     0.014 A 
HETATM   21  C10 UNL     1      23.310   4.201  48.394  1.00  0.00     0.002 A 
HETATM   22  C11 UNL     1      23.272   5.513  48.784  1.00  0.00     0.019 A 
HETATM   23  C12 UNL     1      23.635   5.909  50.049  1.00  0.00     0.011 A 
HETATM   24 BR1  UNL     1      23.621   7.698  50.702  1.00  0.00    -0.051 Br
HETATM   25  C13 UNL     1      24.046   4.957  50.945  1.00  0.00     0.033 A 
ENDBRANCH   7  19
BRANCH   1  26
HETATM   26  C2  UNL     1      22.305  -1.379  54.695  1.00  0.00     0.105 C 
BRANCH  26  27
HETATM   27  C1  UNL     1      20.907  -1.569  54.223  1.00  0.00     0.235 C 
HETATM   28  O1  UNL     1      19.733  -1.836  54.098  1.00  0.00    -0.307 OA
ENDBRANCH  26  27
ENDBRANCH   1  26
TORSDOF 6
ENDMDL
