MODEL 1
REMARK VINA RESULT:      -8.4      0.000      0.000
REMARK  8 active torsions:
REMARK  status: ('A' for Active; 'I' for Inactive)
REMARK    1  A    between atoms: C2_2  and  C3_3 
REMARK    2  A    between atoms: C4_4  and  C5_5 
REMARK    3  A    between atoms: C4_4  and  C21_27 
REMARK    4  A    between atoms: C6_6  and  C7_7 
REMARK    5  A    between atoms: C7_7  and  C8_8 
REMARK    6  A    between atoms: C8_8  and  N1_9 
REMARK    7  A    between atoms: N1_9  and  C9_10 
REMARK    8  A    between atoms: C16_20  and  O1_21 
ROOT
HETATM    1  C9  UNL     1      26.777   1.585  52.616  1.00  0.00     0.159 A 
HETATM    2  N2  UNL     1      27.914   0.986  53.058  1.00  0.00    -0.222 NA
HETATM    3  C10 UNL     1      27.814  -0.041  53.915  1.00  0.00     0.238 A 
HETATM    4  N3  UNL     1      26.646  -0.538  54.384  1.00  0.00    -0.215 NA
HETATM    5  C11 UNL     1      25.485   0.023  53.974  1.00  0.00     0.202 A 
HETATM    6  C12 UNL     1      25.572   1.088  53.087  1.00  0.00     0.129 A 
HETATM    7  N4  UNL     1      24.410   1.753  52.592  1.00  0.00    -0.379 N 
HETATM    8  C13 UNL     1      22.994   1.759  52.851  1.00  0.00     0.161 C 
HETATM    9  C14 UNL     1      22.485   0.515  53.437  1.00  0.00    -0.004 A 
HETATM   10  C15 UNL     1      21.139   0.428  53.157  1.00  0.00     0.048 A 
HETATM   11  C16 UNL     1      20.348  -0.613  53.560  1.00  0.00     0.069 A 
HETATM   12  C18 UNL     1      20.953  -1.624  54.289  1.00  0.00     0.039 A 
HETATM   13  C19 UNL     1      22.293  -1.586  54.596  1.00  0.00     0.040 A 
HETATM   14  C20 UNL     1      23.057  -0.518  54.170  1.00  0.00     0.086 A 
HETATM   15  O2  UNL     1      24.395  -0.610  54.552  1.00  0.00    -0.289 OA
HETATM   16  H10 UNL     1      24.671   2.431  51.817  1.00  0.00     0.160 HD
ENDROOT
BRANCH   1  17
HETATM   17  N1  UNL     1      26.656   2.668  51.721  1.00  0.00    -0.349 N 
HETATM   18  H8  UNL     1      26.655   3.551  52.267  1.00  0.00     0.167 HD
BRANCH  17  19
HETATM   19  C8  UNL     1      26.545   2.713  50.313  1.00  0.00     0.090 C 
BRANCH  19  20
HETATM   20  C7  UNL     1      26.475   3.888  49.718  1.00  0.00     0.017 C 
BRANCH  20  21
HETATM   21  C6  UNL     1      25.209   4.480  49.331  1.00  0.00     0.002 C 
HETATM   22  C5  UNL     1      25.008   5.716  48.925  1.00  0.00     0.011 C 
BRANCH  22  23
HETATM   23  C4  UNL     1      26.067   6.700  48.802  1.00  0.00    -0.033 C 
HETATM   24  C3  UNL     1      27.084   7.158  47.915  1.00  0.00     0.061 C 
BRANCH  24  25
HETATM   25  C2  UNL     1      28.260   6.571  48.096  1.00  0.00    -0.154 C 
HETATM   26  C1  UNL     1      29.288   5.732  48.116  1.00  0.00     0.096 C 
ENDBRANCH  24  25
BRANCH  23  27
HETATM   27  C21 UNL     1      26.299   7.548  49.785  1.00  0.00    -0.019 C 
HETATM   28  C22 UNL     1      25.995   8.983  49.937  1.00  0.00     0.037 C 
ENDBRANCH  23  27
ENDBRANCH  22  23
ENDBRANCH  20  21
ENDBRANCH  19  20
ENDBRANCH  17  19
ENDBRANCH   1  17
BRANCH  11  29
HETATM   29  O1  UNL     1      19.000  -0.782  53.328  1.00  0.00    -0.356 OA
HETATM   30  C17 UNL     1      18.455  -0.264  52.122  1.00  0.00     0.210 C 
ENDBRANCH  11  29
TORSDOF 8
ENDMDL
MODEL 2
REMARK VINA RESULT:      -8.4      0.916      1.796
REMARK  8 active torsions:
REMARK  status: ('A' for Active; 'I' for Inactive)
REMARK    1  A    between atoms: C2_2  and  C3_3 
REMARK    2  A    between atoms: C4_4  and  C5_5 
REMARK    3  A    between atoms: C4_4  and  C21_27 
REMARK    4  A    between atoms: C6_6  and  C7_7 
REMARK    5  A    between atoms: C7_7  and  C8_8 
REMARK    6  A    between atoms: C8_8  and  N1_9 
REMARK    7  A    between atoms: N1_9  and  C9_10 
REMARK    8  A    between atoms: C16_20  and  O1_21 
ROOT
HETATM    1  C9  UNL     1      26.587   1.686  52.334  1.00  0.00     0.159 A 
HETATM    2  N2  UNL     1      27.733   1.080  52.740  1.00  0.00    -0.222 NA
HETATM    3  C10 UNL     1      27.653   0.043  53.588  1.00  0.00     0.238 A 
HETATM    4  N3  UNL     1      26.497  -0.458  54.080  1.00  0.00    -0.215 NA
HETATM    5  C11 UNL     1      25.326   0.109  53.706  1.00  0.00     0.202 A 
HETATM    6  C12 UNL     1      25.393   1.184  52.828  1.00  0.00     0.129 A 
HETATM    7  N4  UNL     1      24.220   1.856  52.370  1.00  0.00    -0.379 N 
HETATM    8  C13 UNL     1      22.810   1.860  52.664  1.00  0.00     0.161 C 
HETATM    9  C14 UNL     1      22.315   0.610  53.248  1.00  0.00    -0.004 A 
HETATM   10  C15 UNL     1      20.962   0.527  53.001  1.00  0.00     0.048 A 
HETATM   11  C16 UNL     1      20.181  -0.517  53.412  1.00  0.00     0.069 A 
HETATM   12  C18 UNL     1      20.802  -1.537  54.114  1.00  0.00     0.039 A 
HETATM   13  C19 UNL     1      22.149  -1.504  54.387  1.00  0.00     0.040 A 
HETATM   14  C20 UNL     1      22.903  -0.432  53.955  1.00  0.00     0.086 A 
HETATM   15  O2  UNL     1      24.251  -0.529  54.302  1.00  0.00    -0.289 OA
HETATM   16  H10 UNL     1      24.463   2.543  51.597  1.00  0.00     0.160 HD
ENDROOT
BRANCH   1  17
HETATM   17  N1  UNL     1      26.445   2.779  51.454  1.00  0.00    -0.349 N 
HETATM   18  H8  UNL     1      26.322   3.643  52.017  1.00  0.00     0.167 HD
BRANCH  17  19
HETATM   19  C8  UNL     1      26.446   2.853  50.043  1.00  0.00     0.090 C 
BRANCH  19  20
HETATM   20  C7  UNL     1      26.373   4.039  49.469  1.00  0.00     0.017 C 
BRANCH  20  21
HETATM   21  C6  UNL     1      27.509   4.638  48.796  1.00  0.00     0.002 C 
HETATM   22  C5  UNL     1      27.669   5.911  48.500  1.00  0.00     0.011 C 
BRANCH  22  23
HETATM   23  C4  UNL     1      26.692   6.935  48.820  1.00  0.00    -0.033 C 
HETATM   24  C3  UNL     1      26.225   7.754  49.888  1.00  0.00     0.061 C 
BRANCH  24  25
HETATM   25  C2  UNL     1      25.228   7.218  50.582  1.00  0.00    -0.154 C 
HETATM   26  C1  UNL     1      24.383   6.396  51.191  1.00  0.00     0.096 C 
ENDBRANCH  24  25
BRANCH  23  27
HETATM   27  C21 UNL     1      25.861   7.369  47.893  1.00  0.00    -0.019 C 
HETATM   28  C22 UNL     1      26.087   8.123  46.646  1.00  0.00     0.037 C 
ENDBRANCH  23  27
ENDBRANCH  22  23
ENDBRANCH  20  21
ENDBRANCH  19  20
ENDBRANCH  17  19
ENDBRANCH   1  17
BRANCH  11  29
HETATM   29  O1  UNL     1      18.827  -0.682  53.210  1.00  0.00    -0.356 OA
HETATM   30  C17 UNL     1      18.227  -1.899  53.633  1.00  0.00     0.210 C 
ENDBRANCH  11  29
TORSDOF 8
ENDMDL
MODEL 3
REMARK VINA RESULT:      -8.3      2.784      4.931
REMARK  8 active torsions:
REMARK  status: ('A' for Active; 'I' for Inactive)
REMARK    1  A    between atoms: C2_2  and  C3_3 
REMARK    2  A    between atoms: C4_4  and  C5_5 
REMARK    3  A    between atoms: C4_4  and  C21_27 
REMARK    4  A    between atoms: C6_6  and  C7_7 
REMARK    5  A    between atoms: C7_7  and  C8_8 
REMARK    6  A    between atoms: C8_8  and  N1_9 
REMARK    7  A    between atoms: N1_9  and  C9_10 
REMARK    8  A    between atoms: C16_20  and  O1_21 
ROOT
HETATM    1  C9  UNL     1      23.832   5.131  51.223  1.00  0.00     0.159 A 
HETATM    2  N2  UNL     1      22.527   5.437  51.443  1.00  0.00    -0.222 NA
HETATM    3  C10 UNL     1      21.710   4.486  51.921  1.00  0.00     0.238 A 
HETATM    4  N3  UNL     1      22.091   3.220  52.207  1.00  0.00    -0.215 NA
HETATM    5  C11 UNL     1      23.381   2.864  52.005  1.00  0.00     0.202 A 
HETATM    6  C12 UNL     1      24.239   3.838  51.511  1.00  0.00     0.129 A 
HETATM    7  N4  UNL     1      25.618   3.569  51.262  1.00  0.00    -0.379 N 
HETATM    8  C13 UNL     1      26.494   2.426  51.232  1.00  0.00     0.161 C 
HETATM    9  C14 UNL     1      26.044   1.304  52.061  1.00  0.00    -0.004 A 
HETATM   10  C15 UNL     1      27.142   0.532  52.372  1.00  0.00     0.048 A 
HETATM   11  C16 UNL     1      27.079  -0.601  53.135  1.00  0.00     0.069 A 
HETATM   12  C18 UNL     1      25.833  -0.978  53.610  1.00  0.00     0.039 A 
HETATM   13  C19 UNL     1      24.705  -0.244  53.329  1.00  0.00     0.040 A 
HETATM   14  C20 UNL     1      24.811   0.894  52.556  1.00  0.00     0.086 A 
HETATM   15  O2  UNL     1      23.591   1.538  52.350  1.00  0.00    -0.289 OA
HETATM   16  H10 UNL     1      26.137   4.468  51.035  1.00  0.00     0.160 HD
ENDROOT
BRANCH   1  17
HETATM   17  N1  UNL     1      24.853   5.972  50.732  1.00  0.00    -0.349 N 
HETATM   18  H8  UNL     1      25.766   5.624  51.084  1.00  0.00     0.167 HD
BRANCH  17  19
HETATM   19  C8  UNL     1      24.807   7.116  49.904  1.00  0.00     0.090 C 
BRANCH  19  20
HETATM   20  C7  UNL     1      24.961   6.965  48.603  1.00  0.00     0.017 C 
BRANCH  20  21
HETATM   21  C6  UNL     1      25.198   8.091  47.721  1.00  0.00     0.002 C 
HETATM   22  C5  UNL     1      26.367   8.576  47.357  1.00  0.00     0.011 C 
BRANCH  22  23
HETATM   23  C4  UNL     1      27.634   8.030  47.805  1.00  0.00    -0.033 C 
HETATM   24  C3  UNL     1      28.586   7.008  47.520  1.00  0.00     0.061 C 
BRANCH  24  25
HETATM   25  C2  UNL     1      28.374   5.875  48.179  1.00  0.00    -0.154 C 
HETATM   26  C1  UNL     1      27.868   4.756  48.680  1.00  0.00     0.096 C 
ENDBRANCH  24  25
BRANCH  23  27
HETATM   27  C21 UNL     1      28.253   8.559  48.841  1.00  0.00    -0.019 C 
HETATM   28  C22 UNL     1      27.755   9.321  50.001  1.00  0.00     0.037 C 
ENDBRANCH  23  27
ENDBRANCH  22  23
ENDBRANCH  20  21
ENDBRANCH  19  20
ENDBRANCH  17  19
ENDBRANCH   1  17
BRANCH  11  29
HETATM   29  O1  UNL     1      28.120  -1.430  53.494  1.00  0.00    -0.356 OA
HETATM   30  C17 UNL     1      29.422  -0.870  53.596  1.00  0.00     0.210 C 
ENDBRANCH  11  29
TORSDOF 8
ENDMDL
MODEL 4
REMARK VINA RESULT:      -8.2      2.791      5.094
REMARK  8 active torsions:
REMARK  status: ('A' for Active; 'I' for Inactive)
REMARK    1  A    between atoms: C2_2  and  C3_3 
REMARK    2  A    between atoms: C4_4  and  C5_5 
REMARK    3  A    between atoms: C4_4  and  C21_27 
REMARK    4  A    between atoms: C6_6  and  C7_7 
REMARK    5  A    between atoms: C7_7  and  C8_8 
REMARK    6  A    between atoms: C8_8  and  N1_9 
REMARK    7  A    between atoms: N1_9  and  C9_10 
REMARK    8  A    between atoms: C16_20  and  O1_21 
ROOT
HETATM    1  C9  UNL     1      24.062   5.180  51.064  1.00  0.00     0.159 A 
HETATM    2  N2  UNL     1      22.775   5.570  51.262  1.00  0.00    -0.222 NA
HETATM    3  C10 UNL     1      21.905   4.692  51.784  1.00  0.00     0.238 A 
HETATM    4  N3  UNL     1      22.213   3.422  52.135  1.00  0.00    -0.215 NA
HETATM    5  C11 UNL     1      23.482   2.984  51.958  1.00  0.00     0.202 A 
HETATM    6  C12 UNL     1      24.394   3.882  51.419  1.00  0.00     0.129 A 
HETATM    7  N4  UNL     1      25.757   3.524  51.190  1.00  0.00    -0.379 N 
HETATM    8  C13 UNL     1      26.566   2.333  51.222  1.00  0.00     0.161 C 
HETATM    9  C14 UNL     1      26.052   1.282  52.105  1.00  0.00    -0.004 A 
HETATM   10  C15 UNL     1      27.104   0.467  52.460  1.00  0.00     0.048 A 
HETATM   11  C16 UNL     1      26.976  -0.621  53.279  1.00  0.00     0.069 A 
HETATM   12  C18 UNL     1      25.711  -0.903  53.767  1.00  0.00     0.039 A 
HETATM   13  C19 UNL     1      24.626  -0.121  53.444  1.00  0.00     0.040 A 
HETATM   14  C20 UNL     1      24.797   0.968  52.614  1.00  0.00     0.086 A 
HETATM   15  O2  UNL     1      23.616   1.668  52.371  1.00  0.00    -0.289 OA
HETATM   16  H10 UNL     1      26.326   4.379  50.920  1.00  0.00     0.160 HD
ENDROOT
BRANCH   1  17
HETATM   17  N1  UNL     1      25.128   5.936  50.535  1.00  0.00    -0.349 N 
HETATM   18  H8  UNL     1      25.725   6.261  51.321  1.00  0.00     0.167 HD
BRANCH  17  19
HETATM   19  C8  UNL     1      25.465   6.280  49.206  1.00  0.00     0.090 C 
BRANCH  19  20
HETATM   20  C7  UNL     1      26.727   6.533  48.917  1.00  0.00     0.017 C 
BRANCH  20  21
HETATM   21  C6  UNL     1      27.654   5.484  48.538  1.00  0.00     0.002 C 
HETATM   22  C5  UNL     1      28.890   5.640  48.111  1.00  0.00     0.011 C 
BRANCH  22  23
HETATM   23  C4  UNL     1      29.523   6.935  47.952  1.00  0.00    -0.033 C 
HETATM   24  C3  UNL     1      30.234   7.939  48.672  1.00  0.00     0.061 C 
BRANCH  24  25
HETATM   25  C2  UNL     1      29.457   8.882  49.191  1.00  0.00    -0.154 C 
HETATM   26  C1  UNL     1      28.437   9.617  49.613  1.00  0.00     0.096 C 
ENDBRANCH  24  25
BRANCH  23  27
HETATM   27  C21 UNL     1      29.524   7.532  46.776  1.00  0.00    -0.019 C 
HETATM   28  C22 UNL     1      28.434   8.098  45.961  1.00  0.00     0.037 C 
ENDBRANCH  23  27
ENDBRANCH  22  23
ENDBRANCH  20  21
ENDBRANCH  19  20
ENDBRANCH  17  19
ENDBRANCH   1  17
BRANCH  11  29
HETATM   29  O1  UNL     1      27.968  -1.488  53.684  1.00  0.00    -0.356 OA
HETATM   30  C17 UNL     1      29.316  -1.161  53.374  1.00  0.00     0.210 C 
ENDBRANCH  11  29
TORSDOF 8
ENDMDL
MODEL 5
REMARK VINA RESULT:      -8.0      2.868      5.542
REMARK  8 active torsions:
REMARK  status: ('A' for Active; 'I' for Inactive)
REMARK    1  A    between atoms: C2_2  and  C3_3 
REMARK    2  A    between atoms: C4_4  and  C5_5 
REMARK    3  A    between atoms: C4_4  and  C21_27 
REMARK    4  A    between atoms: C6_6  and  C7_7 
REMARK    5  A    between atoms: C7_7  and  C8_8 
REMARK    6  A    between atoms: C8_8  and  N1_9 
REMARK    7  A    between atoms: N1_9  and  C9_10 
REMARK    8  A    between atoms: C16_20  and  O1_21 
ROOT
HETATM    1  C9  UNL     1      25.368   6.478  50.149  1.00  0.00     0.159 A 
HETATM    2  N2  UNL     1      24.348   7.374  50.197  1.00  0.00    -0.222 NA
HETATM    3  C10 UNL     1      23.147   6.967  50.634  1.00  0.00     0.238 A 
HETATM    4  N3  UNL     1      22.865   5.708  51.041  1.00  0.00    -0.215 NA
HETATM    5  C11 UNL     1      23.847   4.776  51.013  1.00  0.00     0.202 A 
HETATM    6  C12 UNL     1      25.096   5.183  50.562  1.00  0.00     0.129 A 
HETATM    7  N4  UNL     1      26.201   4.283  50.491  1.00  0.00    -0.379 N 
HETATM    8  C13 UNL     1      26.435   2.869  50.635  1.00  0.00     0.161 C 
HETATM    9  C14 UNL     1      25.450   2.180  51.474  1.00  0.00    -0.004 A 
HETATM   10  C15 UNL     1      26.030   1.027  51.958  1.00  0.00     0.048 A 
HETATM   11  C16 UNL     1      25.385   0.142  52.777  1.00  0.00     0.069 A 
HETATM   12  C18 UNL     1      24.078   0.438  53.128  1.00  0.00     0.039 A 
HETATM   13  C19 UNL     1      23.452   1.574  52.672  1.00  0.00     0.040 A 
HETATM   14  C20 UNL     1      24.137   2.443  51.847  1.00  0.00     0.086 A 
HETATM   15  O2  UNL     1      23.382   3.550  51.462  1.00  0.00    -0.289 OA
HETATM   16  H10 UNL     1      27.096   4.809  50.271  1.00  0.00     0.160 HD
ENDROOT
BRANCH   1  17
HETATM   17  N1  UNL     1      26.696   6.693  49.728  1.00  0.00    -0.349 N 
HETATM   18  H8  UNL     1      27.320   6.057  50.262  1.00  0.00     0.167 HD
BRANCH  17  19
HETATM   19  C8  UNL     1      27.245   7.574  48.769  1.00  0.00     0.090 C 
BRANCH  19  20
HETATM   20  C7  UNL     1      28.086   7.094  47.873  1.00  0.00     0.017 C 
BRANCH  20  21
HETATM   21  C6  UNL     1      28.792   5.844  48.074  1.00  0.00     0.002 C 
HETATM   22  C5  UNL     1      30.076   5.696  48.327  1.00  0.00     0.011 C 
BRANCH  22  23
HETATM   23  C4  UNL     1      31.002   6.806  48.443  1.00  0.00    -0.033 C 
HETATM   24  C3  UNL     1      31.495   7.771  49.369  1.00  0.00     0.061 C 
BRANCH  24  25
HETATM   25  C2  UNL     1      30.821   8.915  49.365  1.00  0.00    -0.154 C 
HETATM   26  C1  UNL     1      30.330  10.115  49.088  1.00  0.00     0.096 C 
ENDBRANCH  24  25
BRANCH  23  27
HETATM   27  C21 UNL     1      31.718   7.183  47.403  1.00  0.00    -0.019 C 
HETATM   28  C22 UNL     1      31.358   7.411  45.991  1.00  0.00     0.037 C 
ENDBRANCH  23  27
ENDBRANCH  22  23
ENDBRANCH  20  21
ENDBRANCH  19  20
ENDBRANCH  17  19
ENDBRANCH   1  17
BRANCH  11  29
HETATM   29  O1  UNL     1      25.885  -1.029  53.306  1.00  0.00    -0.356 OA
HETATM   30  C17 UNL     1      26.873  -1.733  52.568  1.00  0.00     0.210 C 
ENDBRANCH  11  29
TORSDOF 8
ENDMDL
MODEL 6
REMARK VINA RESULT:      -7.9      2.530      5.138
REMARK  8 active torsions:
REMARK  status: ('A' for Active; 'I' for Inactive)
REMARK    1  A    between atoms: C2_2  and  C3_3 
REMARK    2  A    between atoms: C4_4  and  C5_5 
REMARK    3  A    between atoms: C4_4  and  C21_27 
REMARK    4  A    between atoms: C6_6  and  C7_7 
REMARK    5  A    between atoms: C7_7  and  C8_8 
REMARK    6  A    between atoms: C8_8  and  N1_9 
REMARK    7  A    between atoms: N1_9  and  C9_10 
REMARK    8  A    between atoms: C16_20  and  O1_21 
ROOT
HETATM    1  C9  UNL     1      21.392   4.453  51.701  1.00  0.00     0.159 A 
HETATM    2  N2  UNL     1      20.137   4.120  51.303  1.00  0.00    -0.222 NA
HETATM    3  C10 UNL     1      19.797   2.823  51.247  1.00  0.00     0.238 A 
HETATM    4  N3  UNL     1      20.623   1.799  51.563  1.00  0.00    -0.215 NA
HETATM    5  C11 UNL     1      21.885   2.077  51.966  1.00  0.00     0.202 A 
HETATM    6  C12 UNL     1      22.251   3.416  52.029  1.00  0.00     0.129 A 
HETATM    7  N4  UNL     1      23.557   3.820  52.440  1.00  0.00    -0.379 N 
HETATM    8  C13 UNL     1      24.825   3.199  52.725  1.00  0.00     0.161 C 
HETATM    9  C14 UNL     1      24.728   1.796  53.135  1.00  0.00    -0.004 A 
HETATM   10  C15 UNL     1      25.857   1.480  53.859  1.00  0.00     0.048 A 
HETATM   11  C16 UNL     1      26.093   0.244  54.393  1.00  0.00     0.069 A 
HETATM   12  C18 UNL     1      25.131  -0.731  54.185  1.00  0.00     0.039 A 
HETATM   13  C19 UNL     1      23.986  -0.470  53.470  1.00  0.00     0.040 A 
HETATM   14  C20 UNL     1      23.785   0.791  52.947  1.00  0.00     0.086 A 
HETATM   15  O2  UNL     1      22.585   0.915  52.247  1.00  0.00    -0.289 OA
HETATM   16  H10 UNL     1      23.596   4.874  52.569  1.00  0.00     0.160 HD
ENDROOT
BRANCH   1  17
HETATM   17  N1  UNL     1      21.951   5.741  51.831  1.00  0.00    -0.349 N 
HETATM   18  H8  UNL     1      22.576   5.749  52.661  1.00  0.00     0.167 HD
BRANCH  17  19
HETATM   19  C8  UNL     1      21.792   6.914  51.060  1.00  0.00     0.090 C 
BRANCH  19  20
HETATM   20  C7  UNL     1      22.788   7.309  50.291  1.00  0.00     0.017 C 
BRANCH  20  21
HETATM   21  C6  UNL     1      24.057   7.744  50.840  1.00  0.00     0.002 C 
HETATM   22  C5  UNL     1      25.256   7.354  50.460  1.00  0.00     0.011 C 
BRANCH  22  23
HETATM   23  C4  UNL     1      25.485   6.396  49.396  1.00  0.00    -0.033 C 
HETATM   24  C3  UNL     1      25.145   5.078  48.972  1.00  0.00     0.061 C 
BRANCH  24  25
HETATM   25  C2  UNL     1      25.991   4.144  49.389  1.00  0.00    -0.154 C 
HETATM   26  C1  UNL     1      26.602   3.004  49.687  1.00  0.00     0.096 C 
ENDBRANCH  24  25
BRANCH  23  27
HETATM   27  C21 UNL     1      26.271   6.706  48.383  1.00  0.00    -0.019 C 
HETATM   28  C22 UNL     1      26.241   7.824  47.422  1.00  0.00     0.037 C 
ENDBRANCH  23  27
ENDBRANCH  22  23
ENDBRANCH  20  21
ENDBRANCH  19  20
ENDBRANCH  17  19
ENDBRANCH   1  17
BRANCH  11  29
HETATM   29  O1  UNL     1      27.188  -0.159  55.126  1.00  0.00    -0.356 OA
HETATM   30  C17 UNL     1      28.471   0.305  54.729  1.00  0.00     0.210 C 
ENDBRANCH  11  29
TORSDOF 8
ENDMDL
MODEL 7
REMARK VINA RESULT:      -7.9      1.797      2.925
REMARK  8 active torsions:
REMARK  status: ('A' for Active; 'I' for Inactive)
REMARK    1  A    between atoms: C2_2  and  C3_3 
REMARK    2  A    between atoms: C4_4  and  C5_5 
REMARK    3  A    between atoms: C4_4  and  C21_27 
REMARK    4  A    between atoms: C6_6  and  C7_7 
REMARK    5  A    between atoms: C7_7  and  C8_8 
REMARK    6  A    between atoms: C8_8  and  N1_9 
REMARK    7  A    between atoms: N1_9  and  C9_10 
REMARK    8  A    between atoms: C16_20  and  O1_21 
ROOT
HETATM    1  C9  UNL     1      26.469   1.571  52.653  1.00  0.00     0.159 A 
HETATM    2  N2  UNL     1      27.599   0.911  53.018  1.00  0.00    -0.222 NA
HETATM    3  C10 UNL     1      27.491  -0.191  53.775  1.00  0.00     0.238 A 
HETATM    4  N3  UNL     1      26.321  -0.708  54.214  1.00  0.00    -0.215 NA
HETATM    5  C11 UNL     1      25.165  -0.089  53.878  1.00  0.00     0.202 A 
HETATM    6  C12 UNL     1      25.261   1.053  53.094  1.00  0.00     0.129 A 
HETATM    7  N4  UNL     1      24.106   1.783  52.683  1.00  0.00    -0.379 N 
HETATM    8  C13 UNL     1      22.693   1.790  52.965  1.00  0.00     0.161 C 
HETATM    9  C14 UNL     1      22.169   0.506  53.438  1.00  0.00    -0.004 A 
HETATM   10  C15 UNL     1      20.817   0.471  53.173  1.00  0.00     0.048 A 
HETATM   11  C16 UNL     1      20.012  -0.589  53.489  1.00  0.00     0.069 A 
HETATM   12  C18 UNL     1      20.606  -1.676  54.109  1.00  0.00     0.039 A 
HETATM   13  C19 UNL     1      21.951  -1.691  54.396  1.00  0.00     0.040 A 
HETATM   14  C20 UNL     1      22.730  -0.602  54.061  1.00  0.00     0.086 A 
HETATM   15  O2  UNL     1      24.072  -0.754  54.410  1.00  0.00    -0.289 OA
HETATM   16  H10 UNL     1      24.369   2.527  51.972  1.00  0.00     0.160 HD
ENDROOT
BRANCH   1  17
HETATM   17  N1  UNL     1      26.356   2.736  51.867  1.00  0.00    -0.349 N 
HETATM   18  H8  UNL     1      25.963   3.496  52.455  1.00  0.00     0.167 HD
BRANCH  17  19
HETATM   19  C8  UNL     1      26.675   2.988  50.513  1.00  0.00     0.090 C 
BRANCH  19  20
HETATM   20  C7  UNL     1      25.713   3.367  49.694  1.00  0.00     0.017 C 
BRANCH  20  21
HETATM   21  C6  UNL     1      25.500   4.759  49.350  1.00  0.00     0.002 C 
HETATM   22  C5  UNL     1      24.386   5.299  48.900  1.00  0.00     0.011 C 
BRANCH  22  23
HETATM   23  C4  UNL     1      23.167   4.547  48.677  1.00  0.00    -0.033 C 
HETATM   24  C3  UNL     1      22.638   3.448  47.940  1.00  0.00     0.061 C 
BRANCH  24  25
HETATM   25  C2  UNL     1      22.114   3.787  46.769  1.00  0.00    -0.154 C 
HETATM   26  C1  UNL     1      21.602   3.797  45.545  1.00  0.00     0.096 C 
ENDBRANCH  24  25
BRANCH  23  27
HETATM   27  C21 UNL     1      22.059   4.880  49.310  1.00  0.00    -0.019 C 
HETATM   28  C22 UNL     1      21.455   4.386  50.561  1.00  0.00     0.037 C 
ENDBRANCH  23  27
ENDBRANCH  22  23
ENDBRANCH  20  21
ENDBRANCH  19  20
ENDBRANCH  17  19
ENDBRANCH   1  17
BRANCH  11  29
HETATM   29  O1  UNL     1      18.657  -0.710  53.263  1.00  0.00    -0.356 OA
HETATM   30  C17 UNL     1      18.042  -1.965  53.520  1.00  0.00     0.210 C 
ENDBRANCH  11  29
TORSDOF 8
ENDMDL
MODEL 8
REMARK VINA RESULT:      -7.7      2.539      4.928
REMARK  8 active torsions:
REMARK  status: ('A' for Active; 'I' for Inactive)
REMARK    1  A    between atoms: C2_2  and  C3_3 
REMARK    2  A    between atoms: C4_4  and  C5_5 
REMARK    3  A    between atoms: C4_4  and  C21_27 
REMARK    4  A    between atoms: C6_6  and  C7_7 
REMARK    5  A    between atoms: C7_7  and  C8_8 
REMARK    6  A    between atoms: C8_8  and  N1_9 
REMARK    7  A    between atoms: N1_9  and  C9_10 
REMARK    8  A    between atoms: C16_20  and  O1_21 
ROOT
HETATM    1  C9  UNL     1      25.928   5.380  49.176  1.00  0.00     0.159 A 
HETATM    2  N2  UNL     1      24.983   6.063  48.478  1.00  0.00    -0.222 NA
HETATM    3  C10 UNL     1      23.722   5.605  48.477  1.00  0.00     0.238 A 
HETATM    4  N3  UNL     1      23.307   4.495  49.130  1.00  0.00    -0.215 NA
HETATM    5  C11 UNL     1      24.210   3.779  49.841  1.00  0.00     0.202 A 
HETATM    6  C12 UNL     1      25.520   4.240  49.851  1.00  0.00     0.129 A 
HETATM    7  N4  UNL     1      26.551   3.562  50.568  1.00  0.00    -0.379 N 
HETATM    8  C13 UNL     1      26.718   2.316  51.271  1.00  0.00     0.161 C 
HETATM    9  C14 UNL     1      25.471   1.750  51.795  1.00  0.00    -0.004 A 
HETATM   10  C15 UNL     1      25.787   0.911  52.841  1.00  0.00     0.048 A 
HETATM   11  C16 UNL     1      24.855   0.213  53.558  1.00  0.00     0.069 A 
HETATM   12  C18 UNL     1      23.527   0.372  53.198  1.00  0.00     0.039 A 
HETATM   13  C19 UNL     1      23.158   1.197  52.162  1.00  0.00     0.040 A 
HETATM   14  C20 UNL     1      24.128   1.885  51.462  1.00  0.00     0.086 A 
HETATM   15  O2  UNL     1      23.613   2.682  50.441  1.00  0.00    -0.289 OA
HETATM   16  H10 UNL     1      27.440   4.143  50.581  1.00  0.00     0.160 HD
ENDROOT
BRANCH   1  17
HETATM   17  N1  UNL     1      27.299   5.683  49.312  1.00  0.00    -0.349 N 
HETATM   18  H8  UNL     1      27.465   6.044  50.271  1.00  0.00     0.167 HD
BRANCH  17  19
HETATM   19  C8  UNL     1      28.377   5.574  48.404  1.00  0.00     0.090 C 
BRANCH  19  20
HETATM   20  C7  UNL     1      28.891   6.676  47.894  1.00  0.00     0.017 C 
BRANCH  20  21
HETATM   21  C6  UNL     1      28.103   7.594  47.094  1.00  0.00     0.002 C 
HETATM   22  C5  UNL     1      28.031   8.901  47.235  1.00  0.00     0.011 C 
BRANCH  22  23
HETATM   23  C4  UNL     1      28.759   9.637  48.250  1.00  0.00    -0.033 C 
HETATM   24  C3  UNL     1      30.018  10.252  48.513  1.00  0.00     0.061 C 
BRANCH  24  25
HETATM   25  C2  UNL     1      30.897   9.450  49.100  1.00  0.00    -0.154 C 
HETATM   26  C1  UNL     1      31.560   8.411  49.593  1.00  0.00     0.096 C 
ENDBRANCH  24  25
BRANCH  23  27
HETATM   27  C21 UNL     1      28.187   9.915  49.405  1.00  0.00    -0.019 C 
HETATM   28  C22 UNL     1      27.249   9.149  50.247  1.00  0.00     0.037 C 
ENDBRANCH  23  27
ENDBRANCH  22  23
ENDBRANCH  20  21
ENDBRANCH  19  20
ENDBRANCH  17  19
ENDBRANCH   1  17
BRANCH  11  29
HETATM   29  O1  UNL     1      25.078  -0.645  54.614  1.00  0.00    -0.356 OA
HETATM   30  C17 UNL     1      23.953  -1.211  55.272  1.00  0.00     0.210 C 
ENDBRANCH  11  29
TORSDOF 8
ENDMDL
MODEL 9
REMARK VINA RESULT:      -7.7      2.810      5.622
REMARK  8 active torsions:
REMARK  status: ('A' for Active; 'I' for Inactive)
REMARK    1  A    between atoms: C2_2  and  C3_3 
REMARK    2  A    between atoms: C4_4  and  C5_5 
REMARK    3  A    between atoms: C4_4  and  C21_27 
REMARK    4  A    between atoms: C6_6  and  C7_7 
REMARK    5  A    between atoms: C7_7  and  C8_8 
REMARK    6  A    between atoms: C8_8  and  N1_9 
REMARK    7  A    between atoms: N1_9  and  C9_10 
REMARK    8  A    between atoms: C16_20  and  O1_21 
ROOT
HETATM    1  C9  UNL     1      25.820   5.055  49.370  1.00  0.00     0.159 A 
HETATM    2  N2  UNL     1      24.825   5.800  48.821  1.00  0.00    -0.222 NA
HETATM    3  C10 UNL     1      23.554   5.395  48.970  1.00  0.00     0.238 A 
HETATM    4  N3  UNL     1      23.177   4.281  49.639  1.00  0.00    -0.215 NA
HETATM    5  C11 UNL     1      24.130   3.504  50.206  1.00  0.00     0.202 A 
HETATM    6  C12 UNL     1      25.450   3.910  50.059  1.00  0.00     0.129 A 
HETATM    7  N4  UNL     1      26.533   3.165  50.615  1.00  0.00    -0.379 N 
HETATM    8  C13 UNL     1      26.733   1.890  51.254  1.00  0.00     0.161 C 
HETATM    9  C14 UNL     1      25.540   1.359  51.919  1.00  0.00    -0.004 A 
HETATM   10  C15 UNL     1      25.949   0.471  52.890  1.00  0.00     0.048 A 
HETATM   11  C16 UNL     1      25.086  -0.212  53.702  1.00  0.00     0.069 A 
HETATM   12  C18 UNL     1      23.732   0.014  53.523  1.00  0.00     0.039 A 
HETATM   13  C19 UNL     1      23.270   0.889  52.568  1.00  0.00     0.040 A 
HETATM   14  C20 UNL     1      24.172   1.560  51.768  1.00  0.00     0.086 A 
HETATM   15  O2  UNL     1      23.567   2.412  50.846  1.00  0.00    -0.289 OA
HETATM   16  H10 UNL     1      27.442   3.709  50.529  1.00  0.00     0.160 HD
ENDROOT
BRANCH   1  17
HETATM   17  N1  UNL     1      27.209   5.297  49.334  1.00  0.00    -0.349 N 
HETATM   18  H8  UNL     1      27.541   5.463  50.304  1.00  0.00     0.167 HD
BRANCH  17  19
HETATM   19  C8  UNL     1      28.125   5.340  48.259  1.00  0.00     0.090 C 
BRANCH  19  20
HETATM   20  C7  UNL     1      29.315   5.873  48.461  1.00  0.00     0.017 C 
BRANCH  20  21
HETATM   21  C6  UNL     1      29.910   6.802  47.521  1.00  0.00     0.002 C 
HETATM   22  C5  UNL     1      31.147   6.784  47.069  1.00  0.00     0.011 C 
BRANCH  22  23
HETATM   23  C4  UNL     1      32.128   5.791  47.465  1.00  0.00    -0.033 C 
HETATM   24  C3  UNL     1      33.009   5.437  48.528  1.00  0.00     0.061 C 
BRANCH  24  25
HETATM   25  C2  UNL     1      34.230   5.944  48.406  1.00  0.00    -0.154 C 
HETATM   26  C1  UNL     1      35.436   6.455  48.617  1.00  0.00     0.096 C 
ENDBRANCH  24  25
BRANCH  23  27
HETATM   27  C21 UNL     1      32.423   4.793  46.656  1.00  0.00    -0.019 C 
HETATM   28  C22 UNL     1      32.069   3.362  46.691  1.00  0.00     0.037 C 
ENDBRANCH  23  27
ENDBRANCH  22  23
ENDBRANCH  20  21
ENDBRANCH  19  20
ENDBRANCH  17  19
ENDBRANCH   1  17
BRANCH  11  29
HETATM   29  O1  UNL     1      25.405  -1.115  54.695  1.00  0.00    -0.356 OA
HETATM   30  C17 UNL     1      24.489  -1.287  55.767  1.00  0.00     0.210 C 
ENDBRANCH  11  29
TORSDOF 8
ENDMDL
