MODEL 1
REMARK VINA RESULT:      -8.9      0.000      0.000
REMARK  2 active torsions:
REMARK  status: ('A' for Active; 'I' for Inactive)
REMARK    1  A    between atoms: N1_2  and  C2_3 
REMARK    2  A    between atoms: C11_16  and  C12_17 
ROOT
HETATM    1  C2  UNL     1      23.066   5.436  51.376  1.00  0.00     0.722 A 
HETATM    2  N2  UNL     1      22.933   4.168  51.799  1.00  0.00    -0.075 NA
HETATM    3  C3  UNL     1      23.857   3.233  51.511  1.00  0.00     0.148 A 
HETATM    4  C4  UNL     1      24.990   3.482  50.775  1.00  0.00     0.025 A 
HETATM    5  C5  UNL     1      25.071   4.819  50.364  1.00  0.00     0.101 A 
HETATM    6  N3  UNL     1      24.144   5.781  50.647  1.00  0.00    -0.062 NA
HETATM    7  C6  UNL     1      26.193   5.306  49.569  1.00  0.00     0.047 A 
HETATM    8  C7  UNL     1      26.305   6.615  49.147  1.00  0.00     0.020 A 
HETATM    9  C8  UNL     1      27.429   6.917  48.401  1.00  0.00     0.020 A 
HETATM   10  C9  UNL     1      28.409   5.996  48.075  1.00  0.00     0.119 A 
HETATM   11  N4  UNL     1      28.229   4.741  48.522  1.00  0.00    -0.236 NA
HETATM   12  C10 UNL     1      27.164   4.384  49.247  1.00  0.00     0.177 A 
HETATM   13  O1  UNL     1      27.063   3.089  49.658  1.00  0.00    -0.317 OA
HETATM   14  C11 UNL     1      26.027   2.519  50.430  1.00  0.00     0.216 A 
ENDROOT
BRANCH  14  15
HETATM   15  C12 UNL     1      26.645   1.821  51.609  1.00  0.00     0.036 C 
HETATM   16  C13 UNL     1      26.355   0.505  51.619  1.00  0.00     0.005 C 
HETATM   17  C14 UNL     1      26.646  -0.701  52.471  1.00  0.00     0.056 C 
HETATM   18  C15 UNL     1      27.953  -0.595  53.164  1.00  0.00    -0.027 C 
HETATM   19  C16 UNL     1      28.652   0.261  53.896  1.00  0.00    -0.029 C 
HETATM   20  C17 UNL     1      28.382   1.651  54.394  1.00  0.00     0.046 C 
HETATM   21  C18 UNL     1      28.633   2.571  53.199  1.00  0.00     0.123 C 
HETATM   22  N5  UNL     1      27.406   2.661  52.470  1.00  0.00    -0.391 N 
HETATM   23  H19 UNL     1      26.853   3.572  52.544  1.00  0.00     0.159 HD
ENDBRANCH  14  15
BRANCH   1  24
HETATM   24  N1  UNL     1      22.040   6.350  51.730  1.00  0.00    -0.227 N 
HETATM   25  C1  UNL     1      21.556   7.282  50.758  1.00  0.00     0.165 C 
HETATM   26  H4  UNL     1      21.671   6.302  52.718  1.00  0.00     0.177 HD
ENDBRANCH   1  24
TORSDOF 2
ENDMDL
MODEL 2
REMARK VINA RESULT:      -8.6      3.097      7.408
REMARK  2 active torsions:
REMARK  status: ('A' for Active; 'I' for Inactive)
REMARK    1  A    between atoms: N1_2  and  C2_3 
REMARK    2  A    between atoms: C11_16  and  C12_17 
ROOT
HETATM    1  C2  UNL     1      26.641   0.124  53.969  1.00  0.00     0.722 A 
HETATM    2  N2  UNL     1      27.029   0.859  52.913  1.00  0.00    -0.075 NA
HETATM    3  C3  UNL     1      26.142   1.292  51.998  1.00  0.00     0.148 A 
HETATM    4  C4  UNL     1      24.794   1.029  52.057  1.00  0.00     0.025 A 
HETATM    5  C5  UNL     1      24.454   0.260  53.179  1.00  0.00     0.101 A 
HETATM    6  N3  UNL     1      25.340  -0.187  54.117  1.00  0.00    -0.062 NA
HETATM    7  C6  UNL     1      23.075  -0.138  53.440  1.00  0.00     0.047 A 
HETATM    8  C7  UNL     1      22.704  -0.893  54.534  1.00  0.00     0.020 A 
HETATM    9  C8  UNL     1      21.357  -1.187  54.639  1.00  0.00     0.020 A 
HETATM   10  C9  UNL     1      20.404  -0.769  53.728  1.00  0.00     0.119 A 
HETATM   11  N4  UNL     1      20.843  -0.037  52.689  1.00  0.00    -0.236 NA
HETATM   12  C10 UNL     1      22.132   0.282  52.529  1.00  0.00     0.177 A 
HETATM   13  O1  UNL     1      22.487   1.027  51.446  1.00  0.00    -0.317 OA
HETATM   14  C11 UNL     1      23.785   1.467  51.104  1.00  0.00     0.216 A 
ENDROOT
BRANCH  14  15
HETATM   15  C12 UNL     1      23.737   2.954  50.888  1.00  0.00     0.036 C 
HETATM   16  C13 UNL     1      23.110   3.586  51.901  1.00  0.00     0.005 C 
HETATM   17  C14 UNL     1      22.742   4.993  52.287  1.00  0.00     0.056 C 
HETATM   18  C15 UNL     1      23.702   5.990  51.754  1.00  0.00    -0.027 C 
HETATM   19  C16 UNL     1      24.310   6.315  50.621  1.00  0.00    -0.029 C 
HETATM   20  C17 UNL     1      24.278   5.742  49.235  1.00  0.00     0.046 C 
HETATM   21  C18 UNL     1      25.172   4.503  49.281  1.00  0.00     0.123 C 
HETATM   22  N5  UNL     1      24.350   3.405  49.686  1.00  0.00    -0.391 N 
HETATM   23  H19 UNL     1      24.080   2.688  48.941  1.00  0.00     0.159 HD
ENDBRANCH  14  15
BRANCH   1  24
HETATM   24  N1  UNL     1      27.648  -0.286  54.880  1.00  0.00    -0.227 N 
HETATM   25  C1  UNL     1      29.027  -0.113  54.536  1.00  0.00     0.165 C 
HETATM   26  H4  UNL     1      27.331  -0.710  55.793  1.00  0.00     0.177 HD
ENDBRANCH   1  24
TORSDOF 2
ENDMDL
MODEL 3
REMARK VINA RESULT:      -8.4      3.503      6.528
REMARK  2 active torsions:
REMARK  status: ('A' for Active; 'I' for Inactive)
REMARK    1  A    between atoms: N1_2  and  C2_3 
REMARK    2  A    between atoms: C11_16  and  C12_17 
ROOT
HETATM    1  C2  UNL     1      26.921  -0.750  53.117  1.00  0.00     0.722 A 
HETATM    2  N2  UNL     1      25.906  -1.069  53.938  1.00  0.00    -0.075 NA
HETATM    3  C3  UNL     1      24.775  -0.341  53.968  1.00  0.00     0.148 A 
HETATM    4  C4  UNL     1      24.560   0.767  53.184  1.00  0.00     0.025 A 
HETATM    5  C5  UNL     1      25.652   1.047  52.352  1.00  0.00     0.101 A 
HETATM    6  N3  UNL     1      26.808   0.319  52.308  1.00  0.00    -0.062 NA
HETATM    7  C6  UNL     1      25.642   2.181  51.435  1.00  0.00     0.047 A 
HETATM    8  C7  UNL     1      26.699   2.487  50.602  1.00  0.00     0.020 A 
HETATM    9  C8  UNL     1      26.532   3.595  49.792  1.00  0.00     0.020 A 
HETATM   10  C9  UNL     1      25.392   4.379  49.783  1.00  0.00     0.119 A 
HETATM   11  N4  UNL     1      24.406   4.018  50.623  1.00  0.00    -0.236 NA
HETATM   12  C10 UNL     1      24.504   2.958  51.431  1.00  0.00     0.177 A 
HETATM   13  O1  UNL     1      23.455   2.666  52.250  1.00  0.00    -0.317 OA
HETATM   14  C11 UNL     1      23.362   1.595  53.166  1.00  0.00     0.216 A 
ENDROOT
BRANCH  14  15
HETATM   15  C12 UNL     1      22.091   0.845  52.888  1.00  0.00     0.036 C 
HETATM   16  C13 UNL     1      21.887  -0.143  53.782  1.00  0.00     0.005 C 
HETATM   17  C14 UNL     1      20.864  -1.210  54.061  1.00  0.00     0.056 C 
HETATM   18  C15 UNL     1      19.505  -0.811  53.621  1.00  0.00    -0.027 C 
HETATM   19  C16 UNL     1      18.883  -0.299  52.568  1.00  0.00    -0.029 C 
HETATM   20  C17 UNL     1      19.351   0.146  51.213  1.00  0.00     0.046 C 
HETATM   21  C18 UNL     1      19.981   1.522  51.426  1.00  0.00     0.123 C 
HETATM   22  N5  UNL     1      21.355   1.309  51.761  1.00  0.00    -0.391 N 
HETATM   23  H19 UNL     1      22.086   1.534  51.016  1.00  0.00     0.159 HD
ENDBRANCH  14  15
BRANCH   1  24
HETATM   24  N1  UNL     1      28.073  -1.578  53.156  1.00  0.00    -0.227 N 
HETATM   25  C1  UNL     1      29.328  -1.026  53.569  1.00  0.00     0.165 C 
HETATM   26  H4  UNL     1      27.952  -2.587  52.873  1.00  0.00     0.177 HD
ENDBRANCH   1  24
TORSDOF 2
ENDMDL
MODEL 4
REMARK VINA RESULT:      -8.4      2.672      4.326
REMARK  2 active torsions:
REMARK  status: ('A' for Active; 'I' for Inactive)
REMARK    1  A    between atoms: N1_2  and  C2_3 
REMARK    2  A    between atoms: C11_16  and  C12_17 
ROOT
HETATM    1  C2  UNL     1      21.698   0.169  53.760  1.00  0.00     0.722 A 
HETATM    2  N2  UNL     1      22.622  -0.799  53.636  1.00  0.00    -0.075 NA
HETATM    3  C3  UNL     1      23.795  -0.572  53.016  1.00  0.00     0.148 A 
HETATM    4  C4  UNL     1      24.146   0.638  52.467  1.00  0.00     0.025 A 
HETATM    5  C5  UNL     1      23.144   1.603  52.628  1.00  0.00     0.101 A 
HETATM    6  N3  UNL     1      21.948   1.391  53.254  1.00  0.00    -0.062 NA
HETATM    7  C6  UNL     1      23.304   2.961  52.120  1.00  0.00     0.047 A 
HETATM    8  C7  UNL     1      22.338   3.937  52.261  1.00  0.00     0.020 A 
HETATM    9  C8  UNL     1      22.643   5.173  51.724  1.00  0.00     0.020 A 
HETATM   10  C9  UNL     1      23.831   5.461  51.076  1.00  0.00     0.119 A 
HETATM   11  N4  UNL     1      24.722   4.459  50.978  1.00  0.00    -0.236 NA
HETATM   12  C10 UNL     1      24.489   3.240  51.476  1.00  0.00     0.177 A 
HETATM   13  O1  UNL     1      25.448   2.285  51.331  1.00  0.00    -0.317 OA
HETATM   14  C11 UNL     1      25.396   0.949  51.787  1.00  0.00     0.216 A 
ENDROOT
BRANCH  14  15
HETATM   15  C12 UNL     1      26.631   0.678  52.599  1.00  0.00     0.036 C 
HETATM   16  C13 UNL     1      27.003  -0.615  52.528  1.00  0.00     0.005 C 
HETATM   17  C14 UNL     1      28.090  -1.501  53.073  1.00  0.00     0.056 C 
HETATM   18  C15 UNL     1      29.350  -0.757  53.314  1.00  0.00    -0.027 C 
HETATM   19  C16 UNL     1      29.782   0.358  53.889  1.00  0.00    -0.029 C 
HETATM   20  C17 UNL     1      29.093   1.468  54.627  1.00  0.00     0.046 C 
HETATM   21  C18 UNL     1      28.462   2.349  53.549  1.00  0.00     0.123 C 
HETATM   22  N5  UNL     1      27.165   1.813  53.273  1.00  0.00    -0.391 N 
HETATM   23  H19 UNL     1      26.319   2.351  53.641  1.00  0.00     0.159 HD
ENDBRANCH  14  15
BRANCH   1  24
HETATM   24  N1  UNL     1      20.493  -0.165  54.429  1.00  0.00    -0.227 N 
HETATM   25  C1  UNL     1      19.445  -0.825  53.712  1.00  0.00     0.165 C 
HETATM   26  H4  UNL     1      20.420   0.093  55.450  1.00  0.00     0.177 HD
ENDBRANCH   1  24
TORSDOF 2
ENDMDL
MODEL 5
REMARK VINA RESULT:      -8.0      3.137      5.538
REMARK  2 active torsions:
REMARK  status: ('A' for Active; 'I' for Inactive)
REMARK    1  A    between atoms: N1_2  and  C2_3 
REMARK    2  A    between atoms: C11_16  and  C12_17 
ROOT
HETATM    1  C2  UNL     1      23.034   2.759  48.996  1.00  0.00     0.722 A 
HETATM    2  N2  UNL     1      24.226   3.249  49.378  1.00  0.00    -0.075 NA
HETATM    3  C3  UNL     1      24.705   3.038  50.618  1.00  0.00     0.148 A 
HETATM    4  C4  UNL     1      24.037   2.322  51.582  1.00  0.00     0.025 A 
HETATM    5  C5  UNL     1      22.805   1.839  51.124  1.00  0.00     0.101 A 
HETATM    6  N3  UNL     1      22.303   2.042  49.869  1.00  0.00    -0.062 NA
HETATM    7  C6  UNL     1      21.927   1.051  51.983  1.00  0.00     0.047 A 
HETATM    8  C7  UNL     1      20.708   0.559  51.565  1.00  0.00     0.020 A 
HETATM    9  C8  UNL     1      19.995  -0.169  52.499  1.00  0.00     0.020 A 
HETATM   10  C9  UNL     1      20.439  -0.415  53.786  1.00  0.00     0.119 A 
HETATM   11  N4  UNL     1      21.636   0.098  54.119  1.00  0.00    -0.236 NA
HETATM   12  C10 UNL     1      22.375   0.811  53.262  1.00  0.00     0.177 A 
HETATM   13  O1  UNL     1      23.576   1.292  53.686  1.00  0.00    -0.317 OA
HETATM   14  C11 UNL     1      24.499   2.057  52.937  1.00  0.00     0.216 A 
ENDROOT
BRANCH  14  15
HETATM   15  C12 UNL     1      25.842   1.387  53.017  1.00  0.00     0.036 C 
HETATM   16  C13 UNL     1      26.816   2.258  53.348  1.00  0.00     0.005 C 
HETATM   17  C14 UNL     1      28.302   2.243  53.583  1.00  0.00     0.056 C 
HETATM   18  C15 UNL     1      28.774   0.934  54.097  1.00  0.00    -0.027 C 
HETATM   19  C16 UNL     1      28.663  -0.363  53.839  1.00  0.00    -0.029 C 
HETATM   20  C17 UNL     1      27.925  -1.144  52.792  1.00  0.00     0.046 C 
HETATM   21  C18 UNL     1      26.469  -1.181  53.255  1.00  0.00     0.123 C 
HETATM   22  N5  UNL     1      25.833  -0.008  52.739  1.00  0.00    -0.391 N 
HETATM   23  H19 UNL     1      25.156  -0.133  51.922  1.00  0.00     0.159 HD
ENDBRANCH  14  15
BRANCH   1  24
HETATM   24  N1  UNL     1      22.614   3.033  47.669  1.00  0.00    -0.227 N 
HETATM   25  C1  UNL     1      22.252   4.369  47.303  1.00  0.00     0.165 C 
HETATM   26  H4  UNL     1      22.587   2.222  46.994  1.00  0.00     0.177 HD
ENDBRANCH   1  24
TORSDOF 2
ENDMDL
MODEL 6
REMARK VINA RESULT:      -7.8      3.281      6.568
REMARK  2 active torsions:
REMARK  status: ('A' for Active; 'I' for Inactive)
REMARK    1  A    between atoms: N1_2  and  C2_3 
REMARK    2  A    between atoms: C11_16  and  C12_17 
ROOT
HETATM    1  C2  UNL     1      20.956   0.628  53.498  1.00  0.00     0.722 A 
HETATM    2  N2  UNL     1      20.507   1.779  52.967  1.00  0.00    -0.075 NA
HETATM    3  C3  UNL     1      21.332   2.613  52.308  1.00  0.00     0.148 A 
HETATM    4  C4  UNL     1      22.672   2.374  52.123  1.00  0.00     0.025 A 
HETATM    5  C5  UNL     1      23.077   1.162  52.699  1.00  0.00     0.101 A 
HETATM    6  N3  UNL     1      22.255   0.302  53.371  1.00  0.00    -0.062 NA
HETATM    7  C6  UNL     1      24.461   0.708  52.624  1.00  0.00     0.047 A 
HETATM    8  C7  UNL     1      24.895  -0.479  53.179  1.00  0.00     0.020 A 
HETATM    9  C8  UNL     1      26.238  -0.766  53.022  1.00  0.00     0.020 A 
HETATM   10  C9  UNL     1      27.130   0.056  52.355  1.00  0.00     0.119 A 
HETATM   11  N4  UNL     1      26.632   1.194  51.843  1.00  0.00    -0.236 NA
HETATM   12  C10 UNL     1      25.343   1.531  51.960  1.00  0.00     0.177 A 
HETATM   13  O1  UNL     1      24.926   2.704  51.409  1.00  0.00    -0.317 OA
HETATM   14  C11 UNL     1      23.615   3.232  51.421  1.00  0.00     0.216 A 
ENDROOT
BRANCH  14  15
HETATM   15  C12 UNL     1      23.226   3.559  50.007  1.00  0.00     0.036 C 
HETATM   16  C13 UNL     1      22.991   2.446  49.283  1.00  0.00     0.005 C 
HETATM   17  C14 UNL     1      22.584   2.086  47.880  1.00  0.00     0.056 C 
HETATM   18  C15 UNL     1      21.732   3.129  47.259  1.00  0.00    -0.027 C 
HETATM   19  C16 UNL     1      21.696   4.442  47.078  1.00  0.00    -0.029 C 
HETATM   20  C17 UNL     1      22.616   5.560  47.472  1.00  0.00     0.046 C 
HETATM   21  C18 UNL     1      22.332   5.824  48.951  1.00  0.00     0.123 C 
HETATM   22  N5  UNL     1      23.176   4.949  49.705  1.00  0.00    -0.391 N 
HETATM   23  H19 UNL     1      24.016   5.380  50.203  1.00  0.00     0.159 HD
ENDBRANCH  14  15
BRANCH   1  24
HETATM   24  N1  UNL     1      20.011  -0.186  54.174  1.00  0.00    -0.227 N 
HETATM   25  C1  UNL     1      19.015  -0.888  53.423  1.00  0.00     0.165 C 
HETATM   26  H4  UNL     1      20.085  -0.240  55.226  1.00  0.00     0.177 HD
ENDBRANCH   1  24
TORSDOF 2
ENDMDL
MODEL 7
REMARK VINA RESULT:      -7.6      2.845      6.248
REMARK  2 active torsions:
REMARK  status: ('A' for Active; 'I' for Inactive)
REMARK    1  A    between atoms: N1_2  and  C2_3 
REMARK    2  A    between atoms: C11_16  and  C12_17 
ROOT
HETATM    1  C2  UNL     1      19.726   2.727  51.410  1.00  0.00     0.722 A 
HETATM    2  N2  UNL     1      19.934   4.053  51.333  1.00  0.00    -0.075 NA
HETATM    3  C3  UNL     1      21.110   4.599  51.693  1.00  0.00     0.148 A 
HETATM    4  C4  UNL     1      22.177   3.871  52.161  1.00  0.00     0.025 A 
HETATM    5  C5  UNL     1      21.899   2.499  52.217  1.00  0.00     0.101 A 
HETATM    6  N3  UNL     1      20.712   1.927  51.856  1.00  0.00    -0.062 NA
HETATM    7  C6  UNL     1      22.891   1.538  52.686  1.00  0.00     0.047 A 
HETATM    8  C7  UNL     1      22.652   0.181  52.754  1.00  0.00     0.020 A 
HETATM    9  C8  UNL     1      23.696  -0.596  53.220  1.00  0.00     0.020 A 
HETATM   10  C9  UNL     1      24.924  -0.087  53.604  1.00  0.00     0.119 A 
HETATM   11  N4  UNL     1      25.081   1.244  53.509  1.00  0.00    -0.236 NA
HETATM   12  C10 UNL     1      24.111   2.052  53.067  1.00  0.00     0.177 A 
HETATM   13  O1  UNL     1      24.358   3.389  53.004  1.00  0.00    -0.317 OA
HETATM   14  C11 UNL     1      23.473   4.399  52.564  1.00  0.00     0.216 A 
ENDROOT
BRANCH  14  15
HETATM   15  C12 UNL     1      24.171   5.211  51.509  1.00  0.00     0.036 C 
HETATM   16  C13 UNL     1      24.680   4.432  50.534  1.00  0.00     0.005 C 
HETATM   17  C14 UNL     1      25.452   4.599  49.254  1.00  0.00     0.056 C 
HETATM   18  C15 UNL     1      25.166   5.895  48.592  1.00  0.00    -0.027 C 
HETATM   19  C16 UNL     1      25.090   7.189  48.875  1.00  0.00    -0.029 C 
HETATM   20  C17 UNL     1      25.285   7.980  50.134  1.00  0.00     0.046 C 
HETATM   21  C18 UNL     1      23.998   7.797  50.939  1.00  0.00     0.123 C 
HETATM   22  N5  UNL     1      24.159   6.617  51.730  1.00  0.00    -0.391 N 
HETATM   23  H19 UNL     1      24.321   6.743  52.778  1.00  0.00     0.159 HD
ENDBRANCH  14  15
BRANCH   1  24
HETATM   24  N1  UNL     1      18.454   2.245  51.007  1.00  0.00    -0.227 N 
HETATM   25  C1  UNL     1      18.335   1.477  49.805  1.00  0.00     0.165 C 
HETATM   26  H4  UNL     1      17.631   2.478  51.626  1.00  0.00     0.177 HD
ENDBRANCH   1  24
TORSDOF 2
ENDMDL
MODEL 8
REMARK VINA RESULT:      -7.5      1.872      6.233
REMARK  2 active torsions:
REMARK  status: ('A' for Active; 'I' for Inactive)
REMARK    1  A    between atoms: N1_2  and  C2_3 
REMARK    2  A    between atoms: C11_16  and  C12_17 
ROOT
HETATM    1  C2  UNL     1      25.889   1.450  53.064  1.00  0.00     0.722 A 
HETATM    2  N2  UNL     1      26.881   1.739  52.204  1.00  0.00    -0.075 NA
HETATM    3  C3  UNL     1      26.668   2.514  51.124  1.00  0.00     0.148 A 
HETATM    4  C4  UNL     1      25.449   3.064  50.809  1.00  0.00     0.025 A 
HETATM    5  C5  UNL     1      24.459   2.727  51.742  1.00  0.00     0.101 A 
HETATM    6  N3  UNL     1      24.657   1.943  52.843  1.00  0.00    -0.062 NA
HETATM    7  C6  UNL     1      23.087   3.203  51.603  1.00  0.00     0.047 A 
HETATM    8  C7  UNL     1      22.087   2.891  52.502  1.00  0.00     0.020 A 
HETATM    9  C8  UNL     1      20.840   3.421  52.229  1.00  0.00     0.020 A 
HETATM   10  C9  UNL     1      20.565   4.221  51.135  1.00  0.00     0.119 A 
HETATM   11  N4  UNL     1      21.590   4.480  50.305  1.00  0.00    -0.236 NA
HETATM   12  C10 UNL     1      22.820   3.999  50.512  1.00  0.00     0.177 A 
HETATM   13  O1  UNL     1      23.799   4.313  49.618  1.00  0.00    -0.317 OA
HETATM   14  C11 UNL     1      25.152   3.910  49.661  1.00  0.00     0.216 A 
ENDROOT
BRANCH  14  15
HETATM   15  C12 UNL     1      26.014   5.137  49.553  1.00  0.00     0.036 C 
HETATM   16  C13 UNL     1      27.102   4.917  48.789  1.00  0.00     0.005 C 
HETATM   17  C14 UNL     1      28.304   5.681  48.303  1.00  0.00     0.056 C 
HETATM   18  C15 UNL     1      28.022   7.130  48.154  1.00  0.00    -0.027 C 
HETATM   19  C16 UNL     1      27.483   8.138  48.826  1.00  0.00    -0.029 C 
HETATM   20  C17 UNL     1      26.854   8.250  50.183  1.00  0.00     0.046 C 
HETATM   21  C18 UNL     1      25.442   7.684  50.032  1.00  0.00     0.123 C 
HETATM   22  N5  UNL     1      25.527   6.274  50.257  1.00  0.00    -0.391 N 
HETATM   23  H19 UNL     1      25.146   5.897  51.181  1.00  0.00     0.159 HD
ENDBRANCH  14  15
BRANCH   1  24
HETATM   24  N1  UNL     1      26.211   0.626  54.173  1.00  0.00    -0.227 N 
HETATM   25  C1  UNL     1      27.473   0.784  54.829  1.00  0.00     0.165 C 
HETATM   26  H4  UNL     1      25.490  -0.085  54.472  1.00  0.00     0.177 HD
ENDBRANCH   1  24
TORSDOF 2
ENDMDL
MODEL 9
REMARK VINA RESULT:      -7.3      4.616      8.256
REMARK  2 active torsions:
REMARK  status: ('A' for Active; 'I' for Inactive)
REMARK    1  A    between atoms: N1_2  and  C2_3 
REMARK    2  A    between atoms: C11_16  and  C12_17 
ROOT
HETATM    1  C2  UNL     1      22.971  -0.868  54.501  1.00  0.00     0.722 A 
HETATM    2  N2  UNL     1      23.899  -0.267  53.737  1.00  0.00    -0.075 NA
HETATM    3  C3  UNL     1      23.571   0.325  52.574  1.00  0.00     0.148 A 
HETATM    4  C4  UNL     1      22.292   0.367  52.073  1.00  0.00     0.025 A 
HETATM    5  C5  UNL     1      21.373  -0.276  52.913  1.00  0.00     0.101 A 
HETATM    6  N3  UNL     1      21.687  -0.882  54.097  1.00  0.00    -0.062 NA
HETATM    7  C6  UNL     1      19.956  -0.354  52.576  1.00  0.00     0.047 A 
HETATM    8  C7  UNL     1      19.024  -0.978  53.380  1.00  0.00     0.020 A 
HETATM    9  C8  UNL     1      17.721  -0.965  52.919  1.00  0.00     0.020 A 
HETATM   10  C9  UNL     1      17.329  -0.373  51.731  1.00  0.00     0.119 A 
HETATM   11  N4  UNL     1      18.294   0.215  51.004  1.00  0.00    -0.236 NA
HETATM   12  C10 UNL     1      19.573   0.237  51.393  1.00  0.00     0.177 A 
HETATM   13  O1  UNL     1      20.485   0.856  50.592  1.00  0.00    -0.317 OA
HETATM   14  C11 UNL     1      21.871   0.990  50.826  1.00  0.00     0.216 A 
ENDROOT
BRANCH  14  15
HETATM   15  C12 UNL     1      22.232   2.444  50.704  1.00  0.00     0.036 C 
HETATM   16  C13 UNL     1      23.244   2.637  49.835  1.00  0.00     0.005 C 
HETATM   17  C14 UNL     1      24.044   3.785  49.283  1.00  0.00     0.056 C 
HETATM   18  C15 UNL     1      23.259   5.043  49.236  1.00  0.00    -0.027 C 
HETATM   19  C16 UNL     1      22.472   5.783  50.005  1.00  0.00    -0.029 C 
HETATM   20  C17 UNL     1      21.987   5.642  51.418  1.00  0.00     0.046 C 
HETATM   21  C18 UNL     1      20.856   4.615  51.365  1.00  0.00     0.123 C 
HETATM   22  N5  UNL     1      21.453   3.323  51.508  1.00  0.00    -0.391 N 
HETATM   23  H19 UNL     1      21.325   2.820  52.441  1.00  0.00     0.159 HD
ENDBRANCH  14  15
BRANCH   1  24
HETATM   24  N1  UNL     1      23.413  -1.464  55.711  1.00  0.00    -0.227 N 
HETATM   25  C1  UNL     1      24.746  -1.222  56.174  1.00  0.00     0.165 C 
HETATM   26  H4  UNL     1      22.724  -2.074  56.228  1.00  0.00     0.177 HD
ENDBRANCH   1  24
TORSDOF 2
ENDMDL
