MODEL 1
REMARK VINA RESULT:      -8.6      0.000      0.000
REMARK  6 active torsions:
REMARK  status: ('A' for Active; 'I' for Inactive)
REMARK    1  A    between atoms: C2_2  and  C3_3 
REMARK    2  A    between atoms: C6_6  and  N1_7 
REMARK    3  A    between atoms: N1_7  and  C7_8 
REMARK    4  A    between atoms: C12_15  and  N4_17 
REMARK    5  A    between atoms: N4_17  and  C14_18 
REMARK    6  A    between atoms: C14_18  and  C15_19 
ROOT
HETATM    1  C3  UNL     1      27.967  -0.100  53.479  1.00  0.00     0.048 C 
HETATM    2  C4  UNL     1      27.719   0.252  54.912  1.00  0.00    -0.021 C 
HETATM    3  C5  UNL     1      26.455  -0.028  55.190  1.00  0.00    -0.003 C 
HETATM    4  C6  UNL     1      25.686  -0.578  54.072  1.00  0.00     0.139 C 
HETATM    5  C12 UNL     1      26.651  -0.422  52.885  1.00  0.00     0.184 C 
HETATM    6  C13 UNL     1      26.654  -1.796  52.201  1.00  0.00     0.052 C 
ENDROOT
BRANCH   5   7
HETATM    7  N4  UNL     1      26.057   0.550  52.039  1.00  0.00     0.099 NA
HETATM    8  H19 UNL     1      25.053   0.654  52.289  1.00  0.00     0.317 HD
BRANCH   7   9
HETATM    9  C14 UNL     1      26.652   1.793  51.801  1.00  0.00     0.298 C 
BRANCH   9  10
HETATM   10  C15 UNL     1      26.408   2.458  50.513  1.00  0.00     0.006 C 
HETATM   11  C16 UNL     1      25.229   3.124  50.345  1.00  0.00    -0.081 C 
HETATM   12  C17 UNL     1      24.094   3.289  51.302  1.00  0.00     0.043 C 
HETATM   13  C21 UNL     1      24.401   3.966  49.395  1.00  0.00     0.043 C 
HETATM   14  C18 UNL     1      23.176   3.421  50.086  1.00  0.00    -0.041 C 
HETATM   15  C19 UNL     1      22.687   2.088  49.609  1.00  0.00     0.015 C 
HETATM   16  C20 UNL     1      22.084   4.446  50.264  1.00  0.00     0.015 C 
ENDBRANCH   9  10
ENDBRANCH   7   9
ENDBRANCH   5   7
BRANCH   1  17
HETATM   17  C2  UNL     1      29.032  -1.152  53.344  1.00  0.00     0.006 C 
HETATM   18  C1  UNL     1      30.399  -0.743  53.764  1.00  0.00     0.006 C 
ENDBRANCH   1  17
BRANCH   4  19
HETATM   19  N1  UNL     1      24.449   0.081  53.814  1.00  0.00    -0.398 N 
HETATM   20  H10 UNL     1      24.481   1.046  53.484  1.00  0.00     0.155 HD
BRANCH  19  21
HETATM   21  C7  UNL     1      23.314  -0.705  53.537  1.00  0.00     0.172 A 
HETATM   22  C8  UNL     1      22.410  -0.182  52.506  1.00  0.00     0.007 A 
HETATM   23  C9  UNL     1      21.075  -0.093  52.626  1.00  0.00     0.018 A 
HETATM   24  C10 UNL     1      20.433  -0.536  53.854  1.00  0.00     0.118 A 
HETATM   25  N2  UNL     1      21.091  -1.027  54.876  1.00  0.00    -0.244 NA
HETATM   26  C11 UNL     1      22.521  -1.111  54.726  1.00  0.00     0.144 A 
HETATM   27  N3  UNL     1      23.200  -1.597  55.739  1.00  0.00    -0.284 NA
HETATM   28  H15 UNL     1      24.235  -1.646  55.599  1.00  0.00     0.188 HD
ENDBRANCH  19  21
ENDBRANCH   4  19
TORSDOF 6
ENDMDL
MODEL 2
REMARK VINA RESULT:      -8.5      3.182      7.248
REMARK  6 active torsions:
REMARK  status: ('A' for Active; 'I' for Inactive)
REMARK    1  A    between atoms: C2_2  and  C3_3 
REMARK    2  A    between atoms: C6_6  and  N1_7 
REMARK    3  A    between atoms: N1_7  and  C7_8 
REMARK    4  A    between atoms: C12_15  and  N4_17 
REMARK    5  A    between atoms: N4_17  and  C14_18 
REMARK    6  A    between atoms: C14_18  and  C15_19 
ROOT
HETATM    1  C3  UNL     1      23.610   2.551  51.240  1.00  0.00     0.048 C 
HETATM    2  C4  UNL     1      22.834   2.961  52.452  1.00  0.00    -0.021 C 
HETATM    3  C5  UNL     1      22.772   4.284  52.470  1.00  0.00    -0.003 C 
HETATM    4  C6  UNL     1      23.446   4.948  51.353  1.00  0.00     0.139 C 
HETATM    5  C12 UNL     1      24.177   3.786  50.658  1.00  0.00     0.184 C 
HETATM    6  C13 UNL     1      23.822   3.935  49.172  1.00  0.00     0.052 C 
ENDROOT
BRANCH   5   7
HETATM    7  N4  UNL     1      25.560   4.034  50.862  1.00  0.00     0.099 NA
HETATM    8  H19 UNL     1      25.679   4.642  51.697  1.00  0.00     0.317 HD
BRANCH   7   9
HETATM    9  C14 UNL     1      26.510   3.008  50.841  1.00  0.00     0.298 C 
BRANCH   9  10
HETATM   10  C15 UNL     1      27.074   2.540  52.115  1.00  0.00     0.006 C 
HETATM   11  C16 UNL     1      27.115   1.197  52.347  1.00  0.00    -0.081 C 
HETATM   12  C17 UNL     1      26.655   0.074  51.476  1.00  0.00     0.043 C 
HETATM   13  C21 UNL     1      27.534   0.116  53.324  1.00  0.00     0.043 C 
HETATM   14  C18 UNL     1      26.427  -0.735  52.754  1.00  0.00    -0.041 C 
HETATM   15  C19 UNL     1      25.059  -0.507  53.322  1.00  0.00     0.015 C 
HETATM   16  C20 UNL     1      26.799  -2.190  52.620  1.00  0.00     0.015 C 
ENDBRANCH   9  10
ENDBRANCH   7   9
ENDBRANCH   5   7
BRANCH   1  17
HETATM   17  C2  UNL     1      22.782   1.701  50.316  1.00  0.00     0.006 C 
HETATM   18  C1  UNL     1      21.840   0.759  50.977  1.00  0.00     0.006 C 
ENDBRANCH   1  17
BRANCH   4  19
HETATM   19  N1  UNL     1      24.360   5.974  51.729  1.00  0.00    -0.398 N 
HETATM   20  H10 UNL     1      25.240   5.695  52.164  1.00  0.00     0.155 HD
BRANCH  19  21
HETATM   21  C7  UNL     1      24.278   7.219  51.077  1.00  0.00     0.172 A 
HETATM   22  C8  UNL     1      22.938   7.625  50.639  1.00  0.00     0.007 A 
HETATM   23  C9  UNL     1      22.638   8.101  49.419  1.00  0.00     0.018 A 
HETATM   24  C10 UNL     1      23.690   8.240  48.423  1.00  0.00     0.118 A 
HETATM   25  N2  UNL     1      24.941   7.921  48.646  1.00  0.00    -0.244 NA
HETATM   26  C11 UNL     1      25.240   7.411  49.960  1.00  0.00     0.144 A 
HETATM   27  N3  UNL     1      26.487   7.083  50.203  1.00  0.00    -0.284 NA
HETATM   28  H15 UNL     1      26.672   6.717  51.166  1.00  0.00     0.188 HD
ENDBRANCH  19  21
ENDBRANCH   4  19
TORSDOF 6
ENDMDL
MODEL 3
REMARK VINA RESULT:      -8.3      1.487      2.196
REMARK  6 active torsions:
REMARK  status: ('A' for Active; 'I' for Inactive)
REMARK    1  A    between atoms: C2_2  and  C3_3 
REMARK    2  A    between atoms: C6_6  and  N1_7 
REMARK    3  A    between atoms: N1_7  and  C7_8 
REMARK    4  A    between atoms: C12_15  and  N4_17 
REMARK    5  A    between atoms: N4_17  and  C14_18 
REMARK    6  A    between atoms: C14_18  and  C15_19 
ROOT
HETATM    1  C3  UNL     1      26.641   0.930  54.007  1.00  0.00     0.048 C 
HETATM    2  C4  UNL     1      26.333  -0.096  55.052  1.00  0.00    -0.021 C 
HETATM    3  C5  UNL     1      25.170  -0.652  54.750  1.00  0.00    -0.003 C 
HETATM    4  C6  UNL     1      24.537  -0.136  53.535  1.00  0.00     0.139 C 
HETATM    5  C12 UNL     1      25.429   1.063  53.169  1.00  0.00     0.184 C 
HETATM    6  C13 UNL     1      25.741   0.876  51.678  1.00  0.00     0.052 C 
ENDROOT
BRANCH   5   7
HETATM    7  N4  UNL     1      24.618   2.210  53.364  1.00  0.00     0.099 NA
HETATM    8  H19 UNL     1      24.781   2.586  54.320  1.00  0.00     0.317 HD
BRANCH   7   9
HETATM    9  C14 UNL     1      24.545   3.239  52.419  1.00  0.00     0.298 C 
BRANCH   9  10
HETATM   10  C15 UNL     1      23.223   3.756  52.038  1.00  0.00     0.006 C 
HETATM   11  C16 UNL     1      22.779   3.520  50.770  1.00  0.00    -0.081 C 
HETATM   12  C17 UNL     1      23.455   2.792  49.655  1.00  0.00     0.043 C 
HETATM   13  C21 UNL     1      21.633   3.714  49.798  1.00  0.00     0.043 C 
HETATM   14  C18 UNL     1      22.654   3.667  48.689  1.00  0.00    -0.041 C 
HETATM   15  C19 UNL     1      23.360   4.953  48.385  1.00  0.00     0.015 C 
HETATM   16  C20 UNL     1      22.174   2.928  47.464  1.00  0.00     0.015 C 
ENDBRANCH   9  10
ENDBRANCH   7   9
ENDBRANCH   5   7
BRANCH   1  17
HETATM   17  C2  UNL     1      27.918   0.612  53.281  1.00  0.00     0.006 C 
HETATM   18  C1  UNL     1      28.895  -0.223  54.030  1.00  0.00     0.006 C 
ENDBRANCH   1  17
BRANCH   4  19
HETATM   19  N1  UNL     1      23.180   0.267  53.690  1.00  0.00    -0.398 N 
HETATM   20  H10 UNL     1      22.996   1.217  54.013  1.00  0.00     0.155 HD
BRANCH  19  21
HETATM   21  C7  UNL     1      22.188  -0.416  52.960  1.00  0.00     0.172 A 
HETATM   22  C8  UNL     1      21.802   0.193  51.681  1.00  0.00     0.007 A 
HETATM   23  C9  UNL     1      20.538   0.394  51.276  1.00  0.00     0.018 A 
HETATM   24  C10 UNL     1      19.434  -0.003  52.137  1.00  0.00     0.118 A 
HETATM   25  N2  UNL     1      19.600  -0.557  53.313  1.00  0.00    -0.244 NA
HETATM   26  C11 UNL     1      20.964  -0.763  53.729  1.00  0.00     0.144 A 
HETATM   27  N3  UNL     1      21.153  -1.314  54.905  1.00  0.00    -0.284 NA
HETATM   28  H15 UNL     1      22.154  -1.451  55.177  1.00  0.00     0.188 HD
ENDBRANCH  19  21
ENDBRANCH   4  19
TORSDOF 6
ENDMDL
MODEL 4
REMARK VINA RESULT:      -8.2      2.778      6.033
REMARK  6 active torsions:
REMARK  status: ('A' for Active; 'I' for Inactive)
REMARK    1  A    between atoms: C2_2  and  C3_3 
REMARK    2  A    between atoms: C6_6  and  N1_7 
REMARK    3  A    between atoms: N1_7  and  C7_8 
REMARK    4  A    between atoms: C12_15  and  N4_17 
REMARK    5  A    between atoms: N4_17  and  C14_18 
REMARK    6  A    between atoms: C14_18  and  C15_19 
ROOT
HETATM    1  C3  UNL     1      24.302   4.322  49.607  1.00  0.00     0.048 C 
HETATM    2  C4  UNL     1      25.660   4.672  49.086  1.00  0.00    -0.021 C 
HETATM    3  C5  UNL     1      26.541   3.874  49.671  1.00  0.00    -0.003 C 
HETATM    4  C6  UNL     1      25.970   2.916  50.620  1.00  0.00     0.139 C 
HETATM    5  C12 UNL     1      24.504   3.370  50.721  1.00  0.00     0.184 C 
HETATM    6  C13 UNL     1      23.684   2.086  50.531  1.00  0.00     0.052 C 
ENDROOT
BRANCH   5   7
HETATM    7  N4  UNL     1      24.351   3.863  52.042  1.00  0.00     0.099 NA
HETATM    8  H19 UNL     1      24.782   4.807  52.108  1.00  0.00     0.317 HD
BRANCH   7   9
HETATM    9  C14 UNL     1      23.126   3.817  52.717  1.00  0.00     0.298 C 
BRANCH   9  10
HETATM   10  C15 UNL     1      21.970   4.511  52.131  1.00  0.00     0.006 C 
HETATM   11  C16 UNL     1      20.813   3.809  51.963  1.00  0.00    -0.081 C 
HETATM   12  C17 UNL     1      20.520   2.382  52.292  1.00  0.00     0.043 C 
HETATM   13  C21 UNL     1      19.374   3.878  51.495  1.00  0.00     0.043 C 
HETATM   14  C18 UNL     1      19.478   2.409  51.172  1.00  0.00    -0.041 C 
HETATM   15  C19 UNL     1      20.078   2.065  49.843  1.00  0.00     0.015 C 
HETATM   16  C20 UNL     1      18.225   1.634  51.496  1.00  0.00     0.015 C 
ENDBRANCH   9  10
ENDBRANCH   7   9
ENDBRANCH   5   7
BRANCH   1  17
HETATM   17  C2  UNL     1      23.387   3.869  48.503  1.00  0.00     0.006 C 
HETATM   18  C1  UNL     1      22.169   4.697  48.294  1.00  0.00     0.006 C 
ENDBRANCH   1  17
BRANCH   4  19
HETATM   19  N1  UNL     1      26.589   2.902  51.903  1.00  0.00    -0.398 N 
HETATM   20  H10 UNL     1      26.240   3.549  52.610  1.00  0.00     0.155 HD
BRANCH  19  21
HETATM   21  C7  UNL     1      27.263   1.735  52.311  1.00  0.00     0.172 A 
HETATM   22  C8  UNL     1      26.411   0.592  52.658  1.00  0.00     0.007 A 
HETATM   23  C9  UNL     1      26.541  -0.156  53.766  1.00  0.00     0.018 A 
HETATM   24  C10 UNL     1      27.592   0.154  54.724  1.00  0.00     0.118 A 
HETATM   25  N2  UNL     1      28.438   1.142  54.571  1.00  0.00    -0.244 NA
HETATM   26  C11 UNL     1      28.280   1.932  53.376  1.00  0.00     0.144 A 
HETATM   27  N3  UNL     1      29.116   2.929  53.205  1.00  0.00    -0.284 NA
HETATM   28  H15 UNL     1      28.975   3.483  52.328  1.00  0.00     0.188 HD
ENDBRANCH  19  21
ENDBRANCH   4  19
TORSDOF 6
ENDMDL
MODEL 5
REMARK VINA RESULT:      -8.1      2.457      5.669
REMARK  6 active torsions:
REMARK  status: ('A' for Active; 'I' for Inactive)
REMARK    1  A    between atoms: C2_2  and  C3_3 
REMARK    2  A    between atoms: C6_6  and  N1_7 
REMARK    3  A    between atoms: N1_7  and  C7_8 
REMARK    4  A    between atoms: C12_15  and  N4_17 
REMARK    5  A    between atoms: N4_17  and  C14_18 
REMARK    6  A    between atoms: C14_18  and  C15_19 
ROOT
HETATM    1  C3  UNL     1      22.328   2.500  51.665  1.00  0.00     0.048 C 
HETATM    2  C4  UNL     1      21.986   1.126  52.150  1.00  0.00    -0.021 C 
HETATM    3  C5  UNL     1      22.952   0.729  52.965  1.00  0.00    -0.003 C 
HETATM    4  C6  UNL     1      24.034   1.696  53.158  1.00  0.00     0.139 C 
HETATM    5  C12 UNL     1      23.706   2.784  52.120  1.00  0.00     0.184 C 
HETATM    6  C13 UNL     1      23.790   4.104  52.899  1.00  0.00     0.052 C 
ENDROOT
BRANCH   5   7
HETATM    7  N4  UNL     1      24.744   2.712  51.156  1.00  0.00     0.099 NA
HETATM    8  H19 UNL     1      25.112   1.741  51.121  1.00  0.00     0.317 HD
BRANCH   7   9
HETATM    9  C14 UNL     1      24.606   3.250  49.872  1.00  0.00     0.298 C 
BRANCH   9  10
HETATM   10  C15 UNL     1      25.817   3.620  49.127  1.00  0.00     0.006 C 
HETATM   11  C16 UNL     1      26.252   4.911  49.205  1.00  0.00    -0.081 C 
HETATM   12  C17 UNL     1      25.665   6.060  49.957  1.00  0.00     0.043 C 
HETATM   13  C21 UNL     1      27.322   5.891  48.767  1.00  0.00     0.043 C 
HETATM   14  C18 UNL     1      26.288   6.979  48.904  1.00  0.00    -0.041 C 
HETATM   15  C19 UNL     1      25.378   7.177  47.730  1.00  0.00     0.015 C 
HETATM   16  C20 UNL     1      26.840   8.262  49.474  1.00  0.00     0.015 C 
ENDBRANCH   9  10
ENDBRANCH   7   9
ENDBRANCH   5   7
BRANCH   1  17
HETATM   17  C2  UNL     1      21.278   3.502  52.060  1.00  0.00     0.006 C 
HETATM   18  C1  UNL     1      19.871   3.026  51.983  1.00  0.00     0.006 C 
ENDBRANCH   1  17
BRANCH   4  19
HETATM   19  N1  UNL     1      25.345   1.178  52.955  1.00  0.00    -0.398 N 
HETATM   20  H10 UNL     1      25.643   0.989  51.998  1.00  0.00     0.155 HD
BRANCH  19  21
HETATM   21  C7  UNL     1      26.318   1.405  53.947  1.00  0.00     0.172 A 
HETATM   22  C8  UNL     1      27.460   2.234  53.545  1.00  0.00     0.007 A 
HETATM   23  C9  UNL     1      28.749   1.932  53.774  1.00  0.00     0.018 A 
HETATM   24  C10 UNL     1      29.086   0.699  54.469  1.00  0.00     0.118 A 
HETATM   25  N2  UNL     1      28.190  -0.157  54.894  1.00  0.00    -0.244 NA
HETATM   26  C11 UNL     1      26.814   0.185  54.637  1.00  0.00     0.144 A 
HETATM   27  N3  UNL     1      25.901  -0.661  55.052  1.00  0.00    -0.284 NA
HETATM   28  H15 UNL     1      24.912  -0.382  54.851  1.00  0.00     0.188 HD
ENDBRANCH  19  21
ENDBRANCH   4  19
TORSDOF 6
ENDMDL
MODEL 6
REMARK VINA RESULT:      -8.1      3.902      8.339
REMARK  6 active torsions:
REMARK  status: ('A' for Active; 'I' for Inactive)
REMARK    1  A    between atoms: C2_2  and  C3_3 
REMARK    2  A    between atoms: C6_6  and  N1_7 
REMARK    3  A    between atoms: N1_7  and  C7_8 
REMARK    4  A    between atoms: C12_15  and  N4_17 
REMARK    5  A    between atoms: N4_17  and  C14_18 
REMARK    6  A    between atoms: C14_18  and  C15_19 
ROOT
HETATM    1  C3  UNL     1      23.572   4.187  51.419  1.00  0.00     0.048 C 
HETATM    2  C4  UNL     1      23.215   5.454  52.131  1.00  0.00    -0.021 C 
HETATM    3  C5  UNL     1      23.846   6.452  51.531  1.00  0.00    -0.003 C 
HETATM    4  C6  UNL     1      24.678   6.060  50.392  1.00  0.00     0.139 C 
HETATM    5  C12 UNL     1      24.649   4.524  50.463  1.00  0.00     0.184 C 
HETATM    6  C13 UNL     1      24.308   4.073  49.036  1.00  0.00     0.052 C 
ENDROOT
BRANCH   5   7
HETATM    7  N4  UNL     1      25.972   4.136  50.800  1.00  0.00     0.099 NA
HETATM    8  H19 UNL     1      26.308   4.719  51.593  1.00  0.00     0.317 HD
BRANCH   7   9
HETATM    9  C14 UNL     1      26.336   2.795  50.965  1.00  0.00     0.298 C 
BRANCH   9  10
HETATM   10  C15 UNL     1      27.061   2.405  52.182  1.00  0.00     0.006 C 
HETATM   11  C16 UNL     1      27.228   1.074  52.434  1.00  0.00    -0.081 C 
HETATM   12  C17 UNL     1      26.766  -0.101  51.637  1.00  0.00     0.043 C 
HETATM   13  C21 UNL     1      27.825   0.054  53.381  1.00  0.00     0.043 C 
HETATM   14  C18 UNL     1      26.733  -0.891  52.947  1.00  0.00    -0.041 C 
HETATM   15  C19 UNL     1      25.418  -0.748  53.651  1.00  0.00     0.015 C 
HETATM   16  C20 UNL     1      27.198  -2.318  52.803  1.00  0.00     0.015 C 
ENDBRANCH   9  10
ENDBRANCH   7   9
ENDBRANCH   5   7
BRANCH   1  17
HETATM   17  C2  UNL     1      22.357   3.516  50.842  1.00  0.00     0.006 C 
HETATM   18  C1  UNL     1      21.586   2.660  51.782  1.00  0.00     0.006 C 
ENDBRANCH   1  17
BRANCH   4  19
HETATM   19  N1  UNL     1      26.015   6.548  50.430  1.00  0.00    -0.398 N 
HETATM   20  H10 UNL     1      26.691   6.046  51.007  1.00  0.00     0.155 HD
BRANCH  19  21
HETATM   21  C7  UNL     1      26.476   7.334  49.357  1.00  0.00     0.172 A 
HETATM   22  C8  UNL     1      27.191   6.613  48.297  1.00  0.00     0.007 A 
HETATM   23  C9  UNL     1      28.363   6.996  47.764  1.00  0.00     0.018 A 
HETATM   24  C10 UNL     1      29.010   8.208  48.242  1.00  0.00     0.118 A 
HETATM   25  N2  UNL     1      28.510   8.968  49.185  1.00  0.00    -0.244 NA
HETATM   26  C11 UNL     1      27.253   8.539  49.744  1.00  0.00     0.144 A 
HETATM   27  N3  UNL     1      26.736   9.286  50.692  1.00  0.00    -0.284 NA
HETATM   28  H15 UNL     1      25.823   8.947  51.076  1.00  0.00     0.188 HD
ENDBRANCH  19  21
ENDBRANCH   4  19
TORSDOF 6
ENDMDL
MODEL 7
REMARK VINA RESULT:      -7.9      2.171      6.313
REMARK  6 active torsions:
REMARK  status: ('A' for Active; 'I' for Inactive)
REMARK    1  A    between atoms: C2_2  and  C3_3 
REMARK    2  A    between atoms: C6_6  and  N1_7 
REMARK    3  A    between atoms: N1_7  and  C7_8 
REMARK    4  A    between atoms: C12_15  and  N4_17 
REMARK    5  A    between atoms: N4_17  and  C14_18 
REMARK    6  A    between atoms: C14_18  and  C15_19 
ROOT
HETATM    1  C3  UNL     1      21.990   3.536  52.091  1.00  0.00     0.048 C 
HETATM    2  C4  UNL     1      22.753   4.683  52.675  1.00  0.00    -0.021 C 
HETATM    3  C5  UNL     1      24.030   4.335  52.739  1.00  0.00    -0.003 C 
HETATM    4  C6  UNL     1      24.328   2.991  52.243  1.00  0.00     0.139 C 
HETATM    5  C12 UNL     1      22.929   2.395  52.011  1.00  0.00     0.184 C 
HETATM    6  C13 UNL     1      22.987   1.801  50.598  1.00  0.00     0.052 C 
ENDROOT
BRANCH   5   7
HETATM    7  N4  UNL     1      22.792   1.364  52.976  1.00  0.00     0.099 NA
HETATM    8  H19 UNL     1      22.424   1.768  53.860  1.00  0.00     0.317 HD
BRANCH   7   9
HETATM    9  C14 UNL     1      22.173   0.145  52.679  1.00  0.00     0.298 C 
BRANCH   9  10
HETATM   10  C15 UNL     1      20.842  -0.126  53.241  1.00  0.00     0.006 C 
HETATM   11  C16 UNL     1      19.765  -0.064  52.405  1.00  0.00    -0.081 C 
HETATM   12  C17 UNL     1      19.720   0.255  50.947  1.00  0.00     0.043 C 
HETATM   13  C21 UNL     1      18.262  -0.229  52.300  1.00  0.00     0.043 C 
HETATM   14  C18 UNL     1      18.298   0.773  51.173  1.00  0.00    -0.041 C 
HETATM   15  C19 UNL     1      18.287   2.217  51.572  1.00  0.00     0.015 C 
HETATM   16  C20 UNL     1      17.350   0.442  50.047  1.00  0.00     0.015 C 
ENDBRANCH   9  10
ENDBRANCH   7   9
ENDBRANCH   5   7
BRANCH   1  17
HETATM   17  C2  UNL     1      21.306   3.924  50.809  1.00  0.00     0.006 C 
HETATM   18  C1  UNL     1      20.906   5.352  50.699  1.00  0.00     0.006 C 
ENDBRANCH   1  17
BRANCH   4  19
HETATM   19  N1  UNL     1      25.086   2.178  53.134  1.00  0.00    -0.398 N 
HETATM   20  H10 UNL     1      24.608   1.775  53.940  1.00  0.00     0.155 HD
BRANCH  19  21
HETATM   21  C7  UNL     1      26.257   1.563  52.651  1.00  0.00     0.172 A 
HETATM   22  C8  UNL     1      26.101   0.191  52.154  1.00  0.00     0.007 A 
HETATM   23  C9  UNL     1      26.900  -0.839  52.477  1.00  0.00     0.018 A 
HETATM   24  C10 UNL     1      28.016  -0.627  53.386  1.00  0.00     0.118 A 
HETATM   25  N2  UNL     1      28.297   0.534  53.924  1.00  0.00    -0.244 NA
HETATM   26  C11 UNL     1      27.427   1.625  53.566  1.00  0.00     0.144 A 
HETATM   27  N3  UNL     1      27.689   2.797  54.096  1.00  0.00    -0.284 NA
HETATM   28  H15 UNL     1      27.040   3.568  53.815  1.00  0.00     0.188 HD
ENDBRANCH  19  21
ENDBRANCH   4  19
TORSDOF 6
ENDMDL
MODEL 8
REMARK VINA RESULT:      -7.9      2.702      6.219
REMARK  6 active torsions:
REMARK  status: ('A' for Active; 'I' for Inactive)
REMARK    1  A    between atoms: C2_2  and  C3_3 
REMARK    2  A    between atoms: C6_6  and  N1_7 
REMARK    3  A    between atoms: N1_7  and  C7_8 
REMARK    4  A    between atoms: C12_15  and  N4_17 
REMARK    5  A    between atoms: N4_17  and  C14_18 
REMARK    6  A    between atoms: C14_18  and  C15_19 
ROOT
HETATM    1  C3  UNL     1      22.601   2.751  51.067  1.00  0.00     0.048 C 
HETATM    2  C4  UNL     1      22.797   1.337  51.515  1.00  0.00    -0.021 C 
HETATM    3  C5  UNL     1      23.515   1.355  52.627  1.00  0.00    -0.003 C 
HETATM    4  C6  UNL     1      23.901   2.689  53.090  1.00  0.00     0.139 C 
HETATM    5  C12 UNL     1      23.463   3.594  51.926  1.00  0.00     0.184 C 
HETATM    6  C13 UNL     1      22.672   4.729  52.590  1.00  0.00     0.052 C 
ENDROOT
BRANCH   5   7
HETATM    7  N4  UNL     1      24.665   4.093  51.362  1.00  0.00     0.099 NA
HETATM    8  H19 UNL     1      25.476   3.672  51.857  1.00  0.00     0.317 HD
BRANCH   7   9
HETATM    9  C14 UNL     1      24.878   4.132  49.979  1.00  0.00     0.298 C 
BRANCH   9  10
HETATM   10  C15 UNL     1      24.398   5.297  49.223  1.00  0.00     0.006 C 
HETATM   11  C16 UNL     1      25.323   6.114  48.642  1.00  0.00    -0.081 C 
HETATM   12  C17 UNL     1      26.813   6.010  48.654  1.00  0.00     0.043 C 
HETATM   13  C21 UNL     1      25.529   7.348  47.787  1.00  0.00     0.043 C 
HETATM   14  C18 UNL     1      26.852   7.531  48.487  1.00  0.00    -0.041 C 
HETATM   15  C19 UNL     1      26.808   8.238  49.807  1.00  0.00     0.015 C 
HETATM   16  C20 UNL     1      27.952   8.009  47.573  1.00  0.00     0.015 C 
ENDBRANCH   9  10
ENDBRANCH   7   9
ENDBRANCH   5   7
BRANCH   1  17
HETATM   17  C2  UNL     1      21.144   3.120  51.023  1.00  0.00     0.006 C 
HETATM   18  C1  UNL     1      20.655   3.659  49.726  1.00  0.00     0.006 C 
ENDBRANCH   1  17
BRANCH   4  19
HETATM   19  N1  UNL     1      25.289   2.850  53.366  1.00  0.00    -0.398 N 
HETATM   20  H10 UNL     1      25.567   3.597  54.003  1.00  0.00     0.155 HD
BRANCH  19  21
HETATM   21  C7  UNL     1      26.143   1.745  53.187  1.00  0.00     0.172 A 
HETATM   22  C8  UNL     1      26.276   0.846  54.339  1.00  0.00     0.007 A 
HETATM   23  C9  UNL     1      27.441   0.389  54.827  1.00  0.00     0.018 A 
HETATM   24  C10 UNL     1      28.691   0.789  54.199  1.00  0.00     0.118 A 
HETATM   25  N2  UNL     1      28.753   1.589  53.162  1.00  0.00    -0.244 NA
HETATM   26  C11 UNL     1      27.493   2.069  52.656  1.00  0.00     0.144 A 
HETATM   27  N3  UNL     1      27.533   2.874  51.620  1.00  0.00    -0.284 NA
HETATM   28  H15 UNL     1      26.601   3.204  51.277  1.00  0.00     0.188 HD
ENDBRANCH  19  21
ENDBRANCH   4  19
TORSDOF 6
ENDMDL
MODEL 9
REMARK VINA RESULT:      -7.9      8.834     11.104
REMARK  6 active torsions:
REMARK  status: ('A' for Active; 'I' for Inactive)
REMARK    1  A    between atoms: C2_2  and  C3_3 
REMARK    2  A    between atoms: C6_6  and  N1_7 
REMARK    3  A    between atoms: N1_7  and  C7_8 
REMARK    4  A    between atoms: C12_15  and  N4_17 
REMARK    5  A    between atoms: N4_17  and  C14_18 
REMARK    6  A    between atoms: C14_18  and  C15_19 
ROOT
HETATM    1  C3  UNL     1      31.612   8.435  47.383  1.00  0.00     0.048 C 
HETATM    2  C4  UNL     1      30.730   7.841  46.331  1.00  0.00    -0.021 C 
HETATM    3  C5  UNL     1      29.487   7.845  46.789  1.00  0.00    -0.003 C 
HETATM    4  C6  UNL     1      29.327   8.404  48.132  1.00  0.00     0.139 C 
HETATM    5  C12 UNL     1      30.781   8.598  48.596  1.00  0.00     0.184 C 
HETATM    6  C13 UNL     1      30.830  10.034  49.134  1.00  0.00     0.052 C 
ENDROOT
BRANCH   5   7
HETATM    7  N4  UNL     1      30.968   7.668  49.651  1.00  0.00     0.099 NA
HETATM    8  H19 UNL     1      30.045   7.289  49.941  1.00  0.00     0.317 HD
BRANCH   7   9
HETATM    9  C14 UNL     1      31.935   6.659  49.590  1.00  0.00     0.298 C 
BRANCH   9  10
HETATM   10  C15 UNL     1      31.570   5.365  48.996  1.00  0.00     0.006 C 
HETATM   11  C16 UNL     1      32.478   4.749  48.186  1.00  0.00    -0.081 C 
HETATM   12  C17 UNL     1      33.844   5.201  47.785  1.00  0.00     0.043 C 
HETATM   13  C21 UNL     1      32.760   3.522  47.342  1.00  0.00     0.043 C 
HETATM   14  C18 UNL     1      33.661   4.390  46.500  1.00  0.00    -0.041 C 
HETATM   15  C19 UNL     1      32.992   5.191  45.426  1.00  0.00     0.015 C 
HETATM   16  C20 UNL     1      34.917   3.687  46.048  1.00  0.00     0.015 C 
ENDBRANCH   9  10
ENDBRANCH   7   9
ENDBRANCH   5   7
BRANCH   1  17
HETATM   17  C2  UNL     1      32.310   9.670  46.886  1.00  0.00     0.006 C 
HETATM   18  C1  UNL     1      33.789   9.568  46.760  1.00  0.00     0.006 C 
ENDBRANCH   1  17
BRANCH   4  19
HETATM   19  N1  UNL     1      28.607   7.578  49.043  1.00  0.00    -0.398 N 
HETATM   20  H10 UNL     1      29.137   7.075  49.755  1.00  0.00     0.155 HD
BRANCH  19  21
HETATM   21  C7  UNL     1      27.244   7.851  49.265  1.00  0.00     0.172 A 
HETATM   22  C8  UNL     1      26.362   7.694  48.102  1.00  0.00     0.007 A 
HETATM   23  C9  UNL     1      25.441   8.589  47.708  1.00  0.00     0.018 A 
HETATM   24  C10 UNL     1      25.270   9.823  48.460  1.00  0.00     0.118 A 
HETATM   25  N2  UNL     1      25.976  10.124  49.522  1.00  0.00    -0.244 NA
HETATM   26  C11 UNL     1      26.959   9.151  49.926  1.00  0.00     0.144 A 
HETATM   27  N3  UNL     1      27.679   9.435  50.986  1.00  0.00    -0.284 NA
HETATM   28  H15 UNL     1      28.383   8.708  51.253  1.00  0.00     0.188 HD
ENDBRANCH  19  21
ENDBRANCH   4  19
TORSDOF 6
ENDMDL
