MODEL 1
REMARK VINA RESULT:      -6.3      0.000      0.000
REMARK  8 active torsions:
REMARK  status: ('A' for Active; 'I' for Inactive)
REMARK    1  A    between atoms: C2_2  and  O1_3 
REMARK    2  A    between atoms: O1_3  and  C3_4 
REMARK    3  A    between atoms: C3_4  and  N1_5 
REMARK       I    between atoms: N1_5  and  C4_6 
REMARK    4  A    between atoms: N1_5  and  C8_12 
REMARK    5  A    between atoms: C4_6  and  C5_8 
REMARK    6  A    between atoms: C5_8  and  N2_9 
REMARK    7  A    between atoms: C11_16  and  N4_17 
REMARK    8  A    between atoms: C13_19  and  C14_20 
ROOT
HETATM    1  C8  UNL     1      21.906   3.486  51.253  1.00  0.00     0.070 A 
HETATM    2  C9  UNL     1      20.742   4.199  50.957  1.00  0.00     0.147 A 
HETATM    3  N3  UNL     1      20.718   5.555  50.911  1.00  0.00    -0.268 NA
HETATM    4  C10 UNL     1      21.864   6.249  51.162  1.00  0.00     0.146 A 
HETATM    5  C11 UNL     1      23.024   5.566  51.457  1.00  0.00     0.059 A 
HETATM    6  C13 UNL     1      23.051   4.200  51.504  1.00  0.00     0.030 A 
ENDROOT
BRANCH   1   7
HETATM    7  N1  UNL     1      21.669   2.084  51.238  1.00  0.00    -0.292 N 
HETATM    8  C4  UNL     1      21.081   1.477  52.398  1.00  0.00     0.254 C 
HETATM    9  O2  UNL     1      20.837   2.287  53.349  1.00  0.00    -0.271 OA
BRANCH   7  10
HETATM   10  C3  UNL     1      22.013   1.255  50.104  1.00  0.00     0.301 C 
BRANCH  10  11
HETATM   11  O1  UNL     1      20.976   1.063  49.208  1.00  0.00    -0.372 OA
BRANCH  11  12
HETATM   12  C2  UNL     1      21.072   1.950  48.133  1.00  0.00     0.165 C 
HETATM   13  C1  UNL     1      22.529   2.135  47.735  1.00  0.00     0.033 C 
ENDBRANCH  11  12
ENDBRANCH  10  11
ENDBRANCH   7  10
BRANCH   8  14
HETATM   14  C5  UNL     1      20.807   0.016  52.417  1.00  0.00     0.374 C 
BRANCH  14  15
HETATM   15  N2  UNL     1      21.525  -0.553  53.525  1.00  0.00     0.088 N 
HETATM   16  C6  UNL     1      20.809  -1.642  54.117  1.00  0.00     0.310 C 
HETATM   17  C7  UNL     1      22.906  -0.800  53.250  1.00  0.00     0.310 C 
ENDBRANCH  14  15
ENDBRANCH   8  14
ENDBRANCH   1   7
BRANCH   6  18
HETATM   18  C14 UNL     1      24.217   3.410  51.801  1.00  0.00    -0.019 A 
HETATM   19  C15 UNL     1      25.116   3.284  50.754  1.00  0.00     0.015 A 
HETATM   20  C16 UNL     1      26.301   2.566  50.853  1.00  0.00     0.045 A 
HETATM   21  C17 UNL     1      26.611   1.942  52.049  1.00  0.00     0.138 A 
HETATM   22  F1  UNL     1      27.734   1.231  52.230  1.00  0.00    -0.204 F 
HETATM   23  C18 UNL     1      25.730   2.057  53.100  1.00  0.00     0.073 A 
HETATM   24 CL1  UNL     1      26.098   1.278  54.620  1.00  0.00    -0.081 Cl
HETATM   25  C19 UNL     1      24.561   2.769  52.988  1.00  0.00     0.039 A 
ENDBRANCH   6  18
BRANCH   5  26
HETATM   26  N4  UNL     1      24.226   6.278  51.721  1.00  0.00    -0.392 N 
HETATM   27  C12 UNL     1      24.846   7.057  50.653  1.00  0.00     0.146 C 
HETATM   28  H18 UNL     1      24.683   6.263  52.653  1.00  0.00     0.159 HD
ENDBRANCH   5  26
TORSDOF 8
ENDMDL
MODEL 2
REMARK VINA RESULT:      -6.2      1.754      4.889
REMARK  8 active torsions:
REMARK  status: ('A' for Active; 'I' for Inactive)
REMARK    1  A    between atoms: C2_2  and  O1_3 
REMARK    2  A    between atoms: O1_3  and  C3_4 
REMARK    3  A    between atoms: C3_4  and  N1_5 
REMARK       I    between atoms: N1_5  and  C4_6 
REMARK    4  A    between atoms: N1_5  and  C8_12 
REMARK    5  A    between atoms: C4_6  and  C5_8 
REMARK    6  A    between atoms: C5_8  and  N2_9 
REMARK    7  A    between atoms: C11_16  and  N4_17 
REMARK    8  A    between atoms: C13_19  and  C14_20 
ROOT
HETATM    1  C8  UNL     1      22.627   2.316  52.067  1.00  0.00     0.070 A 
HETATM    2  C9  UNL     1      21.258   2.585  52.014  1.00  0.00     0.147 A 
HETATM    3  N3  UNL     1      20.354   1.878  52.740  1.00  0.00    -0.268 NA
HETATM    4  C10 UNL     1      20.792   0.871  53.546  1.00  0.00     0.146 A 
HETATM    5  C11 UNL     1      22.139   0.588  53.614  1.00  0.00     0.059 A 
HETATM    6  C13 UNL     1      23.051   1.298  52.885  1.00  0.00     0.030 A 
ENDROOT
BRANCH   1   7
HETATM    7  N1  UNL     1      23.357   3.193  51.220  1.00  0.00    -0.292 N 
HETATM    8  C4  UNL     1      23.744   4.476  51.733  1.00  0.00     0.254 C 
HETATM    9  O2  UNL     1      23.368   4.699  52.929  1.00  0.00    -0.271 OA
BRANCH   7  10
HETATM   10  C3  UNL     1      23.709   2.840  49.862  1.00  0.00     0.301 C 
BRANCH  10  11
HETATM   11  O1  UNL     1      22.751   3.178  48.923  1.00  0.00    -0.372 OA
BRANCH  11  12
HETATM   12  C2  UNL     1      22.511   2.117  48.046  1.00  0.00     0.165 C 
HETATM   13  C1  UNL     1      21.499   1.155  48.651  1.00  0.00     0.033 C 
ENDBRANCH  11  12
ENDBRANCH  10  11
ENDBRANCH   7  10
BRANCH   8  14
HETATM   14  C5  UNL     1      24.519   5.417  50.882  1.00  0.00     0.374 C 
BRANCH  14  15
HETATM   15  N2  UNL     1      23.786   6.652  50.811  1.00  0.00     0.088 N 
HETATM   16  C6  UNL     1      24.636   7.753  50.469  1.00  0.00     0.310 C 
HETATM   17  C7  UNL     1      22.571   6.557  50.065  1.00  0.00     0.310 C 
ENDBRANCH  14  15
ENDBRANCH   8  14
ENDBRANCH   1   7
BRANCH   6  18
HETATM   18  C14 UNL     1      24.472   1.070  52.898  1.00  0.00    -0.019 A 
HETATM   19  C15 UNL     1      24.873  -0.132  52.338  1.00  0.00     0.015 A 
HETATM   20  C16 UNL     1      26.203  -0.524  52.255  1.00  0.00     0.045 A 
HETATM   21  C17 UNL     1      27.184   0.317  52.750  1.00  0.00     0.138 A 
HETATM   22  F1  UNL     1      28.492   0.016  52.708  1.00  0.00    -0.204 F 
HETATM   23  C18 UNL     1      26.805   1.515  53.308  1.00  0.00     0.073 A 
HETATM   24 CL1  UNL     1      28.023   2.595  53.941  1.00  0.00    -0.081 Cl
HETATM   25  C19 UNL     1      25.485   1.890  53.386  1.00  0.00     0.039 A 
ENDBRANCH   6  18
BRANCH   5  26
HETATM   26  N4  UNL     1      22.608  -0.461  54.453  1.00  0.00    -0.392 N 
HETATM   27  C12 UNL     1      21.793  -1.659  54.626  1.00  0.00     0.146 C 
HETATM   28  H18 UNL     1      23.518  -0.403  54.951  1.00  0.00     0.159 HD
ENDBRANCH   5  26
TORSDOF 8
ENDMDL
MODEL 3
REMARK VINA RESULT:      -6.2      3.303      6.249
REMARK  8 active torsions:
REMARK  status: ('A' for Active; 'I' for Inactive)
REMARK    1  A    between atoms: C2_2  and  O1_3 
REMARK    2  A    between atoms: O1_3  and  C3_4 
REMARK    3  A    between atoms: C3_4  and  N1_5 
REMARK       I    between atoms: N1_5  and  C4_6 
REMARK    4  A    between atoms: N1_5  and  C8_12 
REMARK    5  A    between atoms: C4_6  and  C5_8 
REMARK    6  A    between atoms: C5_8  and  N2_9 
REMARK    7  A    between atoms: C11_16  and  N4_17 
REMARK    8  A    between atoms: C13_19  and  C14_20 
ROOT
HETATM    1  C8  UNL     1      24.308   2.354  52.053  1.00  0.00     0.070 A 
HETATM    2  C9  UNL     1      25.517   2.218  52.738  1.00  0.00     0.147 A 
HETATM    3  N3  UNL     1      25.782   1.149  53.531  1.00  0.00    -0.268 NA
HETATM    4  C10 UNL     1      24.840   0.174  53.668  1.00  0.00     0.146 A 
HETATM    5  C11 UNL     1      23.639   0.288  53.002  1.00  0.00     0.059 A 
HETATM    6  C13 UNL     1      23.369   1.363  52.202  1.00  0.00     0.030 A 
ENDROOT
BRANCH   1   7
HETATM    7  N1  UNL     1      24.278   3.555  51.293  1.00  0.00    -0.292 N 
HETATM    8  C4  UNL     1      23.662   4.716  51.871  1.00  0.00     0.254 C 
HETATM    9  O2  UNL     1      23.184   4.531  53.037  1.00  0.00    -0.271 OA
BRANCH   7  10
HETATM   10  C3  UNL     1      24.833   3.641  49.960  1.00  0.00     0.301 C 
BRANCH  10  11
HETATM   11  O1  UNL     1      26.179   3.958  49.928  1.00  0.00    -0.372 OA
BRANCH  11  12
HETATM   12  C2  UNL     1      26.428   5.002  49.033  1.00  0.00     0.165 C 
HETATM   13  C1  UNL     1      27.877   4.962  48.570  1.00  0.00     0.033 C 
ENDBRANCH  11  12
ENDBRANCH  10  11
ENDBRANCH   7  10
BRANCH   8  14
HETATM   14  C5  UNL     1      23.620   5.994  51.114  1.00  0.00     0.374 C 
BRANCH  14  15
HETATM   15  N2  UNL     1      22.240   6.332  50.896  1.00  0.00     0.088 N 
HETATM   16  C6  UNL     1      22.081   7.714  50.553  1.00  0.00     0.310 C 
HETATM   17  C7  UNL     1      21.546   5.406  50.057  1.00  0.00     0.310 C 
ENDBRANCH  14  15
ENDBRANCH   8  14
ENDBRANCH   1   7
BRANCH   6  18
HETATM   18  C14 UNL     1      22.146   1.559  51.471  1.00  0.00    -0.019 A 
HETATM   19  C15 UNL     1      22.179   1.123  50.156  1.00  0.00     0.015 A 
HETATM   20  C16 UNL     1      21.091   1.221  49.297  1.00  0.00     0.045 A 
HETATM   21  C17 UNL     1      19.914   1.778  49.763  1.00  0.00     0.138 A 
HETATM   22  F1  UNL     1      18.818   1.910  49.000  1.00  0.00    -0.204 F 
HETATM   23  C18 UNL     1      19.862   2.216  51.066  1.00  0.00     0.073 A 
HETATM   24 CL1  UNL     1      18.388   2.922  51.680  1.00  0.00    -0.081 Cl
HETATM   25  C19 UNL     1      20.945   2.113  51.906  1.00  0.00     0.039 A 
ENDBRANCH   6  18
BRANCH   5  26
HETATM   26  N4  UNL     1      22.648  -0.723  53.136  1.00  0.00    -0.392 N 
HETATM   27  C12 UNL     1      22.112  -1.030  54.459  1.00  0.00     0.146 C 
HETATM   28  H18 UNL     1      22.289  -1.256  52.320  1.00  0.00     0.159 HD
ENDBRANCH   5  26
TORSDOF 8
ENDMDL
MODEL 4
REMARK VINA RESULT:      -6.1      2.641      4.574
REMARK  8 active torsions:
REMARK  status: ('A' for Active; 'I' for Inactive)
REMARK    1  A    between atoms: C2_2  and  O1_3 
REMARK    2  A    between atoms: O1_3  and  C3_4 
REMARK    3  A    between atoms: C3_4  and  N1_5 
REMARK       I    between atoms: N1_5  and  C4_6 
REMARK    4  A    between atoms: N1_5  and  C8_12 
REMARK    5  A    between atoms: C4_6  and  C5_8 
REMARK    6  A    between atoms: C5_8  and  N2_9 
REMARK    7  A    between atoms: C11_16  and  N4_17 
REMARK    8  A    between atoms: C13_19  and  C14_20 
ROOT
HETATM    1  C8  UNL     1      21.995   1.177  51.887  1.00  0.00     0.070 A 
HETATM    2  C9  UNL     1      21.558  -0.083  52.300  1.00  0.00     0.147 A 
HETATM    3  N3  UNL     1      22.325  -0.900  53.065  1.00  0.00    -0.268 NA
HETATM    4  C10 UNL     1      23.566  -0.482  53.444  1.00  0.00     0.146 A 
HETATM    5  C11 UNL     1      24.019   0.758  53.048  1.00  0.00     0.059 A 
HETATM    6  C13 UNL     1      23.247   1.583  52.277  1.00  0.00     0.030 A 
ENDROOT
BRANCH   1   7
HETATM    7  N1  UNL     1      21.010   1.832  51.100  1.00  0.00    -0.292 N 
HETATM    8  C4  UNL     1      20.048   2.667  51.762  1.00  0.00     0.254 C 
HETATM    9  O2  UNL     1      20.182   2.720  53.027  1.00  0.00    -0.271 OA
BRANCH   7  10
HETATM   10  C3  UNL     1      20.938   1.676  49.663  1.00  0.00     0.301 C 
BRANCH  10  11
HETATM   11  O1  UNL     1      22.150   1.379  49.065  1.00  0.00    -0.372 OA
BRANCH  11  12
HETATM   12  C2  UNL     1      22.254   1.991  47.813  1.00  0.00     0.165 C 
HETATM   13  C1  UNL     1      22.115   3.500  47.954  1.00  0.00     0.033 C 
ENDBRANCH  11  12
ENDBRANCH  10  11
ENDBRANCH   7  10
BRANCH   8  14
HETATM   14  C5  UNL     1      19.009   3.379  50.973  1.00  0.00     0.374 C 
BRANCH  14  15
HETATM   15  N2  UNL     1      17.727   3.060  51.542  1.00  0.00     0.088 N 
HETATM   16  C6  UNL     1      16.833   4.177  51.493  1.00  0.00     0.310 C 
HETATM   17  C7  UNL     1      17.188   1.817  51.085  1.00  0.00     0.310 C 
ENDBRANCH  14  15
ENDBRANCH   8  14
ENDBRANCH   1   7
BRANCH   6  18
HETATM   18  C14 UNL     1      23.641   2.890  51.822  1.00  0.00    -0.019 A 
HETATM   19  C15 UNL     1      23.178   3.939  52.599  1.00  0.00     0.015 A 
HETATM   20  C16 UNL     1      23.461   5.271  52.322  1.00  0.00     0.045 A 
HETATM   21  C17 UNL     1      24.241   5.578  51.221  1.00  0.00     0.138 A 
HETATM   22  F1  UNL     1      24.561   6.836  50.883  1.00  0.00    -0.204 F 
HETATM   23  C18 UNL     1      24.710   4.548  50.438  1.00  0.00     0.073 A 
HETATM   24 CL1  UNL     1      25.697   4.908  49.043  1.00  0.00    -0.081 Cl
HETATM   25  C19 UNL     1      24.422   3.235  50.723  1.00  0.00     0.039 A 
ENDBRANCH   6  18
BRANCH   5  26
HETATM   26  N4  UNL     1      25.311   1.206  53.437  1.00  0.00    -0.392 N 
HETATM   27  C12 UNL     1      26.153   0.338  54.255  1.00  0.00     0.146 C 
HETATM   28  H18 UNL     1      25.680   2.135  53.159  1.00  0.00     0.159 HD
ENDBRANCH   5  26
TORSDOF 8
ENDMDL
MODEL 5
REMARK VINA RESULT:      -5.9      2.966      5.681
REMARK  8 active torsions:
REMARK  status: ('A' for Active; 'I' for Inactive)
REMARK    1  A    between atoms: C2_2  and  O1_3 
REMARK    2  A    between atoms: O1_3  and  C3_4 
REMARK    3  A    between atoms: C3_4  and  N1_5 
REMARK       I    between atoms: N1_5  and  C4_6 
REMARK    4  A    between atoms: N1_5  and  C8_12 
REMARK    5  A    between atoms: C4_6  and  C5_8 
REMARK    6  A    between atoms: C5_8  and  N2_9 
REMARK    7  A    between atoms: C11_16  and  N4_17 
REMARK    8  A    between atoms: C13_19  and  C14_20 
ROOT
HETATM    1  C8  UNL     1      24.437   3.055  50.920  1.00  0.00     0.070 A 
HETATM    2  C9  UNL     1      25.664   3.620  50.567  1.00  0.00     0.147 A 
HETATM    3  N3  UNL     1      26.846   3.012  50.843  1.00  0.00    -0.268 NA
HETATM    4  C10 UNL     1      26.840   1.812  51.489  1.00  0.00     0.146 A 
HETATM    5  C11 UNL     1      25.641   1.237  51.848  1.00  0.00     0.059 A 
HETATM    6  C13 UNL     1      24.449   1.846  51.571  1.00  0.00     0.030 A 
ENDROOT
BRANCH   1   7
HETATM    7  N1  UNL     1      23.354   3.883  50.520  1.00  0.00    -0.292 N 
HETATM    8  C4  UNL     1      22.860   3.763  49.177  1.00  0.00     0.254 C 
HETATM    9  O2  UNL     1      23.476   2.905  48.466  1.00  0.00    -0.271 OA
BRANCH   7  10
HETATM   10  C3  UNL     1      22.746   4.847  51.411  1.00  0.00     0.301 C 
BRANCH  10  11
HETATM   11  O1  UNL     1      23.639   5.747  51.964  1.00  0.00    -0.372 OA
BRANCH  11  12
HETATM   12  C2  UNL     1      23.953   6.763  51.058  1.00  0.00     0.165 C 
HETATM   13  C1  UNL     1      22.698   7.539  50.684  1.00  0.00     0.033 C 
ENDBRANCH  11  12
ENDBRANCH  10  11
ENDBRANCH   7  10
BRANCH   8  14
HETATM   14  C5  UNL     1      21.721   4.603  48.723  1.00  0.00     0.374 C 
BRANCH  14  15
HETATM   15  N2  UNL     1      20.622   3.728  48.418  1.00  0.00     0.088 N 
HETATM   16  C6  UNL     1      19.706   3.626  49.515  1.00  0.00     0.310 C 
HETATM   17  C7  UNL     1      20.029   3.973  47.141  1.00  0.00     0.310 C 
ENDBRANCH  14  15
ENDBRANCH   8  14
ENDBRANCH   1   7
BRANCH   6  18
HETATM   18  C14 UNL     1      23.155   1.315  51.907  1.00  0.00    -0.019 A 
HETATM   19  C15 UNL     1      22.401   0.893  50.825  1.00  0.00     0.015 A 
HETATM   20  C16 UNL     1      21.130   0.345  50.952  1.00  0.00     0.045 A 
HETATM   21  C17 UNL     1      20.580   0.210  52.215  1.00  0.00     0.138 A 
HETATM   22  F1  UNL     1      19.361  -0.309  52.427  1.00  0.00    -0.204 F 
HETATM   23  C18 UNL     1      21.315   0.623  53.302  1.00  0.00     0.073 A 
HETATM   24 CL1  UNL     1      20.644   0.463  54.907  1.00  0.00    -0.081 Cl
HETATM   25  C19 UNL     1      22.571   1.163  53.162  1.00  0.00     0.039 A 
ENDBRANCH   6  18
BRANCH   5  26
HETATM   26  N4  UNL     1      25.622  -0.016  52.522  1.00  0.00    -0.392 N 
HETATM   27  C12 UNL     1      26.860  -0.778  52.652  1.00  0.00     0.146 C 
HETATM   28  H18 UNL     1      24.752  -0.410  52.928  1.00  0.00     0.159 HD
ENDBRANCH   5  26
TORSDOF 8
ENDMDL
MODEL 6
REMARK VINA RESULT:      -5.9      2.766      5.176
REMARK  8 active torsions:
REMARK  status: ('A' for Active; 'I' for Inactive)
REMARK    1  A    between atoms: C2_2  and  O1_3 
REMARK    2  A    between atoms: O1_3  and  C3_4 
REMARK    3  A    between atoms: C3_4  and  N1_5 
REMARK       I    between atoms: N1_5  and  C4_6 
REMARK    4  A    between atoms: N1_5  and  C8_12 
REMARK    5  A    between atoms: C4_6  and  C5_8 
REMARK    6  A    between atoms: C5_8  and  N2_9 
REMARK    7  A    between atoms: C11_16  and  N4_17 
REMARK    8  A    between atoms: C13_19  and  C14_20 
ROOT
HETATM    1  C8  UNL     1      24.570   2.956  51.033  1.00  0.00     0.070 A 
HETATM    2  C9  UNL     1      25.828   3.481  50.731  1.00  0.00     0.147 A 
HETATM    3  N3  UNL     1      26.977   2.827  51.038  1.00  0.00    -0.268 NA
HETATM    4  C10 UNL     1      26.906   1.618  51.662  1.00  0.00     0.146 A 
HETATM    5  C11 UNL     1      25.676   1.080  51.970  1.00  0.00     0.059 A 
HETATM    6  C13 UNL     1      24.516   1.737  51.662  1.00  0.00     0.030 A 
ENDROOT
BRANCH   1   7
HETATM    7  N1  UNL     1      23.531   3.828  50.609  1.00  0.00    -0.292 N 
HETATM    8  C4  UNL     1      22.817   4.576  51.605  1.00  0.00     0.254 C 
HETATM    9  O2  UNL     1      23.199   4.358  52.800  1.00  0.00    -0.271 OA
BRANCH   7  10
HETATM   10  C3  UNL     1      23.165   3.977  49.218  1.00  0.00     0.301 C 
BRANCH  10  11
HETATM   11  O1  UNL     1      22.829   2.789  48.592  1.00  0.00    -0.372 OA
BRANCH  11  12
HETATM   12  C2  UNL     1      21.901   3.006  47.571  1.00  0.00     0.165 C 
HETATM   13  C1  UNL     1      20.555   2.403  47.949  1.00  0.00     0.033 C 
ENDBRANCH  11  12
ENDBRANCH  10  11
ENDBRANCH   7  10
BRANCH   8  14
HETATM   14  C5  UNL     1      21.732   5.508  51.202  1.00  0.00     0.374 C 
BRANCH  14  15
HETATM   15  N2  UNL     1      20.648   4.722  50.677  1.00  0.00     0.088 N 
HETATM   16  C6  UNL     1      20.069   3.881  51.682  1.00  0.00     0.310 C 
HETATM   17  C7  UNL     1      19.719   5.475  49.893  1.00  0.00     0.310 C 
ENDBRANCH  14  15
ENDBRANCH   8  14
ENDBRANCH   1   7
BRANCH   6  18
HETATM   18  C14 UNL     1      23.194   1.247  51.945  1.00  0.00    -0.019 A 
HETATM   19  C15 UNL     1      22.462   0.873  50.829  1.00  0.00     0.015 A 
HETATM   20  C16 UNL     1      21.169   0.370  50.904  1.00  0.00     0.045 A 
HETATM   21  C17 UNL     1      20.572   0.231  52.144  1.00  0.00     0.138 A 
HETATM   22  F1  UNL     1      19.328  -0.247  52.305  1.00  0.00    -0.204 F 
HETATM   23  C18 UNL     1      21.283   0.597  53.263  1.00  0.00     0.073 A 
HETATM   24 CL1  UNL     1      20.553   0.431  54.841  1.00  0.00    -0.081 Cl
HETATM   25  C19 UNL     1      22.562   1.093  53.176  1.00  0.00     0.039 A 
ENDBRANCH   6  18
BRANCH   5  26
HETATM   26  N4  UNL     1      25.589  -0.181  52.621  1.00  0.00    -0.392 N 
HETATM   27  C12 UNL     1      26.719  -1.103  52.551  1.00  0.00     0.146 C 
HETATM   28  H18 UNL     1      24.743  -0.472  53.149  1.00  0.00     0.159 HD
ENDBRANCH   5  26
TORSDOF 8
ENDMDL
MODEL 7
REMARK VINA RESULT:      -5.9      1.546      1.897
REMARK  8 active torsions:
REMARK  status: ('A' for Active; 'I' for Inactive)
REMARK    1  A    between atoms: C2_2  and  O1_3 
REMARK    2  A    between atoms: O1_3  and  C3_4 
REMARK    3  A    between atoms: C3_4  and  N1_5 
REMARK       I    between atoms: N1_5  and  C4_6 
REMARK    4  A    between atoms: N1_5  and  C8_12 
REMARK    5  A    between atoms: C4_6  and  C5_8 
REMARK    6  A    between atoms: C5_8  and  N2_9 
REMARK    7  A    between atoms: C11_16  and  N4_17 
REMARK    8  A    between atoms: C13_19  and  C14_20 
ROOT
HETATM    1  C8  UNL     1      21.919   5.284  50.502  1.00  0.00     0.070 A 
HETATM    2  C9  UNL     1      21.037   6.348  50.303  1.00  0.00     0.147 A 
HETATM    3  N3  UNL     1      21.433   7.643  50.396  1.00  0.00    -0.268 NA
HETATM    4  C10 UNL     1      22.734   7.919  50.693  1.00  0.00     0.146 A 
HETATM    5  C11 UNL     1      23.622   6.885  50.893  1.00  0.00     0.059 A 
HETATM    6  C13 UNL     1      23.226   5.580  50.801  1.00  0.00     0.030 A 
ENDROOT
BRANCH   1   7
HETATM    7  N1  UNL     1      21.262   4.034  50.349  1.00  0.00    -0.292 N 
HETATM    8  C4  UNL     1      20.726   3.394  51.517  1.00  0.00     0.254 C 
HETATM    9  O2  UNL     1      20.915   4.036  52.600  1.00  0.00    -0.271 OA
BRANCH   7  10
HETATM   10  C3  UNL     1      21.128   3.382  49.064  1.00  0.00     0.301 C 
BRANCH  10  11
HETATM   11  O1  UNL     1      21.636   4.112  48.004  1.00  0.00    -0.372 OA
BRANCH  11  12
HETATM   12  C2  UNL     1      22.142   3.269  47.011  1.00  0.00     0.165 C 
HETATM   13  C1  UNL     1      22.551   1.933  47.616  1.00  0.00     0.033 C 
ENDBRANCH  11  12
ENDBRANCH  10  11
ENDBRANCH   7  10
BRANCH   8  14
HETATM   14  C5  UNL     1      20.021   2.091  51.397  1.00  0.00     0.374 C 
BRANCH  14  15
HETATM   15  N2  UNL     1      20.711   1.139  52.225  1.00  0.00     0.088 N 
HETATM   16  C6  UNL     1      19.834   0.108  52.691  1.00  0.00     0.310 C 
HETATM   17  C7  UNL     1      21.952   0.691  51.674  1.00  0.00     0.310 C 
ENDBRANCH  14  15
ENDBRANCH   8  14
ENDBRANCH   1   7
BRANCH   6  18
HETATM   18  C14 UNL     1      24.087   4.443  50.992  1.00  0.00    -0.019 A 
HETATM   19  C15 UNL     1      24.811   4.068  49.872  1.00  0.00     0.015 A 
HETATM   20  C16 UNL     1      25.699   2.999  49.866  1.00  0.00     0.045 A 
HETATM   21  C17 UNL     1      25.878   2.267  51.026  1.00  0.00     0.138 A 
HETATM   22  F1  UNL     1      26.716   1.222  51.106  1.00  0.00    -0.204 F 
HETATM   23  C18 UNL     1      25.168   2.626  52.148  1.00  0.00     0.073 A 
HETATM   24 CL1  UNL     1      25.376   1.718  53.626  1.00  0.00    -0.081 Cl
HETATM   25  C19 UNL     1      24.293   3.685  52.141  1.00  0.00     0.039 A 
ENDBRANCH   6  18
BRANCH   5  26
HETATM   26  N4  UNL     1      24.983   7.161  51.204  1.00  0.00    -0.392 N 
HETATM   27  C12 UNL     1      25.870   7.656  50.156  1.00  0.00     0.146 C 
HETATM   28  H18 UNL     1      25.370   7.021  52.157  1.00  0.00     0.159 HD
ENDBRANCH   5  26
TORSDOF 8
ENDMDL
MODEL 8
REMARK VINA RESULT:      -5.8      3.304      6.246
REMARK  8 active torsions:
REMARK  status: ('A' for Active; 'I' for Inactive)
REMARK    1  A    between atoms: C2_2  and  O1_3 
REMARK    2  A    between atoms: O1_3  and  C3_4 
REMARK    3  A    between atoms: C3_4  and  N1_5 
REMARK       I    between atoms: N1_5  and  C4_6 
REMARK    4  A    between atoms: N1_5  and  C8_12 
REMARK    5  A    between atoms: C4_6  and  C5_8 
REMARK    6  A    between atoms: C5_8  and  N2_9 
REMARK    7  A    between atoms: C11_16  and  N4_17 
REMARK    8  A    between atoms: C13_19  and  C14_20 
ROOT
HETATM    1  C8  UNL     1      23.045   0.269  53.392  1.00  0.00     0.070 A 
HETATM    2  C9  UNL     1      23.294  -0.563  54.486  1.00  0.00     0.147 A 
HETATM    3  N3  UNL     1      22.327  -1.340  55.037  1.00  0.00    -0.268 NA
HETATM    4  C10 UNL     1      21.071  -1.310  54.510  1.00  0.00     0.146 A 
HETATM    5  C11 UNL     1      20.802  -0.497  53.431  1.00  0.00     0.059 A 
HETATM    6  C13 UNL     1      21.774   0.287  52.873  1.00  0.00     0.030 A 
ENDROOT
BRANCH   1   7
HETATM    7  N1  UNL     1      24.216   0.975  53.004  1.00  0.00    -0.292 N 
HETATM    8  C4  UNL     1      25.378   0.220  52.628  1.00  0.00     0.254 C 
HETATM    9  O2  UNL     1      25.228  -1.042  52.695  1.00  0.00    -0.271 OA
BRANCH   7  10
HETATM   10  C3  UNL     1      24.279   2.420  52.990  1.00  0.00     0.301 C 
BRANCH  10  11
HETATM   11  O1  UNL     1      24.521   2.964  51.741  1.00  0.00    -0.372 OA
BRANCH  11  12
HETATM   12  C2  UNL     1      24.058   4.280  51.669  1.00  0.00     0.165 C 
HETATM   13  C1  UNL     1      23.518   4.721  53.022  1.00  0.00     0.033 C 
ENDBRANCH  11  12
ENDBRANCH  10  11
ENDBRANCH   7  10
BRANCH   8  14
HETATM   14  C5  UNL     1      26.618   0.922  52.205  1.00  0.00     0.374 C 
BRANCH  14  15
HETATM   15  N2  UNL     1      27.493   0.994  53.344  1.00  0.00     0.088 N 
HETATM   16  C6  UNL     1      28.364  -0.140  53.416  1.00  0.00     0.310 C 
HETATM   17  C7  UNL     1      28.123   2.267  53.504  1.00  0.00     0.310 C 
ENDBRANCH  14  15
ENDBRANCH   8  14
ENDBRANCH   1   7
BRANCH   6  18
HETATM   18  C14 UNL     1      21.580   1.161  51.747  1.00  0.00    -0.019 A 
HETATM   19  C15 UNL     1      20.888   2.328  52.029  1.00  0.00     0.015 A 
HETATM   20  C16 UNL     1      20.611   3.296  51.072  1.00  0.00     0.045 A 
HETATM   21  C17 UNL     1      21.041   3.099  49.772  1.00  0.00     0.138 A 
HETATM   22  F1  UNL     1      20.816   3.983  48.788  1.00  0.00    -0.204 F 
HETATM   23  C18 UNL     1      21.730   1.946  49.473  1.00  0.00     0.073 A 
HETATM   24 CL1  UNL     1      22.284   1.673  47.840  1.00  0.00    -0.081 Cl
HETATM   25  C19 UNL     1      21.997   0.996  50.429  1.00  0.00     0.039 A 
ENDBRANCH   6  18
BRANCH   5  26
HETATM   26  N4  UNL     1      19.495  -0.458  52.872  1.00  0.00    -0.392 N 
HETATM   27  C12 UNL     1      18.464  -1.346  53.400  1.00  0.00     0.146 C 
HETATM   28  H18 UNL     1      19.247   0.184  52.095  1.00  0.00     0.159 HD
ENDBRANCH   5  26
TORSDOF 8
ENDMDL
MODEL 9
REMARK VINA RESULT:      -5.7      3.282      5.627
REMARK  8 active torsions:
REMARK  status: ('A' for Active; 'I' for Inactive)
REMARK    1  A    between atoms: C2_2  and  O1_3 
REMARK    2  A    between atoms: O1_3  and  C3_4 
REMARK    3  A    between atoms: C3_4  and  N1_5 
REMARK       I    between atoms: N1_5  and  C4_6 
REMARK    4  A    between atoms: N1_5  and  C8_12 
REMARK    5  A    between atoms: C4_6  and  C5_8 
REMARK    6  A    between atoms: C5_8  and  N2_9 
REMARK    7  A    between atoms: C11_16  and  N4_17 
REMARK    8  A    between atoms: C13_19  and  C14_20 
ROOT
HETATM    1  C8  UNL     1      20.653   0.760  52.733  1.00  0.00     0.070 A 
HETATM    2  C9  UNL     1      20.390   0.230  53.997  1.00  0.00     0.147 A 
HETATM    3  N3  UNL     1      21.367  -0.298  54.778  1.00  0.00    -0.268 NA
HETATM    4  C10 UNL     1      22.649  -0.314  54.316  1.00  0.00     0.146 A 
HETATM    5  C11 UNL     1      22.932   0.204  53.071  1.00  0.00     0.059 A 
HETATM    6  C13 UNL     1      21.950   0.736  52.283  1.00  0.00     0.030 A 
ENDROOT
BRANCH   1   7
HETATM    7  N1  UNL     1      19.467   1.248  52.121  1.00  0.00    -0.292 N 
HETATM    8  C4  UNL     1      19.233   2.665  52.115  1.00  0.00     0.254 C 
HETATM    9  O2  UNL     1      20.141   3.349  52.687  1.00  0.00    -0.271 OA
BRANCH   7  10
HETATM   10  C3  UNL     1      18.488   0.369  51.521  1.00  0.00     0.301 C 
BRANCH  10  11
HETATM   11  O1  UNL     1      17.337   0.208  52.271  1.00  0.00    -0.372 OA
BRANCH  11  12
HETATM   12  C2  UNL     1      16.889  -1.114  52.226  1.00  0.00     0.165 C 
HETATM   13  C1  UNL     1      17.608  -1.947  53.277  1.00  0.00     0.033 C 
ENDBRANCH  11  12
ENDBRANCH  10  11
ENDBRANCH   7  10
BRANCH   8  14
HETATM   14  C5  UNL     1      18.010   3.215  51.475  1.00  0.00     0.374 C 
BRANCH  14  15
HETATM   15  N2  UNL     1      18.346   3.588  50.128  1.00  0.00     0.088 N 
HETATM   16  C6  UNL     1      17.387   3.096  49.186  1.00  0.00     0.310 C 
HETATM   17  C7  UNL     1      18.700   4.966  49.984  1.00  0.00     0.310 C 
ENDBRANCH  14  15
ENDBRANCH   8  14
ENDBRANCH   1   7
BRANCH   6  18
HETATM   18  C14 UNL     1      22.159   1.297  50.975  1.00  0.00    -0.019 A 
HETATM   19  C15 UNL     1      21.544   0.608  49.941  1.00  0.00     0.015 A 
HETATM   20  C16 UNL     1      21.626   1.003  48.612  1.00  0.00     0.045 A 
HETATM   21  C17 UNL     1      22.353   2.136  48.290  1.00  0.00     0.138 A 
HETATM   22  F1  UNL     1      22.482   2.586  47.032  1.00  0.00    -0.204 F 
HETATM   23  C18 UNL     1      22.970   2.833  49.303  1.00  0.00     0.073 A 
HETATM   24 CL1  UNL     1      23.893   4.266  48.924  1.00  0.00    -0.081 Cl
HETATM   25  C19 UNL     1      22.881   2.431  50.614  1.00  0.00     0.039 A 
ENDBRANCH   6  18
BRANCH   5  26
HETATM   26  N4  UNL     1      24.267   0.193  52.578  1.00  0.00    -0.392 N 
HETATM   27  C12 UNL     1      25.342  -0.298  53.434  1.00  0.00     0.146 C 
HETATM   28  H18 UNL     1      24.505   0.525  51.624  1.00  0.00     0.159 HD
ENDBRANCH   5  26
TORSDOF 8
ENDMDL
