MODEL 1
REMARK VINA RESULT:      -9.4      0.000      0.000
REMARK  5 active torsions:
REMARK  status: ('A' for Active; 'I' for Inactive)
REMARK    1  A    between atoms: N1_1  and  C1_2 
REMARK    2  A    between atoms: C6_7  and  N2_8 
REMARK    3  A    between atoms: N2_8  and  C7_9 
REMARK    4  A    between atoms: C10_14  and  C11_15 
REMARK    5  A    between atoms: C14_18  and  O1_19 
ROOT
HETATM    1  C7  UNL     1      24.331   1.794  51.512  1.00  0.00     0.126 C 
HETATM    2  C8  UNL     1      23.361   2.868  51.899  1.00  0.00     0.111 C 
HETATM    3  N3  UNL     1      23.059   3.736  50.971  1.00  0.00    -0.273 NA
HETATM    4  C9  UNL     1      23.729   3.511  49.692  1.00  0.00     0.237 A 
HETATM    5  N4  UNL     1      23.910   4.648  48.856  1.00  0.00    -0.363 N 
HETATM    6  C10 UNL     1      25.292   4.607  49.272  1.00  0.00     0.046 A 
HETATM    7  C17 UNL     1      25.189   3.556  50.068  1.00  0.00    -0.007 A 
HETATM    8  C18 UNL     1      25.599   2.495  51.032  1.00  0.00     0.071 C 
HETATM    9  H11 UNL     1      23.172   5.121  48.288  1.00  0.00     0.162 HD
ENDROOT
BRANCH   1  10
HETATM   10  N2  UNL     1      24.575   0.826  52.514  1.00  0.00    -0.384 N 
HETATM   11  H7  UNL     1      23.752   0.324  52.902  1.00  0.00     0.160 HD
BRANCH  10  12
HETATM   12  C6  UNL     1      25.825   0.458  53.061  1.00  0.00     0.005 C 
HETATM   13  C5  UNL     1      26.441  -0.631  52.628  1.00  0.00     0.024 C 
HETATM   14  C4  UNL     1      27.663  -1.418  52.834  1.00  0.00     0.002 C 
HETATM   15  C3  UNL     1      28.829  -1.078  53.386  1.00  0.00     0.002 C 
HETATM   16  C2  UNL     1      29.383   0.142  53.994  1.00  0.00     0.024 C 
HETATM   17  C1  UNL     1      28.869   1.360  54.049  1.00  0.00     0.003 C 
HETATM   18  C20 UNL     1      27.641   2.063  53.589  1.00  0.00     0.062 C 
HETATM   19  C19 UNL     1      26.366   1.384  54.112  1.00  0.00     0.062 C 
BRANCH  17  20
HETATM   20  N1  UNL     1      29.828   2.171  54.761  1.00  0.00    -0.402 N 
HETATM   21  H1  UNL     1      29.354   2.553  55.635  1.00  0.00     0.156 HD
HETATM   22  H2  UNL     1      30.843   2.429  54.578  1.00  0.00     0.156 HD
ENDBRANCH  17  20
ENDBRANCH  10  12
ENDBRANCH   1  10
BRANCH   6  23
HETATM   23  C11 UNL     1      26.374   5.493  48.867  1.00  0.00    -0.009 A 
HETATM   24  C12 UNL     1      26.340   6.874  48.660  1.00  0.00     0.016 A 
HETATM   25  C13 UNL     1      27.473   7.541  48.259  1.00  0.00     0.037 A 
HETATM   26  C14 UNL     1      28.662   6.879  48.047  1.00  0.00     0.065 A 
HETATM   27  C15 UNL     1      28.792   5.529  48.223  1.00  0.00     0.037 A 
HETATM   28  C16 UNL     1      27.622   4.885  48.633  1.00  0.00     0.016 A 
BRANCH  26  29
HETATM   29  O1  UNL     1      29.815   7.537  47.638  1.00  0.00    -0.361 OA
HETATM   30  H14 UNL     1      29.933   8.519  47.608  1.00  0.00     0.217 HD
ENDBRANCH  26  29
ENDBRANCH   6  23
TORSDOF 5
ENDMDL
MODEL 2
REMARK VINA RESULT:      -9.2      1.482      2.139
REMARK  5 active torsions:
REMARK  status: ('A' for Active; 'I' for Inactive)
REMARK    1  A    between atoms: N1_1  and  C1_2 
REMARK    2  A    between atoms: C6_7  and  N2_8 
REMARK    3  A    between atoms: N2_8  and  C7_9 
REMARK    4  A    between atoms: C10_14  and  C11_15 
REMARK    5  A    between atoms: C14_18  and  O1_19 
ROOT
HETATM    1  C7  UNL     1      25.156   2.586  51.259  1.00  0.00     0.126 C 
HETATM    2  C8  UNL     1      24.359   3.743  51.778  1.00  0.00     0.111 C 
HETATM    3  N3  UNL     1      24.028   4.654  50.904  1.00  0.00    -0.273 NA
HETATM    4  C9  UNL     1      24.497   4.389  49.545  1.00  0.00     0.237 A 
HETATM    5  N4  UNL     1      24.681   5.518  48.700  1.00  0.00    -0.363 N 
HETATM    6  C10 UNL     1      26.094   5.331  48.928  1.00  0.00     0.046 A 
HETATM    7  C17 UNL     1      25.991   4.281  49.725  1.00  0.00    -0.007 A 
HETATM    8  C18 UNL     1      26.414   3.166  50.620  1.00  0.00     0.071 C 
HETATM    9  H11 UNL     1      23.927   6.073  48.237  1.00  0.00     0.162 HD
ENDROOT
BRANCH   1  10
HETATM   10  N2  UNL     1      25.431   1.579  52.215  1.00  0.00    -0.384 N 
HETATM   11  H7  UNL     1      24.663   1.318  52.865  1.00  0.00     0.160 HD
BRANCH  10  12
HETATM   12  C6  UNL     1      26.645   0.879  52.395  1.00  0.00     0.005 C 
HETATM   13  C5  UNL     1      27.637   1.440  53.069  1.00  0.00     0.024 C 
HETATM   14  C4  UNL     1      29.010   1.182  53.520  1.00  0.00     0.002 C 
HETATM   15  C3  UNL     1      29.673   0.033  53.662  1.00  0.00     0.002 C 
HETATM   16  C2  UNL     1      29.360  -1.389  53.451  1.00  0.00     0.024 C 
HETATM   17  C1  UNL     1      28.203  -1.958  53.154  1.00  0.00     0.003 C 
HETATM   18  C20 UNL     1      26.795  -1.541  52.916  1.00  0.00     0.062 C 
HETATM   19  C19 UNL     1      26.692  -0.497  51.794  1.00  0.00     0.062 C 
BRANCH  17  20
HETATM   20  N1  UNL     1      28.463  -3.375  53.059  1.00  0.00    -0.402 N 
HETATM   21  H1  UNL     1      27.771  -3.883  53.689  1.00  0.00     0.156 HD
HETATM   22  H2  UNL     1      29.169  -3.951  52.510  1.00  0.00     0.156 HD
ENDBRANCH  17  20
ENDBRANCH  10  12
ENDBRANCH   1  10
BRANCH   6  23
HETATM   23  C11 UNL     1      27.198   6.113  48.389  1.00  0.00    -0.009 A 
HETATM   24  C12 UNL     1      27.182   7.419  47.894  1.00  0.00     0.016 A 
HETATM   25  C13 UNL     1      28.335   7.988  47.406  1.00  0.00     0.037 A 
HETATM   26  C14 UNL     1      29.527   7.297  47.385  1.00  0.00     0.065 A 
HETATM   27  C15 UNL     1      29.639   6.014  47.847  1.00  0.00     0.037 A 
HETATM   28  C16 UNL     1      28.449   5.470  48.338  1.00  0.00     0.016 A 
BRANCH  26  29
HETATM   29  O1  UNL     1      30.699   7.855  46.893  1.00  0.00    -0.361 OA
HETATM   30  H14 UNL     1      31.608   7.678  47.242  1.00  0.00     0.217 HD
ENDBRANCH  26  29
ENDBRANCH   6  23
TORSDOF 5
ENDMDL
MODEL 3
REMARK VINA RESULT:      -8.8      2.957      7.581
REMARK  5 active torsions:
REMARK  status: ('A' for Active; 'I' for Inactive)
REMARK    1  A    between atoms: N1_1  and  C1_2 
REMARK    2  A    between atoms: C6_7  and  N2_8 
REMARK    3  A    between atoms: N2_8  and  C7_9 
REMARK    4  A    between atoms: C10_14  and  C11_15 
REMARK    5  A    between atoms: C14_18  and  O1_19 
ROOT
HETATM    1  C7  UNL     1      25.104   4.029  50.344  1.00  0.00     0.126 C 
HETATM    2  C8  UNL     1      23.839   3.227  50.347  1.00  0.00     0.111 C 
HETATM    3  N3  UNL     1      23.591   2.542  51.431  1.00  0.00    -0.273 NA
HETATM    4  C9  UNL     1      24.605   2.676  52.475  1.00  0.00     0.237 A 
HETATM    5  N4  UNL     1      24.721   1.597  53.396  1.00  0.00    -0.363 N 
HETATM    6  C10 UNL     1      25.915   1.239  52.668  1.00  0.00     0.046 A 
HETATM    7  C17 UNL     1      25.862   2.216  51.779  1.00  0.00    -0.007 A 
HETATM    8  C18 UNL     1      26.247   3.054  50.608  1.00  0.00     0.071 C 
HETATM    9  H11 UNL     1      24.066   1.382  54.181  1.00  0.00     0.162 HD
ENDROOT
BRANCH   1  10
HETATM   10  N2  UNL     1      25.302   4.820  49.188  1.00  0.00    -0.384 N 
HETATM   11  H7  UNL     1      24.551   4.809  48.469  1.00  0.00     0.160 HD
BRANCH  10  12
HETATM   12  C6  UNL     1      26.419   5.632  48.888  1.00  0.00     0.005 C 
HETATM   13  C5  UNL     1      27.552   5.075  48.490  1.00  0.00     0.024 C 
HETATM   14  C4  UNL     1      28.919   5.419  48.080  1.00  0.00     0.002 C 
HETATM   15  C3  UNL     1      29.427   6.571  47.640  1.00  0.00     0.002 C 
HETATM   16  C2  UNL     1      28.895   7.918  47.382  1.00  0.00     0.024 C 
HETATM   17  C1  UNL     1      27.643   8.345  47.406  1.00  0.00     0.003 C 
HETATM   18  C20 UNL     1      26.289   7.784  47.661  1.00  0.00     0.062 C 
HETATM   19  C19 UNL     1      26.202   7.110  49.039  1.00  0.00     0.062 C 
BRANCH  17  20
HETATM   20  N1  UNL     1      27.689   9.751  47.081  1.00  0.00    -0.402 N 
HETATM   21  H1  UNL     1      28.687  10.093  47.226  1.00  0.00     0.156 HD
HETATM   22  H2  UNL     1      26.956  10.446  46.746  1.00  0.00     0.156 HD
ENDBRANCH  17  20
ENDBRANCH  10  12
ENDBRANCH   1  10
BRANCH   6  23
HETATM   23  C11 UNL     1      26.821   0.129  52.929  1.00  0.00    -0.009 A 
HETATM   24  C12 UNL     1      28.085   0.154  53.522  1.00  0.00     0.016 A 
HETATM   25  C13 UNL     1      28.804  -1.008  53.669  1.00  0.00     0.037 A 
HETATM   26  C14 UNL     1      28.310  -2.220  53.240  1.00  0.00     0.065 A 
HETATM   27  C15 UNL     1      27.083  -2.344  52.648  1.00  0.00     0.037 A 
HETATM   28  C16 UNL     1      26.380  -1.144  52.517  1.00  0.00     0.016 A 
BRANCH  26  29
HETATM   29  O1  UNL     1      29.024  -3.404  53.378  1.00  0.00    -0.361 OA
HETATM   30  H14 UNL     1      29.971  -3.534  53.120  1.00  0.00     0.217 HD
ENDBRANCH  26  29
ENDBRANCH   6  23
TORSDOF 5
ENDMDL
MODEL 4
REMARK VINA RESULT:      -8.6      5.275      7.169
REMARK  5 active torsions:
REMARK  status: ('A' for Active; 'I' for Inactive)
REMARK    1  A    between atoms: N1_1  and  C1_2 
REMARK    2  A    between atoms: C6_7  and  N2_8 
REMARK    3  A    between atoms: N2_8  and  C7_9 
REMARK    4  A    between atoms: C10_14  and  C11_15 
REMARK    5  A    between atoms: C14_18  and  O1_19 
ROOT
HETATM    1  C7  UNL     1      23.955  -0.118  53.245  1.00  0.00     0.126 C 
HETATM    2  C8  UNL     1      24.325   0.732  52.069  1.00  0.00     0.111 C 
HETATM    3  N3  UNL     1      23.492   1.690  51.763  1.00  0.00    -0.273 NA
HETATM    4  C9  UNL     1      22.320   1.772  52.633  1.00  0.00     0.237 A 
HETATM    5  N4  UNL     1      21.150   2.360  52.076  1.00  0.00    -0.363 N 
HETATM    6  C10 UNL     1      20.642   1.012  51.982  1.00  0.00     0.046 A 
HETATM    7  C17 UNL     1      21.702   0.404  52.489  1.00  0.00    -0.007 A 
HETATM    8  C18 UNL     1      22.580  -0.709  52.948  1.00  0.00     0.071 C 
HETATM    9  H11 UNL     1      20.990   3.378  51.908  1.00  0.00     0.162 HD
ENDROOT
BRANCH   1  10
HETATM   10  N2  UNL     1      24.917  -1.095  53.597  1.00  0.00    -0.384 N 
HETATM   11  H7  UNL     1      24.578  -2.066  53.743  1.00  0.00     0.160 HD
BRANCH  10  12
HETATM   12  C6  UNL     1      26.304  -0.900  53.781  1.00  0.00     0.005 C 
HETATM   13  C5  UNL     1      27.170  -1.679  53.151  1.00  0.00     0.024 C 
HETATM   14  C4  UNL     1      28.612  -1.901  52.993  1.00  0.00     0.002 C 
HETATM   15  C3  UNL     1      29.644  -1.092  53.237  1.00  0.00     0.002 C 
HETATM   16  C2  UNL     1      29.801   0.283  53.737  1.00  0.00     0.024 C 
HETATM   17  C1  UNL     1      28.877   1.197  53.982  1.00  0.00     0.003 C 
HETATM   18  C20 UNL     1      27.397   1.324  53.893  1.00  0.00     0.062 C 
HETATM   19  C19 UNL     1      26.682   0.228  54.698  1.00  0.00     0.062 C 
BRANCH  17  20
HETATM   20  N1  UNL     1      29.580   2.365  54.458  1.00  0.00    -0.402 N 
HETATM   21  H1  UNL     1      28.861   3.123  54.665  1.00  0.00     0.156 HD
HETATM   22  H2  UNL     1      30.609   2.579  54.625  1.00  0.00     0.156 HD
ENDBRANCH  17  20
ENDBRANCH  10  12
ENDBRANCH   1  10
BRANCH   6  23
HETATM   23  C11 UNL     1      19.347   0.579  51.477  1.00  0.00    -0.009 A 
HETATM   24  C12 UNL     1      18.749   0.864  50.248  1.00  0.00     0.016 A 
HETATM   25  C13 UNL     1      17.499   0.372  49.956  1.00  0.00     0.037 A 
HETATM   26  C14 UNL     1      16.801  -0.405  50.856  1.00  0.00     0.065 A 
HETATM   27  C15 UNL     1      17.305  -0.735  52.084  1.00  0.00     0.037 A 
HETATM   28  C16 UNL     1      18.578  -0.221  52.345  1.00  0.00     0.016 A 
BRANCH  26  29
HETATM   29  O1  UNL     1      15.536  -0.906  50.578  1.00  0.00    -0.361 OA
HETATM   30  H14 UNL     1      14.978  -0.653  49.801  1.00  0.00     0.217 HD
ENDBRANCH  26  29
ENDBRANCH   6  23
TORSDOF 5
ENDMDL
MODEL 5
REMARK VINA RESULT:      -8.5      3.046      7.204
REMARK  5 active torsions:
REMARK  status: ('A' for Active; 'I' for Inactive)
REMARK    1  A    between atoms: N1_1  and  C1_2 
REMARK    2  A    between atoms: C6_7  and  N2_8 
REMARK    3  A    between atoms: N2_8  and  C7_9 
REMARK    4  A    between atoms: C10_14  and  C11_15 
REMARK    5  A    between atoms: C14_18  and  O1_19 
ROOT
HETATM    1  C7  UNL     1      22.556   2.644  51.117  1.00  0.00     0.126 C 
HETATM    2  C8  UNL     1      22.100   1.264  50.752  1.00  0.00     0.111 C 
HETATM    3  N3  UNL     1      22.236   0.348  51.673  1.00  0.00    -0.273 NA
HETATM    4  C9  UNL     1      22.819   0.830  52.924  1.00  0.00     0.237 A 
HETATM    5  N4  UNL     1      23.501  -0.130  53.723  1.00  0.00    -0.363 N 
HETATM    6  C10 UNL     1      24.716   0.483  53.242  1.00  0.00     0.046 A 
HETATM    7  C17 UNL     1      24.144   1.397  52.476  1.00  0.00    -0.007 A 
HETATM    8  C18 UNL     1      24.024   2.532  51.518  1.00  0.00     0.071 C 
HETATM    9  H11 UNL     1      23.057  -0.867  54.315  1.00  0.00     0.162 HD
ENDROOT
BRANCH   1  10
HETATM   10  N2  UNL     1      22.323   3.627  50.127  1.00  0.00    -0.384 N 
HETATM   11  H7  UNL     1      21.590   3.424  49.418  1.00  0.00     0.160 HD
BRANCH  10  12
HETATM   12  C6  UNL     1      22.981   4.869  49.983  1.00  0.00     0.005 C 
HETATM   13  C5  UNL     1      22.582   5.914  50.691  1.00  0.00     0.024 C 
HETATM   14  C4  UNL     1      22.885   7.333  50.916  1.00  0.00     0.002 C 
HETATM   15  C3  UNL     1      23.991   8.032  50.661  1.00  0.00     0.002 C 
HETATM   16  C2  UNL     1      25.311   7.730  50.085  1.00  0.00     0.024 C 
HETATM   17  C1  UNL     1      25.834   6.561  49.751  1.00  0.00     0.003 C 
HETATM   18  C20 UNL     1      25.440   5.127  49.777  1.00  0.00     0.062 C 
HETATM   19  C19 UNL     1      24.129   4.882  49.014  1.00  0.00     0.062 C 
BRANCH  17  20
HETATM   20  N1  UNL     1      27.151   6.841  49.232  1.00  0.00    -0.402 N 
HETATM   21  H1  UNL     1      27.798   7.035  50.055  1.00  0.00     0.156 HD
HETATM   22  H2  UNL     1      27.553   6.882  48.247  1.00  0.00     0.156 HD
ENDBRANCH  17  20
ENDBRANCH  10  12
ENDBRANCH   1  10
BRANCH   6  23
HETATM   23  C11 UNL     1      26.088   0.126  53.574  1.00  0.00    -0.009 A 
HETATM   24  C12 UNL     1      26.899   0.629  54.594  1.00  0.00     0.016 A 
HETATM   25  C13 UNL     1      28.188   0.175  54.740  1.00  0.00     0.037 A 
HETATM   26  C14 UNL     1      28.718  -0.776  53.895  1.00  0.00     0.065 A 
HETATM   27  C15 UNL     1      28.001  -1.325  52.868  1.00  0.00     0.037 A 
HETATM   28  C16 UNL     1      26.695  -0.842  52.751  1.00  0.00     0.016 A 
BRANCH  26  29
HETATM   29  O1  UNL     1      30.019  -1.243  54.027  1.00  0.00    -0.361 OA
HETATM   30  H14 UNL     1      30.801  -0.910  53.519  1.00  0.00     0.217 HD
ENDBRANCH  26  29
ENDBRANCH   6  23
TORSDOF 5
ENDMDL
MODEL 6
REMARK VINA RESULT:      -8.5      3.117      7.443
REMARK  5 active torsions:
REMARK  status: ('A' for Active; 'I' for Inactive)
REMARK    1  A    between atoms: N1_1  and  C1_2 
REMARK    2  A    between atoms: C6_7  and  N2_8 
REMARK    3  A    between atoms: N2_8  and  C7_9 
REMARK    4  A    between atoms: C10_14  and  C11_15 
REMARK    5  A    between atoms: C14_18  and  O1_19 
ROOT
HETATM    1  C7  UNL     1      25.449   4.492  49.828  1.00  0.00     0.126 C 
HETATM    2  C8  UNL     1      24.256   3.612  49.610  1.00  0.00     0.111 C 
HETATM    3  N3  UNL     1      23.879   2.889  50.629  1.00  0.00    -0.273 NA
HETATM    4  C9  UNL     1      24.696   3.060  51.829  1.00  0.00     0.237 A 
HETATM    5  N4  UNL     1      24.728   1.970  52.742  1.00  0.00    -0.363 N 
HETATM    6  C10 UNL     1      26.047   1.703  52.218  1.00  0.00     0.046 A 
HETATM    7  C17 UNL     1      26.077   2.696  51.345  1.00  0.00    -0.007 A 
HETATM    8  C18 UNL     1      26.595   3.583  50.265  1.00  0.00     0.071 C 
HETATM    9  H11 UNL     1      23.968   1.695  53.405  1.00  0.00     0.162 HD
ENDROOT
BRANCH   1  10
HETATM   10  N2  UNL     1      25.783   5.320  48.730  1.00  0.00    -0.384 N 
HETATM   11  H7  UNL     1      25.365   5.083  47.809  1.00  0.00     0.160 HD
BRANCH  10  12
HETATM   12  C6  UNL     1      26.636   6.446  48.738  1.00  0.00     0.005 C 
HETATM   13  C5  UNL     1      26.445   7.414  49.622  1.00  0.00     0.024 C 
HETATM   14  C4  UNL     1      26.991   8.710  50.042  1.00  0.00     0.002 C 
HETATM   15  C3  UNL     1      28.190   9.254  49.830  1.00  0.00     0.002 C 
HETATM   16  C2  UNL     1      29.418   8.841  49.133  1.00  0.00     0.024 C 
HETATM   17  C1  UNL     1      29.724   7.673  48.592  1.00  0.00     0.003 C 
HETATM   18  C20 UNL     1      29.094   6.335  48.423  1.00  0.00     0.062 C 
HETATM   19  C19 UNL     1      27.735   6.432  47.714  1.00  0.00     0.062 C 
BRANCH  17  20
HETATM   20  N1  UNL     1      31.050   7.817  48.042  1.00  0.00    -0.402 N 
HETATM   21  H1  UNL     1      31.754   7.576  48.803  1.00  0.00     0.156 HD
HETATM   22  H2  UNL     1      31.414   8.099  47.082  1.00  0.00     0.156 HD
ENDBRANCH  17  20
ENDBRANCH  10  12
ENDBRANCH   1  10
BRANCH   6  23
HETATM   23  C11 UNL     1      26.967   0.645  52.612  1.00  0.00    -0.009 A 
HETATM   24  C12 UNL     1      28.246   0.761  53.162  1.00  0.00     0.016 A 
HETATM   25  C13 UNL     1      28.977  -0.366  53.455  1.00  0.00     0.037 A 
HETATM   26  C14 UNL     1      28.482  -1.629  53.217  1.00  0.00     0.065 A 
HETATM   27  C15 UNL     1      27.242  -1.841  52.680  1.00  0.00     0.037 A 
HETATM   28  C16 UNL     1      26.526  -0.675  52.398  1.00  0.00     0.016 A 
BRANCH  26  29
HETATM   29  O1  UNL     1      29.208  -2.777  53.504  1.00  0.00    -0.361 OA
HETATM   30  H14 UNL     1      29.086  -3.656  53.066  1.00  0.00     0.217 HD
ENDBRANCH  26  29
ENDBRANCH   6  23
TORSDOF 5
ENDMDL
MODEL 7
REMARK VINA RESULT:      -8.3      3.725      7.032
REMARK  5 active torsions:
REMARK  status: ('A' for Active; 'I' for Inactive)
REMARK    1  A    between atoms: N1_1  and  C1_2 
REMARK    2  A    between atoms: C6_7  and  N2_8 
REMARK    3  A    between atoms: N2_8  and  C7_9 
REMARK    4  A    between atoms: C10_14  and  C11_15 
REMARK    5  A    between atoms: C14_18  and  O1_19 
ROOT
HETATM    1  C7  UNL     1      22.609   4.089  50.814  1.00  0.00     0.126 C 
HETATM    2  C8  UNL     1      23.374   5.313  51.212  1.00  0.00     0.111 C 
HETATM    3  N3  UNL     1      24.650   5.314  50.933  1.00  0.00    -0.273 NA
HETATM    4  C9  UNL     1      25.124   4.101  50.268  1.00  0.00     0.237 A 
HETATM    5  N4  UNL     1      26.499   3.777  50.435  1.00  0.00    -0.363 N 
HETATM    6  C10 UNL     1      26.044   2.763  51.355  1.00  0.00     0.046 A 
HETATM    7  C17 UNL     1      24.750   3.018  51.249  1.00  0.00    -0.007 A 
HETATM    8  C18 UNL     1      23.285   2.903  51.496  1.00  0.00     0.071 C 
HETATM    9  H11 UNL     1      27.306   4.246  49.965  1.00  0.00     0.162 HD
ENDROOT
BRANCH   1  10
HETATM   10  N2  UNL     1      21.217   4.153  51.059  1.00  0.00    -0.384 N 
HETATM   11  H7  UNL     1      20.790   5.098  51.136  1.00  0.00     0.160 HD
BRANCH  10  12
HETATM   12  C6  UNL     1      20.326   3.068  51.217  1.00  0.00     0.005 C 
HETATM   13  C5  UNL     1      19.788   2.494  50.153  1.00  0.00     0.024 C 
HETATM   14  C4  UNL     1      18.869   1.415  49.771  1.00  0.00     0.002 C 
HETATM   15  C3  UNL     1      18.462   0.343  50.452  1.00  0.00     0.002 C 
HETATM   16  C2  UNL     1      18.724  -0.208  51.791  1.00  0.00     0.024 C 
HETATM   17  C1  UNL     1      19.599   0.184  52.703  1.00  0.00     0.003 C 
HETATM   18  C20 UNL     1      20.646   1.230  52.852  1.00  0.00     0.062 C 
HETATM   19  C19 UNL     1      20.076   2.640  52.635  1.00  0.00     0.062 C 
BRANCH  17  20
HETATM   20  N1  UNL     1      19.432  -0.703  53.830  1.00  0.00    -0.402 N 
HETATM   21  H1  UNL     1      19.621  -0.148  54.719  1.00  0.00     0.156 HD
HETATM   22  H2  UNL     1      19.171  -1.731  53.917  1.00  0.00     0.156 HD
ENDBRANCH  17  20
ENDBRANCH  10  12
ENDBRANCH   1  10
BRANCH   6  23
HETATM   23  C11 UNL     1      26.850   1.808  52.103  1.00  0.00    -0.009 A 
HETATM   24  C12 UNL     1      27.905   2.057  52.983  1.00  0.00     0.016 A 
HETATM   25  C13 UNL     1      28.563   1.012  53.587  1.00  0.00     0.037 A 
HETATM   26  C14 UNL     1      28.210  -0.298  53.346  1.00  0.00     0.065 A 
HETATM   27  C15 UNL     1      27.191  -0.639  52.500  1.00  0.00     0.037 A 
HETATM   28  C16 UNL     1      26.544   0.448  51.906  1.00  0.00     0.016 A 
BRANCH  26  29
HETATM   29  O1  UNL     1      28.866  -1.366  53.946  1.00  0.00    -0.361 OA
HETATM   30  H14 UNL     1      29.757  -1.708  53.686  1.00  0.00     0.217 HD
ENDBRANCH  26  29
ENDBRANCH   6  23
TORSDOF 5
ENDMDL
MODEL 8
REMARK VINA RESULT:      -8.3      2.970      4.069
REMARK  5 active torsions:
REMARK  status: ('A' for Active; 'I' for Inactive)
REMARK    1  A    between atoms: N1_1  and  C1_2 
REMARK    2  A    between atoms: C6_7  and  N2_8 
REMARK    3  A    between atoms: N2_8  and  C7_9 
REMARK    4  A    between atoms: C10_14  and  C11_15 
REMARK    5  A    between atoms: C14_18  and  O1_19 
ROOT
HETATM    1  C7  UNL     1      23.710   3.030  50.437  1.00  0.00     0.126 C 
HETATM    2  C8  UNL     1      23.756   4.027  51.554  1.00  0.00     0.111 C 
HETATM    3  N3  UNL     1      23.943   5.273  51.209  1.00  0.00    -0.273 NA
HETATM    4  C9  UNL     1      24.077   5.488  49.770  1.00  0.00     0.237 A 
HETATM    5  N4  UNL     1      24.812   6.636  49.361  1.00  0.00    -0.363 N 
HETATM    6  C10 UNL     1      25.877   5.715  49.043  1.00  0.00     0.046 A 
HETATM    7  C17 UNL     1      25.249   4.610  49.411  1.00  0.00    -0.007 A 
HETATM    8  C18 UNL     1      25.024   3.160  49.673  1.00  0.00     0.071 C 
HETATM    9  H11 UNL     1      24.479   7.626  49.390  1.00  0.00     0.162 HD
ENDROOT
BRANCH   1  10
HETATM   10  N2  UNL     1      23.427   1.703  50.839  1.00  0.00    -0.384 N 
HETATM   11  H7  UNL     1      23.656   0.943  50.167  1.00  0.00     0.160 HD
BRANCH  10  12
HETATM   12  C6  UNL     1      22.858   1.283  52.062  1.00  0.00     0.005 C 
HETATM   13  C5  UNL     1      21.542   1.232  52.195  1.00  0.00     0.024 C 
HETATM   14  C4  UNL     1      20.498   0.896  53.171  1.00  0.00     0.002 C 
HETATM   15  C3  UNL     1      20.556   0.157  54.280  1.00  0.00     0.002 C 
HETATM   16  C2  UNL     1      21.606  -0.600  54.980  1.00  0.00     0.024 C 
HETATM   17  C1  UNL     1      22.843  -0.869  54.596  1.00  0.00     0.003 C 
HETATM   18  C20 UNL     1      23.720  -0.603  53.424  1.00  0.00     0.062 C 
HETATM   19  C19 UNL     1      23.840   0.901  53.132  1.00  0.00     0.062 C 
BRANCH  17  20
HETATM   20  N1  UNL     1      23.437  -1.641  55.662  1.00  0.00    -0.402 N 
HETATM   21  H1  UNL     1      24.150  -1.026  56.159  1.00  0.00     0.156 HD
HETATM   22  H2  UNL     1      23.295  -2.637  56.008  1.00  0.00     0.156 HD
ENDBRANCH  17  20
ENDBRANCH  10  12
ENDBRANCH   1  10
BRANCH   6  23
HETATM   23  C11 UNL     1      27.187   6.022  48.486  1.00  0.00    -0.009 A 
HETATM   24  C12 UNL     1      28.352   5.253  48.520  1.00  0.00     0.016 A 
HETATM   25  C13 UNL     1      29.510   5.725  47.948  1.00  0.00     0.037 A 
HETATM   26  C14 UNL     1      29.559   6.956  47.332  1.00  0.00     0.065 A 
HETATM   27  C15 UNL     1      28.470   7.780  47.251  1.00  0.00     0.037 A 
HETATM   28  C16 UNL     1      27.312   7.267  47.841  1.00  0.00     0.016 A 
BRANCH  26  29
HETATM   29  O1  UNL     1      30.721   7.450  46.752  1.00  0.00    -0.361 OA
HETATM   30  H14 UNL     1      30.875   8.392  46.493  1.00  0.00     0.217 HD
ENDBRANCH  26  29
ENDBRANCH   6  23
TORSDOF 5
ENDMDL
MODEL 9
REMARK VINA RESULT:      -8.3      2.084      2.924
REMARK  5 active torsions:
REMARK  status: ('A' for Active; 'I' for Inactive)
REMARK    1  A    between atoms: N1_1  and  C1_2 
REMARK    2  A    between atoms: C6_7  and  N2_8 
REMARK    3  A    between atoms: N2_8  and  C7_9 
REMARK    4  A    between atoms: C10_14  and  C11_15 
REMARK    5  A    between atoms: C14_18  and  O1_19 
ROOT
HETATM    1  C7  UNL     1      24.721   2.267  51.324  1.00  0.00     0.126 C 
HETATM    2  C8  UNL     1      23.240   2.482  51.387  1.00  0.00     0.111 C 
HETATM    3  N3  UNL     1      22.684   2.987  50.319  1.00  0.00    -0.273 NA
HETATM    4  C9  UNL     1      23.613   3.260  49.225  1.00  0.00     0.237 A 
HETATM    5  N4  UNL     1      23.235   4.275  48.302  1.00  0.00    -0.363 N 
HETATM    6  C10 UNL     1      24.210   5.103  48.970  1.00  0.00     0.046 A 
HETATM    7  C17 UNL     1      24.603   4.205  49.858  1.00  0.00    -0.007 A 
HETATM    8  C18 UNL     1      25.352   3.619  51.006  1.00  0.00     0.071 C 
HETATM    9  H11 UNL     1      22.513   4.191  47.552  1.00  0.00     0.162 HD
ENDROOT
BRANCH   1  10
HETATM   10  N2  UNL     1      25.279   1.647  52.467  1.00  0.00    -0.384 N 
HETATM   11  H7  UNL     1      24.719   1.669  53.343  1.00  0.00     0.160 HD
BRANCH  10  12
HETATM   12  C6  UNL     1      26.529   0.995  52.561  1.00  0.00     0.005 C 
HETATM   13  C5  UNL     1      27.540   1.590  53.175  1.00  0.00     0.024 C 
HETATM   14  C4  UNL     1      28.948   1.384  53.533  1.00  0.00     0.002 C 
HETATM   15  C3  UNL     1      29.664   0.262  53.622  1.00  0.00     0.002 C 
HETATM   16  C2  UNL     1      29.394  -1.170  53.418  1.00  0.00     0.024 C 
HETATM   17  C1  UNL     1      28.244  -1.783  53.192  1.00  0.00     0.003 C 
HETATM   18  C20 UNL     1      26.807  -1.421  53.050  1.00  0.00     0.062 C 
HETATM   19  C19 UNL     1      26.591  -0.374  51.947  1.00  0.00     0.062 C 
BRANCH  17  20
HETATM   20  N1  UNL     1      28.552  -3.188  53.067  1.00  0.00    -0.402 N 
HETATM   21  H1  UNL     1      27.957  -3.590  52.281  1.00  0.00     0.156 HD
HETATM   22  H2  UNL     1      29.220  -3.836  53.582  1.00  0.00     0.156 HD
ENDBRANCH  17  20
ENDBRANCH  10  12
ENDBRANCH   1  10
BRANCH   6  23
HETATM   23  C11 UNL     1      24.570   6.482  48.667  1.00  0.00    -0.009 A 
HETATM   24  C12 UNL     1      25.712   6.965  48.025  1.00  0.00     0.016 A 
HETATM   25  C13 UNL     1      25.884   8.317  47.843  1.00  0.00     0.037 A 
HETATM   26  C14 UNL     1      24.949   9.228  48.284  1.00  0.00     0.065 A 
HETATM   27  C15 UNL     1      23.801   8.849  48.924  1.00  0.00     0.037 A 
HETATM   28  C16 UNL     1      23.659   7.469  49.089  1.00  0.00     0.016 A 
BRANCH  26  29
HETATM   29  O1  UNL     1      25.108  10.597  48.112  1.00  0.00    -0.361 OA
HETATM   30  H14 UNL     1      25.461  11.222  48.793  1.00  0.00     0.217 HD
ENDBRANCH  26  29
ENDBRANCH   6  23
TORSDOF 5
ENDMDL
