MODEL 1
REMARK VINA RESULT:      -7.2      0.000      0.000
REMARK  6 active torsions:
REMARK  status: ('A' for Active; 'I' for Inactive)
REMARK    1  A    between atoms: C3_3  and  C4_4 
REMARK    2  A    between atoms: C4_4  and  C5_5 
REMARK    3  A    between atoms: C10_12  and  O1_13 
REMARK    4  A    between atoms: O1_13  and  C11_14 
REMARK    5  A    between atoms: C11_14  and  C13_16 
REMARK    6  A    between atoms: C14_17  and  S1_18 
ROOT
HETATM    1  C1  UNL     1      29.595  -0.500  53.869  1.00  0.00     0.017 C 
HETATM    2  C2  UNL     1      28.557  -0.873  53.390  1.00  0.00    -0.089 C 
HETATM    3  C3  UNL     1      27.309  -1.296  52.828  1.00  0.00     0.063 C 
ENDROOT
BRANCH   3   4
HETATM    4  C4  UNL     1      26.095  -0.941  53.141  1.00  0.00     0.011 C 
BRANCH   4   5
HETATM    5  C5  UNL     1      24.752  -0.441  53.329  1.00  0.00     0.028 C 
HETATM    6  C6  UNL     1      23.544  -0.430  53.791  1.00  0.00     0.041 C 
HETATM    7  N1  UNL     1      22.988  -1.395  54.655  1.00  0.00    -0.352 N 
HETATM    8  C18 UNL     1      22.721   0.713  53.347  1.00  0.00     0.213 C 
HETATM    9  C7  UNL     1      21.565  -1.525  54.578  1.00  0.00     0.207 C 
HETATM   10  H5  UNL     1      23.643  -1.925  55.268  1.00  0.00     0.166 HD
HETATM   11  N2  UNL     1      20.860  -0.805  53.773  1.00  0.00    -0.246 NA
HETATM   12  C8  UNL     1      21.428   0.169  52.903  1.00  0.00     0.065 C 
HETATM   13  C9  UNL     1      20.804   0.514  51.805  1.00  0.00     0.039 C 
HETATM   14  C10 UNL     1      21.393   1.525  50.899  1.00  0.00     0.198 C 
HETATM   15  C15 UNL     1      22.855   1.763  51.163  1.00  0.00     0.278 C 
HETATM   16  O2  UNL     1      23.126   3.061  50.714  1.00  0.00    -0.360 OA
HETATM   17  N3  UNL     1      23.322   1.613  52.461  1.00  0.00    -0.245 N 
HETATM   18  C16 UNL     1      22.869   3.962  51.751  1.00  0.00     0.199 C 
HETATM   19  C17 UNL     1      23.988   3.791  52.760  1.00  0.00     0.227 C 
HETATM   20  O3  UNL     1      24.217   2.449  52.928  1.00  0.00    -0.277 OA
BRANCH  14  21
HETATM   21  O1  UNL     1      21.281   1.074  49.565  1.00  0.00    -0.369 OA
BRANCH  21  22
HETATM   22  C11 UNL     1      20.376   1.833  48.843  1.00  0.00     0.141 C 
HETATM   23  C12 UNL     1      19.792   2.929  49.739  1.00  0.00     0.044 C 
BRANCH  22  24
HETATM   24  C13 UNL     1      21.167   2.531  47.786  1.00  0.00     0.011 C 
HETATM   25  C14 UNL     1      20.754   3.348  46.801  1.00  0.00     0.040 C 
BRANCH  25  26
HETATM   26  S1  UNL     1      21.790   4.150  45.562  1.00  0.00    -0.155 SA
HETATM   27  H15 UNL     1      20.990   4.863  44.646  1.00  0.00     0.106 HD
ENDBRANCH  25  26
ENDBRANCH  22  24
ENDBRANCH  21  22
ENDBRANCH  14  21
ENDBRANCH   4   5
ENDBRANCH   3   4
TORSDOF 6
ENDMDL
MODEL 2
REMARK VINA RESULT:      -7.0     10.540     12.640
REMARK  6 active torsions:
REMARK  status: ('A' for Active; 'I' for Inactive)
REMARK    1  A    between atoms: C3_3  and  C4_4 
REMARK    2  A    between atoms: C4_4  and  C5_5 
REMARK    3  A    between atoms: C10_12  and  O1_13 
REMARK    4  A    between atoms: O1_13  and  C11_14 
REMARK    5  A    between atoms: C11_14  and  C13_16 
REMARK    6  A    between atoms: C14_17  and  S1_18 
ROOT
HETATM    1  C1  UNL     1      26.423   3.061  50.015  1.00  0.00     0.017 C 
HETATM    2  C2  UNL     1      26.862   3.951  49.335  1.00  0.00    -0.089 C 
HETATM    3  C3  UNL     1      27.408   5.000  48.528  1.00  0.00     0.063 C 
ENDROOT
BRANCH   3   4
HETATM    4  C4  UNL     1      28.626   5.459  48.475  1.00  0.00     0.011 C 
BRANCH   4   5
HETATM    5  C5  UNL     1      30.030   5.801  48.491  1.00  0.00     0.028 C 
HETATM    6  C6  UNL     1      31.081   6.489  48.801  1.00  0.00     0.041 C 
HETATM    7  N1  UNL     1      31.093   7.650  49.601  1.00  0.00    -0.352 N 
HETATM    8  C18 UNL     1      32.348   5.972  48.246  1.00  0.00     0.213 C 
HETATM    9  C7  UNL     1      32.182   8.543  49.351  1.00  0.00     0.207 C 
HETATM   10  H5  UNL     1      30.325   7.762  50.296  1.00  0.00     0.166 HD
HETATM   11  N2  UNL     1      33.077   8.290  48.457  1.00  0.00    -0.246 NA
HETATM   12  C8  UNL     1      33.059   7.115  47.652  1.00  0.00     0.065 C 
HETATM   13  C9  UNL     1      33.646   7.110  46.482  1.00  0.00     0.039 C 
HETATM   14  C10 UNL     1      33.627   5.891  45.644  1.00  0.00     0.198 C 
HETATM   15  C15 UNL     1      32.586   4.897  46.082  1.00  0.00     0.278 C 
HETATM   16  O2  UNL     1      33.039   3.643  45.655  1.00  0.00    -0.360 OA
HETATM   17  N3  UNL     1      32.260   4.839  47.430  1.00  0.00    -0.245 N 
HETATM   18  C16 UNL     1      33.866   3.100  46.642  1.00  0.00     0.199 C 
HETATM   19  C17 UNL     1      32.959   2.680  47.782  1.00  0.00     0.227 C 
HETATM   20  O3  UNL     1      32.040   3.676  47.993  1.00  0.00    -0.277 OA
BRANCH  14  21
HETATM   21  O1  UNL     1      33.323   6.248  44.311  1.00  0.00    -0.369 OA
BRANCH  21  22
HETATM   22  C11 UNL     1      34.330   5.872  43.439  1.00  0.00     0.141 C 
HETATM   23  C12 UNL     1      33.791   4.841  42.443  1.00  0.00     0.044 C 
BRANCH  22  24
HETATM   24  C13 UNL     1      34.669   7.089  42.643  1.00  0.00     0.011 C 
HETATM   25  C14 UNL     1      34.944   8.338  43.056  1.00  0.00     0.040 C 
BRANCH  25  26
HETATM   26  S1  UNL     1      35.346   9.754  42.013  1.00  0.00    -0.155 SA
HETATM   27  H15 UNL     1      36.374   9.416  41.109  1.00  0.00     0.106 HD
ENDBRANCH  25  26
ENDBRANCH  22  24
ENDBRANCH  21  22
ENDBRANCH  14  21
ENDBRANCH   4   5
ENDBRANCH   3   4
TORSDOF 6
ENDMDL
MODEL 3
REMARK VINA RESULT:      -6.7     10.414     12.461
REMARK  6 active torsions:
REMARK  status: ('A' for Active; 'I' for Inactive)
REMARK    1  A    between atoms: C3_3  and  C4_4 
REMARK    2  A    between atoms: C4_4  and  C5_5 
REMARK    3  A    between atoms: C10_12  and  O1_13 
REMARK    4  A    between atoms: O1_13  and  C11_14 
REMARK    5  A    between atoms: C11_14  and  C13_16 
REMARK    6  A    between atoms: C14_17  and  S1_18 
ROOT
HETATM    1  C1  UNL     1      26.289   3.114  50.056  1.00  0.00     0.017 C 
HETATM    2  C2  UNL     1      26.755   3.987  49.370  1.00  0.00    -0.089 C 
HETATM    3  C3  UNL     1      27.333   5.015  48.558  1.00  0.00     0.063 C 
ENDROOT
BRANCH   3   4
HETATM    4  C4  UNL     1      28.553   5.469  48.538  1.00  0.00     0.011 C 
BRANCH   4   5
HETATM    5  C5  UNL     1      29.902   5.943  48.326  1.00  0.00     0.028 C 
HETATM    6  C6  UNL     1      30.890   6.776  48.386  1.00  0.00     0.041 C 
HETATM    7  N1  UNL     1      30.846   8.060  48.967  1.00  0.00    -0.352 N 
HETATM    8  C18 UNL     1      32.147   6.292  47.779  1.00  0.00     0.213 C 
HETATM    9  C7  UNL     1      31.792   8.994  48.439  1.00  0.00     0.207 C 
HETATM   10  H5  UNL     1      30.145   8.222  49.720  1.00  0.00     0.166 HD
HETATM   11  N2  UNL     1      32.616   8.670  47.500  1.00  0.00    -0.246 NA
HETATM   12  C8  UNL     1      32.655   7.371  46.917  1.00  0.00     0.065 C 
HETATM   13  C9  UNL     1      33.118   7.209  45.703  1.00  0.00     0.039 C 
HETATM   14  C10 UNL     1      33.159   5.860  45.095  1.00  0.00     0.198 C 
HETATM   15  C15 UNL     1      32.291   4.867  45.819  1.00  0.00     0.278 C 
HETATM   16  O2  UNL     1      32.843   3.607  45.562  1.00  0.00    -0.360 OA
HETATM   17  N3  UNL     1      32.111   5.026  47.186  1.00  0.00    -0.245 N 
HETATM   18  C16 UNL     1      33.823   3.337  46.521  1.00  0.00     0.199 C 
HETATM   19  C17 UNL     1      33.092   3.048  47.817  1.00  0.00     0.227 C 
HETATM   20  O3  UNL     1      32.088   3.971  47.963  1.00  0.00    -0.277 OA
BRANCH  14  21
HETATM   21  O1  UNL     1      32.682   5.936  43.767  1.00  0.00    -0.369 OA
BRANCH  21  22
HETATM   22  C11 UNL     1      33.692   5.713  42.848  1.00  0.00     0.141 C 
HETATM   23  C12 UNL     1      34.976   5.313  43.580  1.00  0.00     0.044 C 
BRANCH  22  24
HETATM   24  C13 UNL     1      33.275   4.522  42.050  1.00  0.00     0.011 C 
HETATM   25  C14 UNL     1      33.850   3.965  40.970  1.00  0.00     0.040 C 
BRANCH  25  26
HETATM   26  S1  UNL     1      33.269   2.517  40.066  1.00  0.00    -0.155 SA
HETATM   27  H15 UNL     1      32.002   2.121  40.543  1.00  0.00     0.106 HD
ENDBRANCH  25  26
ENDBRANCH  22  24
ENDBRANCH  21  22
ENDBRANCH  14  21
ENDBRANCH   4   5
ENDBRANCH   3   4
TORSDOF 6
ENDMDL
MODEL 4
REMARK VINA RESULT:      -6.7      2.566      5.498
REMARK  6 active torsions:
REMARK  status: ('A' for Active; 'I' for Inactive)
REMARK    1  A    between atoms: C3_3  and  C4_4 
REMARK    2  A    between atoms: C4_4  and  C5_5 
REMARK    3  A    between atoms: C10_12  and  O1_13 
REMARK    4  A    between atoms: O1_13  and  C11_14 
REMARK    5  A    between atoms: C11_14  and  C13_16 
REMARK    6  A    between atoms: C14_17  and  S1_18 
ROOT
HETATM    1  C1  UNL     1      17.462  -2.797  53.524  1.00  0.00     0.017 C 
HETATM    2  C2  UNL     1      17.798  -1.734  53.072  1.00  0.00    -0.089 C 
HETATM    3  C3  UNL     1      18.222  -0.480  52.526  1.00  0.00     0.063 C 
ENDROOT
BRANCH   3   4
HETATM    4  C4  UNL     1      19.425  -0.043  52.285  1.00  0.00     0.011 C 
BRANCH   4   5
HETATM    5  C5  UNL     1      20.819   0.266  52.063  1.00  0.00     0.028 C 
HETATM    6  C6  UNL     1      22.096   0.198  52.261  1.00  0.00     0.041 C 
HETATM    7  N1  UNL     1      22.734  -0.601  53.231  1.00  0.00    -0.352 N 
HETATM    8  C18 UNL     1      22.908   1.048  51.367  1.00  0.00     0.213 C 
HETATM    9  C7  UNL     1      24.009  -0.120  53.666  1.00  0.00     0.207 C 
HETATM   10  H5  UNL     1      22.236  -1.460  53.548  1.00  0.00     0.166 HD
HETATM   11  N2  UNL     1      24.523   0.965  53.194  1.00  0.00    -0.246 NA
HETATM   12  C8  UNL     1      23.873   1.768  52.213  1.00  0.00     0.065 C 
HETATM   13  C9  UNL     1      24.152   3.044  52.118  1.00  0.00     0.039 C 
HETATM   14  C10 UNL     1      23.477   3.880  51.100  1.00  0.00     0.198 C 
HETATM   15  C15 UNL     1      22.245   3.229  50.534  1.00  0.00     0.278 C 
HETATM   16  O2  UNL     1      22.064   3.778  49.258  1.00  0.00    -0.360 OA
HETATM   17  N3  UNL     1      22.211   1.844  50.453  1.00  0.00    -0.245 N 
HETATM   18  C16 UNL     1      22.794   3.027  48.334  1.00  0.00     0.199 C 
HETATM   19  C17 UNL     1      22.055   1.713  48.165  1.00  0.00     0.227 C 
HETATM   20  O3  UNL     1      21.672   1.270  49.405  1.00  0.00    -0.277 OA
BRANCH  14  21
HETATM   21  O1  UNL     1      23.069   5.095  51.694  1.00  0.00    -0.369 OA
BRANCH  21  22
HETATM   22  C11 UNL     1      23.921   6.135  51.368  1.00  0.00     0.141 C 
HETATM   23  C12 UNL     1      24.825   5.717  50.205  1.00  0.00     0.044 C 
BRANCH  22  24
HETATM   24  C13 UNL     1      23.056   7.238  50.852  1.00  0.00     0.011 C 
HETATM   25  C14 UNL     1      22.005   7.187  50.016  1.00  0.00     0.040 C 
BRANCH  25  26
HETATM   26  S1  UNL     1      21.014   8.582  49.446  1.00  0.00    -0.155 SA
HETATM   27  H15 UNL     1      21.631   9.197  48.337  1.00  0.00     0.106 HD
ENDBRANCH  25  26
ENDBRANCH  22  24
ENDBRANCH  21  22
ENDBRANCH  14  21
ENDBRANCH   4   5
ENDBRANCH   3   4
TORSDOF 6
ENDMDL
MODEL 5
REMARK VINA RESULT:      -6.6      3.107      4.587
REMARK  6 active torsions:
REMARK  status: ('A' for Active; 'I' for Inactive)
REMARK    1  A    between atoms: C3_3  and  C4_4 
REMARK    2  A    between atoms: C4_4  and  C5_5 
REMARK    3  A    between atoms: C10_12  and  O1_13 
REMARK    4  A    between atoms: O1_13  and  C11_14 
REMARK    5  A    between atoms: C11_14  and  C13_16 
REMARK    6  A    between atoms: C14_17  and  S1_18 
ROOT
HETATM    1  C1  UNL     1      27.508   7.261  47.927  1.00  0.00     0.017 C 
HETATM    2  C2  UNL     1      27.566   6.101  48.241  1.00  0.00    -0.089 C 
HETATM    3  C3  UNL     1      27.611   4.723  48.624  1.00  0.00     0.063 C 
ENDROOT
BRANCH   3   4
HETATM    4  C4  UNL     1      26.884   4.077  49.491  1.00  0.00     0.011 C 
BRANCH   4   5
HETATM    5  C5  UNL     1      26.219   3.391  50.575  1.00  0.00     0.028 C 
HETATM    6  C6  UNL     1      26.111   2.578  51.576  1.00  0.00     0.041 C 
HETATM    7  N1  UNL     1      27.145   1.772  52.093  1.00  0.00    -0.352 N 
HETATM    8  C18 UNL     1      24.769   2.530  52.193  1.00  0.00     0.213 C 
HETATM    9  C7  UNL     1      26.708   0.586  52.763  1.00  0.00     0.207 C 
HETATM   10  H5  UNL     1      28.124   2.098  51.951  1.00  0.00     0.166 HD
HETATM   11  N2  UNL     1      25.457   0.290  52.875  1.00  0.00    -0.246 NA
HETATM   12  C8  UNL     1      24.417   1.110  52.351  1.00  0.00     0.065 C 
HETATM   13  C9  UNL     1      23.256   0.585  52.049  1.00  0.00     0.039 C 
HETATM   14  C10 UNL     1      22.174   1.434  51.503  1.00  0.00     0.198 C 
HETATM   15  C15 UNL     1      22.673   2.758  50.992  1.00  0.00     0.278 C 
HETATM   16  O2  UNL     1      21.589   3.641  51.071  1.00  0.00    -0.360 OA
HETATM   17  N3  UNL     1      23.779   3.325  51.607  1.00  0.00    -0.245 N 
HETATM   18  C16 UNL     1      21.570   4.222  52.341  1.00  0.00     0.199 C 
HETATM   19  C17 UNL     1      22.720   5.210  52.381  1.00  0.00     0.227 C 
HETATM   20  O3  UNL     1      23.816   4.620  51.808  1.00  0.00    -0.277 OA
BRANCH  14  21
HETATM   21  O1  UNL     1      21.569   0.770  50.411  1.00  0.00    -0.369 OA
BRANCH  21  22
HETATM   22  C11 UNL     1      20.268   0.396  50.698  1.00  0.00     0.141 C 
HETATM   23  C12 UNL     1      19.924   0.787  52.138  1.00  0.00     0.044 C 
BRANCH  22  24
HETATM   24  C13 UNL     1      19.392   1.222  49.816  1.00  0.00     0.011 C 
HETATM   25  C14 UNL     1      18.498   2.172  50.139  1.00  0.00     0.040 C 
BRANCH  25  26
HETATM   26  S1  UNL     1      17.478   3.124  48.996  1.00  0.00    -0.155 SA
HETATM   27  H15 UNL     1      18.272   3.649  47.956  1.00  0.00     0.106 HD
ENDBRANCH  25  26
ENDBRANCH  22  24
ENDBRANCH  21  22
ENDBRANCH  14  21
ENDBRANCH   4   5
ENDBRANCH   3   4
TORSDOF 6
ENDMDL
MODEL 6
REMARK VINA RESULT:      -6.5      3.176      7.321
REMARK  6 active torsions:
REMARK  status: ('A' for Active; 'I' for Inactive)
REMARK    1  A    between atoms: C3_3  and  C4_4 
REMARK    2  A    between atoms: C4_4  and  C5_5 
REMARK    3  A    between atoms: C10_12  and  O1_13 
REMARK    4  A    between atoms: O1_13  and  C11_14 
REMARK    5  A    between atoms: C11_14  and  C13_16 
REMARK    6  A    between atoms: C14_17  and  S1_18 
ROOT
HETATM    1  C1  UNL     1      20.783   4.059  44.578  1.00  0.00     0.017 C 
HETATM    2  C2  UNL     1      21.479   3.618  45.455  1.00  0.00    -0.089 C 
HETATM    3  C3  UNL     1      22.290   3.101  46.515  1.00  0.00     0.063 C 
ENDROOT
BRANCH   3   4
HETATM    4  C4  UNL     1      22.312   3.424  47.777  1.00  0.00     0.011 C 
BRANCH   4   5
HETATM    5  C5  UNL     1      22.368   3.597  49.211  1.00  0.00     0.028 C 
HETATM    6  C6  UNL     1      22.533   4.236  50.323  1.00  0.00     0.041 C 
HETATM    7  N1  UNL     1      22.861   5.602  50.443  1.00  0.00    -0.352 N 
HETATM    8  C18 UNL     1      22.349   3.420  51.541  1.00  0.00     0.213 C 
HETATM    9  C7  UNL     1      23.542   5.955  51.651  1.00  0.00     0.207 C 
HETATM   10  H5  UNL     1      22.587   6.232  49.661  1.00  0.00     0.166 HD
HETATM   11  N2  UNL     1      23.827   5.076  52.552  1.00  0.00    -0.246 NA
HETATM   12  C8  UNL     1      23.492   3.698  52.425  1.00  0.00     0.065 C 
HETATM   13  C9  UNL     1      24.184   2.791  53.068  1.00  0.00     0.039 C 
HETATM   14  C10 UNL     1      23.837   1.358  52.937  1.00  0.00     0.198 C 
HETATM   15  C15 UNL     1      22.951   1.078  51.754  1.00  0.00     0.278 C 
HETATM   16  O2  UNL     1      22.246  -0.091  52.062  1.00  0.00    -0.360 OA
HETATM   17  N3  UNL     1      22.062   2.064  51.351  1.00  0.00    -0.245 N 
HETATM   18  C16 UNL     1      21.084   0.251  52.758  1.00  0.00     0.199 C 
HETATM   19  C17 UNL     1      20.140   0.870  51.745  1.00  0.00     0.227 C 
HETATM   20  O3  UNL     1      20.860   1.728  50.953  1.00  0.00    -0.277 OA
BRANCH  14  21
HETATM   21  O1  UNL     1      25.022   0.610  52.753  1.00  0.00    -0.369 OA
BRANCH  21  22
HETATM   22  C11 UNL     1      25.600   0.265  53.962  1.00  0.00     0.141 C 
HETATM   23  C12 UNL     1      24.774  -0.834  54.635  1.00  0.00     0.044 C 
BRANCH  22  24
HETATM   24  C13 UNL     1      26.923  -0.346  53.633  1.00  0.00     0.011 C 
HETATM   25  C14 UNL     1      28.148  -0.049  54.101  1.00  0.00     0.040 C 
BRANCH  25  26
HETATM   26  S1  UNL     1      29.699  -0.847  53.641  1.00  0.00    -0.155 SA
HETATM   27  H15 UNL     1      30.638  -0.722  54.685  1.00  0.00     0.106 HD
ENDBRANCH  25  26
ENDBRANCH  22  24
ENDBRANCH  21  22
ENDBRANCH  14  21
ENDBRANCH   4   5
ENDBRANCH   3   4
TORSDOF 6
ENDMDL
MODEL 7
REMARK VINA RESULT:      -6.5     10.382     12.023
REMARK  6 active torsions:
REMARK  status: ('A' for Active; 'I' for Inactive)
REMARK    1  A    between atoms: C3_3  and  C4_4 
REMARK    2  A    between atoms: C4_4  and  C5_5 
REMARK    3  A    between atoms: C10_12  and  O1_13 
REMARK    4  A    between atoms: O1_13  and  C11_14 
REMARK    5  A    between atoms: C11_14  and  C13_16 
REMARK    6  A    between atoms: C14_17  and  S1_18 
ROOT
HETATM    1  C1  UNL     1      33.042   2.594  40.187  1.00  0.00     0.017 C 
HETATM    2  C2  UNL     1      33.167   3.563  40.889  1.00  0.00    -0.089 C 
HETATM    3  C3  UNL     1      33.324   4.701  41.743  1.00  0.00     0.063 C 
ENDROOT
BRANCH   3   4
HETATM    4  C4  UNL     1      33.339   4.767  43.044  1.00  0.00     0.011 C 
BRANCH   4   5
HETATM    5  C5  UNL     1      33.210   4.964  44.470  1.00  0.00     0.028 C 
HETATM    6  C6  UNL     1      33.285   4.650  45.723  1.00  0.00     0.041 C 
HETATM    7  N1  UNL     1      33.740   3.418  46.234  1.00  0.00    -0.352 N 
HETATM    8  C18 UNL     1      32.844   5.708  46.655  1.00  0.00     0.213 C 
HETATM    9  C7  UNL     1      33.219   3.067  47.519  1.00  0.00     0.207 C 
HETATM   10  H5  UNL     1      34.407   2.872  45.647  1.00  0.00     0.166 HD
HETATM   11  N2  UNL     1      32.394   3.833  48.150  1.00  0.00    -0.246 NA
HETATM   12  C8  UNL     1      31.937   5.078  47.628  1.00  0.00     0.065 C 
HETATM   13  C9  UNL     1      30.791   5.574  48.020  1.00  0.00     0.039 C 
HETATM   14  C10 UNL     1      30.315   6.867  47.479  1.00  0.00     0.198 C 
HETATM   15  C15 UNL     1      31.043   7.280  46.229  1.00  0.00     0.278 C 
HETATM   16  O2  UNL     1      30.955   8.676  46.169  1.00  0.00    -0.360 OA
HETATM   17  N3  UNL     1      32.367   6.892  46.081  1.00  0.00    -0.245 N 
HETATM   18  C16 UNL     1      32.020   9.228  46.883  1.00  0.00     0.199 C 
HETATM   19  C17 UNL     1      33.264   9.005  46.045  1.00  0.00     0.227 C 
HETATM   20  O3  UNL     1      33.232   7.725  45.556  1.00  0.00    -0.277 OA
BRANCH  14  21
HETATM   21  O1  UNL     1      28.947   6.753  47.143  1.00  0.00    -0.369 OA
BRANCH  21  22
HETATM   22  C11 UNL     1      28.150   7.512  47.981  1.00  0.00     0.141 C 
HETATM   23  C12 UNL     1      27.240   8.418  47.148  1.00  0.00     0.044 C 
BRANCH  22  24
HETATM   24  C13 UNL     1      27.254   6.550  48.689  1.00  0.00     0.011 C 
HETATM   25  C14 UNL     1      27.283   5.207  48.715  1.00  0.00     0.040 C 
BRANCH  25  26
HETATM   26  S1  UNL     1      26.149   4.122  49.605  1.00  0.00    -0.155 SA
HETATM   27  H15 UNL     1      25.868   2.974  48.835  1.00  0.00     0.106 HD
ENDBRANCH  25  26
ENDBRANCH  22  24
ENDBRANCH  21  22
ENDBRANCH  14  21
ENDBRANCH   4   5
ENDBRANCH   3   4
TORSDOF 6
ENDMDL
MODEL 8
REMARK VINA RESULT:      -6.3      3.086      5.751
REMARK  6 active torsions:
REMARK  status: ('A' for Active; 'I' for Inactive)
REMARK    1  A    between atoms: C3_3  and  C4_4 
REMARK    2  A    between atoms: C4_4  and  C5_5 
REMARK    3  A    between atoms: C10_12  and  O1_13 
REMARK    4  A    between atoms: O1_13  and  C11_14 
REMARK    5  A    between atoms: C11_14  and  C13_16 
REMARK    6  A    between atoms: C14_17  and  S1_18 
ROOT
HETATM    1  C1  UNL     1      24.616   8.380  50.043  1.00  0.00     0.017 C 
HETATM    2  C2  UNL     1      24.231   7.481  50.744  1.00  0.00    -0.089 C 
HETATM    3  C3  UNL     1      23.785   6.394  51.562  1.00  0.00     0.063 C 
ENDROOT
BRANCH   3   4
HETATM    4  C4  UNL     1      23.617   5.139  51.257  1.00  0.00     0.011 C 
BRANCH   4   5
HETATM    5  C5  UNL     1      23.320   3.809  50.775  1.00  0.00     0.028 C 
HETATM    6  C6  UNL     1      23.098   2.888  49.893  1.00  0.00     0.041 C 
HETATM    7  N1  UNL     1      23.097   3.074  48.496  1.00  0.00    -0.352 N 
HETATM    8  C18 UNL     1      22.829   1.547  50.451  1.00  0.00     0.213 C 
HETATM    9  C7  UNL     1      22.297   2.142  47.763  1.00  0.00     0.207 C 
HETATM   10  H5  UNL     1      23.669   3.858  48.116  1.00  0.00     0.166 HD
HETATM   11  N2  UNL     1      21.631   1.207  48.353  1.00  0.00    -0.246 NA
HETATM   12  C8  UNL     1      21.636   1.025  49.766  1.00  0.00     0.065 C 
HETATM   13  C9  UNL     1      20.629   0.431  50.356  1.00  0.00     0.039 C 
HETATM   14  C10 UNL     1      20.632   0.241  51.824  1.00  0.00     0.198 C 
HETATM   15  C15 UNL     1      21.640   1.112  52.522  1.00  0.00     0.278 C 
HETATM   16  O2  UNL     1      21.961   0.457  53.717  1.00  0.00    -0.360 OA
HETATM   17  N3  UNL     1      22.806   1.441  51.846  1.00  0.00    -0.245 N 
HETATM   18  C16 UNL     1      23.008  -0.436  53.477  1.00  0.00     0.199 C 
HETATM   19  C17 UNL     1      24.257   0.404  53.293  1.00  0.00     0.227 C 
HETATM   20  O3  UNL     1      23.944   1.475  52.495  1.00  0.00    -0.277 OA
BRANCH  14  21
HETATM   21  O1  UNL     1      19.361   0.584  52.338  1.00  0.00    -0.369 OA
BRANCH  21  22
HETATM   22  C11 UNL     1      18.404  -0.358  52.005  1.00  0.00     0.141 C 
HETATM   23  C12 UNL     1      18.010  -1.156  53.251  1.00  0.00     0.044 C 
BRANCH  22  24
HETATM   24  C13 UNL     1      17.190   0.407  51.594  1.00  0.00     0.011 C 
HETATM   25  C14 UNL     1      17.022   1.731  51.429  1.00  0.00     0.040 C 
BRANCH  25  26
HETATM   26  S1  UNL     1      15.506   2.569  50.926  1.00  0.00    -0.155 SA
HETATM   27  H15 UNL     1      14.852   1.830  49.920  1.00  0.00     0.106 HD
ENDBRANCH  25  26
ENDBRANCH  22  24
ENDBRANCH  21  22
ENDBRANCH  14  21
ENDBRANCH   4   5
ENDBRANCH   3   4
TORSDOF 6
ENDMDL
MODEL 9
REMARK VINA RESULT:      -6.3      3.274      5.789
REMARK  6 active torsions:
REMARK  status: ('A' for Active; 'I' for Inactive)
REMARK    1  A    between atoms: C3_3  and  C4_4 
REMARK    2  A    between atoms: C4_4  and  C5_5 
REMARK    3  A    between atoms: C10_12  and  O1_13 
REMARK    4  A    between atoms: O1_13  and  C11_14 
REMARK    5  A    between atoms: C11_14  and  C13_16 
REMARK    6  A    between atoms: C14_17  and  S1_18 
ROOT
HETATM    1  C1  UNL     1      19.042  -1.123  53.491  1.00  0.00     0.017 C 
HETATM    2  C2  UNL     1      20.058  -0.516  53.706  1.00  0.00    -0.089 C 
HETATM    3  C3  UNL     1      21.269   0.212  53.937  1.00  0.00     0.063 C 
ENDROOT
BRANCH   3   4
HETATM    4  C4  UNL     1      22.206   0.554  53.099  1.00  0.00     0.011 C 
BRANCH   4   5
HETATM    5  C5  UNL     1      23.186   1.113  52.196  1.00  0.00     0.028 C 
HETATM    6  C6  UNL     1      24.369   1.366  51.738  1.00  0.00     0.041 C 
HETATM    7  N1  UNL     1      25.581   0.928  52.309  1.00  0.00    -0.352 N 
HETATM    8  C18 UNL     1      24.396   2.186  50.509  1.00  0.00     0.213 C 
HETATM    9  C7  UNL     1      26.715   1.751  52.024  1.00  0.00     0.207 C 
HETATM   10  H5  UNL     1      25.554   0.058  52.882  1.00  0.00     0.166 HD
HETATM   11  N2  UNL     1      26.619   2.812  51.296  1.00  0.00    -0.246 NA
HETATM   12  C8  UNL     1      25.392   3.249  50.720  1.00  0.00     0.065 C 
HETATM   13  C9  UNL     1      25.218   4.512  50.423  1.00  0.00     0.039 C 
HETATM   14  C10 UNL     1      23.943   4.968  49.826  1.00  0.00     0.198 C 
HETATM   15  C15 UNL     1      22.832   3.967  49.987  1.00  0.00     0.278 C 
HETATM   16  O2  UNL     1      21.934   4.207  48.939  1.00  0.00    -0.360 OA
HETATM   17  N3  UNL     1      23.161   2.619  50.016  1.00  0.00    -0.245 N 
HETATM   18  C16 UNL     1      22.336   3.472  47.821  1.00  0.00     0.199 C 
HETATM   19  C17 UNL     1      22.012   2.021  48.120  1.00  0.00     0.227 C 
HETATM   20  O3  UNL     1      22.389   1.751  49.410  1.00  0.00    -0.277 OA
BRANCH  14  21
HETATM   21  O1  UNL     1      23.527   6.155  50.471  1.00  0.00    -0.369 OA
BRANCH  21  22
HETATM   22  C11 UNL     1      23.559   7.241  49.613  1.00  0.00     0.141 C 
HETATM   23  C12 UNL     1      22.297   8.087  49.805  1.00  0.00     0.044 C 
BRANCH  22  24
HETATM   24  C13 UNL     1      24.705   8.089  50.056  1.00  0.00     0.011 C 
HETATM   25  C14 UNL     1      25.938   8.209  49.532  1.00  0.00     0.040 C 
BRANCH  25  26
HETATM   26  S1  UNL     1      27.266   9.267  50.140  1.00  0.00    -0.155 SA
HETATM   27  H15 UNL     1      27.246   9.313  51.549  1.00  0.00     0.106 HD
ENDBRANCH  25  26
ENDBRANCH  22  24
ENDBRANCH  21  22
ENDBRANCH  14  21
ENDBRANCH   4   5
ENDBRANCH   3   4
TORSDOF 6
ENDMDL
