MODEL 1
REMARK VINA RESULT:      -7.5      0.000      0.000
REMARK  7 active torsions:
REMARK  status: ('A' for Active; 'I' for Inactive)
REMARK    1  A    between atoms: C2_2  and  N1_3 
REMARK    2  A    between atoms: N1_3  and  C3_4 
REMARK    3  A    between atoms: N1_3  and  C5_6 
REMARK    4  A    between atoms: C5_6  and  C6_7 
REMARK    5  A    between atoms: C6_7  and  N2_8 
REMARK       I    between atoms: N2_8  and  C7_9 
REMARK    6  A    between atoms: C7_9  and  C8_11 
REMARK    7  A    between atoms: C10_14  and  C11_15 
ROOT
HETATM    1  C8  UNL     1      21.792  -0.441  53.625  1.00  0.00     0.038 A 
HETATM    2  C9  UNL     1      20.625  -0.293  54.221  1.00  0.00     0.141 A 
HETATM    3  N3  UNL     1      20.212   0.191  52.897  1.00  0.00    -0.399 N 
HETATM    4  C10 UNL     1      21.526   0.042  52.278  1.00  0.00     0.144 A 
HETATM    5  H17 UNL     1      19.553   0.550  52.076  1.00  0.00     0.155 HD
ENDROOT
BRANCH   1   6
HETATM    6  C7  UNL     1      22.678  -0.973  54.631  1.00  0.00     0.248 C 
HETATM    7  N2  UNL     1      24.002  -0.515  54.179  1.00  0.00    -0.356 N 
HETATM    8  H15 UNL     1      24.251   0.075  53.311  1.00  0.00     0.162 HD
HETATM    9  O1  UNL     1      23.105  -1.543  55.608  1.00  0.00    -0.268 OA
BRANCH   7  10
HETATM   10  C6  UNL     1      25.186  -0.886  54.974  1.00  0.00     0.142 C 
BRANCH  10  11
HETATM   11  C5  UNL     1      26.267   0.116  54.742  1.00  0.00     0.136 C 
BRANCH  11  12
HETATM   12  N1  UNL     1      27.340  -0.369  53.970  1.00  0.00    -0.412 N 
BRANCH  12  13
HETATM   13  C2  UNL     1      27.173  -0.347  52.557  1.00  0.00     0.112 C 
HETATM   14  C1  UNL     1      26.548   0.922  52.034  1.00  0.00     0.026 C 
ENDBRANCH  12  13
BRANCH  12  15
HETATM   15  C3  UNL     1      28.660  -0.154  54.393  1.00  0.00     0.112 C 
HETATM   16  C4  UNL     1      29.630  -0.918  53.536  1.00  0.00     0.026 C 
ENDBRANCH  12  15
ENDBRANCH  11  12
ENDBRANCH  10  11
ENDBRANCH   7  10
ENDBRANCH   1   6
BRANCH   4  17
HETATM   17  C11 UNL     1      22.193   1.329  51.959  1.00  0.00    -0.044 A 
HETATM   18  C12 UNL     1      22.801   2.491  52.115  1.00  0.00     0.081 A 
HETATM   19  C13 UNL     1      23.474   3.782  52.029  1.00  0.00     0.266 A 
HETATM   20  O2  UNL     1      23.766   4.304  53.152  1.00  0.00    -0.266 OA
HETATM   21  N4  UNL     1      23.639   4.144  50.707  1.00  0.00    -0.223 NA
HETATM   22  C14 UNL     1      24.097   5.043  50.071  1.00  0.00     0.123 A 
HETATM   23  C15 UNL     1      23.682   4.278  48.881  1.00  0.00     0.056 A 
HETATM   24  C16 UNL     1      23.068   3.101  48.525  1.00  0.00     0.086 A 
HETATM   25  F1  UNL     1      22.511   2.047  47.788  1.00  0.00    -0.360 F 
HETATM   26  C17 UNL     1      22.477   1.941  49.257  1.00  0.00     0.229 A 
HETATM   27  C18 UNL     1      22.169   1.321  50.441  1.00  0.00     0.044 A 
ENDBRANCH   4  17
TORSDOF 7
ENDMDL
MODEL 2
REMARK VINA RESULT:      -7.4      3.038      6.788
REMARK  7 active torsions:
REMARK  status: ('A' for Active; 'I' for Inactive)
REMARK    1  A    between atoms: C2_2  and  N1_3 
REMARK    2  A    between atoms: N1_3  and  C3_4 
REMARK    3  A    between atoms: N1_3  and  C5_6 
REMARK    4  A    between atoms: C5_6  and  C6_7 
REMARK    5  A    between atoms: C6_7  and  N2_8 
REMARK       I    between atoms: N2_8  and  C7_9 
REMARK    6  A    between atoms: C7_9  and  C8_11 
REMARK    7  A    between atoms: C10_14  and  C11_15 
ROOT
HETATM    1  C8  UNL     1      23.437   1.489  51.834  1.00  0.00     0.038 A 
HETATM    2  C9  UNL     1      22.363   0.723  51.827  1.00  0.00     0.141 A 
HETATM    3  N3  UNL     1      22.811   0.391  53.186  1.00  0.00    -0.399 N 
HETATM    4  C10 UNL     1      24.008   1.226  53.147  1.00  0.00     0.144 A 
HETATM    5  H17 UNL     1      22.804  -0.045  54.210  1.00  0.00     0.155 HD
ENDROOT
BRANCH   1   6
HETATM    6  C7  UNL     1      23.461   2.137  50.546  1.00  0.00     0.248 C 
HETATM    7  N2  UNL     1      24.709   2.917  50.594  1.00  0.00    -0.356 N 
HETATM    8  H15 UNL     1      25.430   2.986  51.393  1.00  0.00     0.162 HD
HETATM    9  O1  UNL     1      23.170   2.496  49.429  1.00  0.00    -0.268 OA
BRANCH   7  10
HETATM   10  C6  UNL     1      25.073   3.738  49.426  1.00  0.00     0.142 C 
BRANCH  10  11
HETATM   11  C5  UNL     1      25.368   5.130  49.876  1.00  0.00     0.136 C 
BRANCH  11  12
HETATM   12  N1  UNL     1      26.456   5.727  49.210  1.00  0.00    -0.412 N 
BRANCH  12  13
HETATM   13  C2  UNL     1      27.437   4.848  48.672  1.00  0.00     0.112 C 
HETATM   14  C1  UNL     1      28.745   5.519  48.338  1.00  0.00     0.026 C 
ENDBRANCH  12  13
BRANCH  12  15
HETATM   15  C3  UNL     1      26.262   6.895  48.458  1.00  0.00     0.112 C 
HETATM   16  C4  UNL     1      24.840   6.996  47.981  1.00  0.00     0.026 C 
ENDBRANCH  12  15
ENDBRANCH  11  12
ENDBRANCH  10  11
ENDBRANCH   7  10
ENDBRANCH   1   6
BRANCH   4  17
HETATM   17  C11 UNL     1      25.278   0.461  53.108  1.00  0.00    -0.044 A 
HETATM   18  C12 UNL     1      26.128  -0.537  52.951  1.00  0.00     0.081 A 
HETATM   19  C13 UNL     1      27.248  -1.468  52.847  1.00  0.00     0.266 A 
HETATM   20  O2  UNL     1      26.926  -2.645  52.486  1.00  0.00    -0.266 OA
HETATM   21  N4  UNL     1      28.426  -0.830  53.176  1.00  0.00    -0.223 NA
HETATM   22  C14 UNL     1      29.590  -1.079  53.262  1.00  0.00     0.123 A 
HETATM   23  C15 UNL     1      29.758   0.330  53.660  1.00  0.00     0.056 A 
HETATM   24  C16 UNL     1      29.031   1.479  53.868  1.00  0.00     0.086 A 
HETATM   25  F1  UNL     1      28.660   2.796  54.169  1.00  0.00    -0.360 F 
HETATM   26  C17 UNL     1      27.590   1.861  53.779  1.00  0.00     0.229 A 
HETATM   27  C18 UNL     1      26.288   1.517  53.519  1.00  0.00     0.044 A 
ENDBRANCH   4  17
TORSDOF 7
ENDMDL
MODEL 3
REMARK VINA RESULT:      -7.2      3.492      5.006
REMARK  7 active torsions:
REMARK  status: ('A' for Active; 'I' for Inactive)
REMARK    1  A    between atoms: C2_2  and  N1_3 
REMARK    2  A    between atoms: N1_3  and  C3_4 
REMARK    3  A    between atoms: N1_3  and  C5_6 
REMARK    4  A    between atoms: C5_6  and  C6_7 
REMARK    5  A    between atoms: C6_7  and  N2_8 
REMARK       I    between atoms: N2_8  and  C7_9 
REMARK    6  A    between atoms: C7_9  and  C8_11 
REMARK    7  A    between atoms: C10_14  and  C11_15 
ROOT
HETATM    1  C8  UNL     1      24.622   3.147  50.880  1.00  0.00     0.038 A 
HETATM    2  C9  UNL     1      23.362   3.019  50.509  1.00  0.00     0.141 A 
HETATM    3  N3  UNL     1      23.919   3.263  49.171  1.00  0.00    -0.399 N 
HETATM    4  C10 UNL     1      25.298   3.428  49.622  1.00  0.00     0.144 A 
HETATM    5  H17 UNL     1      23.971   3.360  48.064  1.00  0.00     0.155 HD
ENDROOT
BRANCH   1   6
HETATM    6  C7  UNL     1      24.627   2.960  52.309  1.00  0.00     0.248 C 
HETATM    7  N2  UNL     1      25.851   2.174  52.534  1.00  0.00    -0.356 N 
HETATM    8  H15 UNL     1      26.569   1.824  51.809  1.00  0.00     0.162 HD
HETATM    9  O1  UNL     1      24.326   2.999  53.480  1.00  0.00    -0.268 OA
BRANCH   7  10
HETATM   10  C6  UNL     1      26.191   1.775  53.911  1.00  0.00     0.142 C 
BRANCH  10  11
HETATM   11  C5  UNL     1      26.216   0.286  53.999  1.00  0.00     0.136 C 
BRANCH  11  12
HETATM   12  N1  UNL     1      27.513  -0.262  54.052  1.00  0.00    -0.412 N 
BRANCH  12  13
HETATM   13  C2  UNL     1      27.865  -1.173  53.017  1.00  0.00     0.112 C 
HETATM   14  C1  UNL     1      26.690  -1.904  52.418  1.00  0.00     0.026 C 
ENDBRANCH  12  13
BRANCH  12  15
HETATM   15  C3  UNL     1      28.583   0.516  54.517  1.00  0.00     0.112 C 
HETATM   16  C4  UNL     1      29.829   0.244  53.724  1.00  0.00     0.026 C 
ENDBRANCH  12  15
ENDBRANCH  11  12
ENDBRANCH  10  11
ENDBRANCH   7  10
ENDBRANCH   1   6
BRANCH   4  17
HETATM   17  C11 UNL     1      25.807   4.818  49.511  1.00  0.00    -0.044 A 
HETATM   18  C12 UNL     1      25.867   6.134  49.596  1.00  0.00     0.081 A 
HETATM   19  C13 UNL     1      26.169   7.562  49.583  1.00  0.00     0.266 A 
HETATM   20  O2  UNL     1      25.251   8.301  50.061  1.00  0.00    -0.266 OA
HETATM   21  N4  UNL     1      27.417   7.778  49.036  1.00  0.00    -0.223 NA
HETATM   22  C14 UNL     1      28.144   8.691  48.786  1.00  0.00     0.123 A 
HETATM   23  C15 UNL     1      29.082   7.673  48.280  1.00  0.00     0.056 A 
HETATM   24  C16 UNL     1      29.201   6.312  48.116  1.00  0.00     0.086 A 
HETATM   25  F1  UNL     1      29.683   5.037  47.794  1.00  0.00    -0.360 F 
HETATM   26  C17 UNL     1      28.344   5.124  48.403  1.00  0.00     0.229 A 
HETATM   27  C18 UNL     1      27.172   4.597  48.883  1.00  0.00     0.044 A 
ENDBRANCH   4  17
TORSDOF 7
ENDMDL
MODEL 4
REMARK VINA RESULT:      -7.1      3.063      7.380
REMARK  7 active torsions:
REMARK  status: ('A' for Active; 'I' for Inactive)
REMARK    1  A    between atoms: C2_2  and  N1_3 
REMARK    2  A    between atoms: N1_3  and  C3_4 
REMARK    3  A    between atoms: N1_3  and  C5_6 
REMARK    4  A    between atoms: C5_6  and  C6_7 
REMARK    5  A    between atoms: C6_7  and  N2_8 
REMARK       I    between atoms: N2_8  and  C7_9 
REMARK    6  A    between atoms: C7_9  and  C8_11 
REMARK    7  A    between atoms: C10_14  and  C11_15 
ROOT
HETATM    1  C8  UNL     1      24.097   2.044  51.647  1.00  0.00     0.038 A 
HETATM    2  C9  UNL     1      22.898   1.531  51.448  1.00  0.00     0.141 A 
HETATM    3  N3  UNL     1      23.117   0.961  52.784  1.00  0.00    -0.399 N 
HETATM    4  C10 UNL     1      24.454   1.522  52.958  1.00  0.00     0.144 A 
HETATM    5  H17 UNL     1      22.910   0.426  53.737  1.00  0.00     0.155 HD
ENDROOT
BRANCH   1   6
HETATM    6  C7  UNL     1      24.392   2.813  50.463  1.00  0.00     0.248 C 
HETATM    7  N2  UNL     1      25.045   4.015  51.006  1.00  0.00    -0.356 N 
HETATM    8  H15 UNL     1      25.254   4.262  52.035  1.00  0.00     0.162 HD
HETATM    9  O1  UNL     1      24.484   3.169  49.312  1.00  0.00    -0.268 OA
BRANCH   7  10
HETATM   10  C6  UNL     1      25.490   5.061  50.068  1.00  0.00     0.142 C 
BRANCH  10  11
HETATM   11  C5  UNL     1      25.046   6.393  50.570  1.00  0.00     0.136 C 
BRANCH  11  12
HETATM   12  N1  UNL     1      23.921   6.911  49.899  1.00  0.00    -0.412 N 
BRANCH  12  13
HETATM   13  C2  UNL     1      23.675   6.416  48.587  1.00  0.00     0.112 C 
HETATM   14  C1  UNL     1      24.158   7.326  47.487  1.00  0.00     0.026 C 
ENDBRANCH  12  13
BRANCH  12  15
HETATM   15  C3  UNL     1      22.758   7.224  50.619  1.00  0.00     0.112 C 
HETATM   16  C4  UNL     1      21.959   5.985  50.913  1.00  0.00     0.026 C 
ENDBRANCH  12  15
ENDBRANCH  11  12
ENDBRANCH  10  11
ENDBRANCH   7  10
ENDBRANCH   1   6
BRANCH   4  17
HETATM   17  C11 UNL     1      25.541   0.512  52.925  1.00  0.00    -0.044 A 
HETATM   18  C12 UNL     1      26.188  -0.617  52.701  1.00  0.00     0.081 A 
HETATM   19  C13 UNL     1      27.104  -1.744  52.564  1.00  0.00     0.266 A 
HETATM   20  O2  UNL     1      26.604  -2.768  51.998  1.00  0.00    -0.266 OA
HETATM   21  N4  UNL     1      28.335  -1.424  53.100  1.00  0.00    -0.223 NA
HETATM   22  C14 UNL     1      29.406  -1.926  53.261  1.00  0.00     0.123 A 
HETATM   23  C15 UNL     1      29.798  -0.650  53.884  1.00  0.00     0.056 A 
HETATM   24  C16 UNL     1      29.294   0.592  54.194  1.00  0.00     0.086 A 
HETATM   25  F1  UNL     1      29.157   1.907  54.657  1.00  0.00    -0.360 F 
HETATM   26  C17 UNL     1      27.981   1.283  54.025  1.00  0.00     0.229 A 
HETATM   27  C18 UNL     1      26.680   1.264  53.590  1.00  0.00     0.044 A 
ENDBRANCH   4  17
TORSDOF 7
ENDMDL
MODEL 5
REMARK VINA RESULT:      -7.0      2.497      6.588
REMARK  7 active torsions:
REMARK  status: ('A' for Active; 'I' for Inactive)
REMARK    1  A    between atoms: C2_2  and  N1_3 
REMARK    2  A    between atoms: N1_3  and  C3_4 
REMARK    3  A    between atoms: N1_3  and  C5_6 
REMARK    4  A    between atoms: C5_6  and  C6_7 
REMARK    5  A    between atoms: C6_7  and  N2_8 
REMARK       I    between atoms: N2_8  and  C7_9 
REMARK    6  A    between atoms: C7_9  and  C8_11 
REMARK    7  A    between atoms: C10_14  and  C11_15 
ROOT
HETATM    1  C8  UNL     1      24.653   3.556  51.088  1.00  0.00     0.038 A 
HETATM    2  C9  UNL     1      24.872   4.841  50.889  1.00  0.00     0.141 A 
HETATM    3  N3  UNL     1      26.126   4.354  50.301  1.00  0.00    -0.399 N 
HETATM    4  C10 UNL     1      25.864   2.942  50.564  1.00  0.00     0.144 A 
HETATM    5  H17 UNL     1      27.101   4.365  49.764  1.00  0.00     0.155 HD
ENDROOT
BRANCH   1   6
HETATM    6  C7  UNL     1      23.361   3.474  51.723  1.00  0.00     0.248 C 
HETATM    7  N2  UNL     1      22.793   2.240  51.157  1.00  0.00    -0.356 N 
HETATM    8  H15 UNL     1      23.234   1.561  50.443  1.00  0.00     0.162 HD
HETATM    9  O1  UNL     1      22.397   3.713  52.412  1.00  0.00    -0.268 OA
BRANCH   7  10
HETATM   10  C6  UNL     1      21.443   1.827  51.577  1.00  0.00     0.142 C 
BRANCH  10  11
HETATM   11  C5  UNL     1      21.376   0.337  51.622  1.00  0.00     0.136 C 
BRANCH  11  12
HETATM   12  N1  UNL     1      21.066  -0.184  52.893  1.00  0.00    -0.412 N 
BRANCH  12  13
HETATM   13  C2  UNL     1      22.092  -0.122  53.877  1.00  0.00     0.112 C 
HETATM   14  C1  UNL     1      22.177  -1.347  54.752  1.00  0.00     0.026 C 
ENDBRANCH  12  13
BRANCH  12  15
HETATM   15  C3  UNL     1      19.769  -0.044  53.409  1.00  0.00     0.112 C 
HETATM   16  C4  UNL     1      18.747  -0.576  52.445  1.00  0.00     0.026 C 
ENDBRANCH  12  15
ENDBRANCH  11  12
ENDBRANCH  10  11
ENDBRANCH   7  10
ENDBRANCH   1   6
BRANCH   4  17
HETATM   17  C11 UNL     1      26.737   2.350  51.608  1.00  0.00    -0.044 A 
HETATM   18  C12 UNL     1      27.608   2.248  52.594  1.00  0.00     0.081 A 
HETATM   19  C13 UNL     1      28.527   1.882  53.667  1.00  0.00     0.266 A 
HETATM   20  O2  UNL     1      29.116   2.866  54.219  1.00  0.00    -0.266 OA
HETATM   21  N4  UNL     1      28.542   0.512  53.832  1.00  0.00    -0.223 NA
HETATM   22  C14 UNL     1      29.075  -0.306  54.518  1.00  0.00     0.123 A 
HETATM   23  C15 UNL     1      28.296  -1.301  53.760  1.00  0.00     0.056 A 
HETATM   24  C16 UNL     1      27.373  -1.393  52.745  1.00  0.00     0.086 A 
HETATM   25  F1  UNL     1      26.469  -1.883  51.793  1.00  0.00    -0.360 F 
HETATM   26  C17 UNL     1      26.669  -0.424  51.852  1.00  0.00     0.229 A 
HETATM   27  C18 UNL     1      26.443   0.868  51.451  1.00  0.00     0.044 A 
ENDBRANCH   4  17
TORSDOF 7
ENDMDL
MODEL 6
REMARK VINA RESULT:      -7.0      2.954      6.964
REMARK  7 active torsions:
REMARK  status: ('A' for Active; 'I' for Inactive)
REMARK    1  A    between atoms: C2_2  and  N1_3 
REMARK    2  A    between atoms: N1_3  and  C3_4 
REMARK    3  A    between atoms: N1_3  and  C5_6 
REMARK    4  A    between atoms: C5_6  and  C6_7 
REMARK    5  A    between atoms: C6_7  and  N2_8 
REMARK       I    between atoms: N2_8  and  C7_9 
REMARK    6  A    between atoms: C7_9  and  C8_11 
REMARK    7  A    between atoms: C10_14  and  C11_15 
ROOT
HETATM    1  C8  UNL     1      23.788   2.359  51.240  1.00  0.00     0.038 A 
HETATM    2  C9  UNL     1      23.177   2.963  52.242  1.00  0.00     0.141 A 
HETATM    3  N3  UNL     1      24.540   3.395  52.577  1.00  0.00    -0.399 N 
HETATM    4  C10 UNL     1      25.186   2.690  51.474  1.00  0.00     0.144 A 
HETATM    5  H17 UNL     1      25.368   3.931  53.093  1.00  0.00     0.155 HD
ENDROOT
BRANCH   1   6
HETATM    6  C7  UNL     1      22.748   1.700  50.491  1.00  0.00     0.248 C 
HETATM    7  N2  UNL     1      21.696   1.492  51.499  1.00  0.00    -0.356 N 
HETATM    8  H15 UNL     1      21.699   1.766  52.543  1.00  0.00     0.162 HD
HETATM    9  O1  UNL     1      22.118   1.189  49.594  1.00  0.00    -0.268 OA
BRANCH   7  10
HETATM   10  C6  UNL     1      20.450   0.819  51.091  1.00  0.00     0.142 C 
BRANCH  10  11
HETATM   11  C5  UNL     1      19.525   0.747  52.260  1.00  0.00     0.136 C 
BRANCH  11  12
HETATM   12  N1  UNL     1      19.880  -0.230  53.211  1.00  0.00    -0.412 N 
BRANCH  12  13
HETATM   13  C2  UNL     1      20.598   0.222  54.354  1.00  0.00     0.112 C 
HETATM   14  C1  UNL     1      21.718  -0.695  54.777  1.00  0.00     0.026 C 
ENDBRANCH  12  13
BRANCH  12  15
HETATM   15  C3  UNL     1      19.016  -1.305  53.466  1.00  0.00     0.112 C 
HETATM   16  C4  UNL     1      17.658  -1.054  52.875  1.00  0.00     0.026 C 
ENDBRANCH  12  15
ENDBRANCH  11  12
ENDBRANCH  10  11
ENDBRANCH   7  10
ENDBRANCH   1   6
BRANCH   4  17
HETATM   17  C11 UNL     1      26.013   1.533  51.899  1.00  0.00    -0.044 A 
HETATM   18  C12 UNL     1      26.429   0.291  52.062  1.00  0.00     0.081 A 
HETATM   19  C13 UNL     1      27.086  -0.975  52.371  1.00  0.00     0.266 A 
HETATM   20  O2  UNL     1      26.490  -2.005  51.921  1.00  0.00    -0.266 OA
HETATM   21  N4  UNL     1      28.233  -0.748  53.104  1.00  0.00    -0.223 NA
HETATM   22  C14 UNL     1      29.118  -1.371  53.607  1.00  0.00     0.123 A 
HETATM   23  C15 UNL     1      29.655  -0.067  54.036  1.00  0.00     0.056 A 
HETATM   24  C16 UNL     1      29.384   1.280  53.966  1.00  0.00     0.086 A 
HETATM   25  F1  UNL     1      29.453   2.672  54.110  1.00  0.00    -0.360 F 
HETATM   26  C17 UNL     1      28.309   2.122  53.360  1.00  0.00     0.229 A 
HETATM   27  C18 UNL     1      27.142   2.219  52.646  1.00  0.00     0.044 A 
ENDBRANCH   4  17
TORSDOF 7
ENDMDL
MODEL 7
REMARK VINA RESULT:      -6.9      2.645      6.772
REMARK  7 active torsions:
REMARK  status: ('A' for Active; 'I' for Inactive)
REMARK    1  A    between atoms: C2_2  and  N1_3 
REMARK    2  A    between atoms: N1_3  and  C3_4 
REMARK    3  A    between atoms: N1_3  and  C5_6 
REMARK    4  A    between atoms: C5_6  and  C6_7 
REMARK    5  A    between atoms: C6_7  and  N2_8 
REMARK       I    between atoms: N2_8  and  C7_9 
REMARK    6  A    between atoms: C7_9  and  C8_11 
REMARK    7  A    between atoms: C10_14  and  C11_15 
ROOT
HETATM    1  C8  UNL     1      25.217   4.422  50.191  1.00  0.00     0.038 A 
HETATM    2  C9  UNL     1      26.026   5.360  49.736  1.00  0.00     0.141 A 
HETATM    3  N3  UNL     1      26.929   4.223  49.515  1.00  0.00    -0.399 N 
HETATM    4  C10 UNL     1      26.020   3.215  50.053  1.00  0.00     0.144 A 
HETATM    5  H17 UNL     1      27.819   3.648  49.175  1.00  0.00     0.155 HD
ENDROOT
BRANCH   1   6
HETATM    6  C7  UNL     1      24.010   5.105  50.585  1.00  0.00     0.248 C 
HETATM    7  N2  UNL     1      23.082   3.998  50.868  1.00  0.00    -0.356 N 
HETATM    8  H15 UNL     1      23.260   2.936  50.800  1.00  0.00     0.162 HD
HETATM    9  O1  UNL     1      23.209   5.969  50.854  1.00  0.00    -0.268 OA
BRANCH   7  10
HETATM   10  C6  UNL     1      21.711   4.320  51.300  1.00  0.00     0.142 C 
BRANCH  10  11
HETATM   11  C5  UNL     1      20.810   3.180  50.964  1.00  0.00     0.136 C 
BRANCH  11  12
HETATM   12  N1  UNL     1      21.122   1.985  51.641  1.00  0.00    -0.412 N 
BRANCH  12  13
HETATM   13  C2  UNL     1      20.444   1.751  52.870  1.00  0.00     0.112 C 
HETATM   14  C1  UNL     1      20.950   0.552  53.632  1.00  0.00     0.026 C 
ENDBRANCH  12  13
BRANCH  12  15
HETATM   15  C3  UNL     1      21.401   0.819  50.912  1.00  0.00     0.112 C 
HETATM   16  C4  UNL     1      21.240   1.057  49.437  1.00  0.00     0.026 C 
ENDBRANCH  12  15
ENDBRANCH  11  12
ENDBRANCH  10  11
ENDBRANCH   7  10
ENDBRANCH   1   6
BRANCH   4  17
HETATM   17  C11 UNL     1      26.458   2.635  51.346  1.00  0.00    -0.044 A 
HETATM   18  C12 UNL     1      27.162   2.422  52.443  1.00  0.00     0.081 A 
HETATM   19  C13 UNL     1      27.764   2.004  53.705  1.00  0.00     0.266 A 
HETATM   20  O2  UNL     1      28.811   2.647  54.031  1.00  0.00    -0.266 OA
HETATM   21  N4  UNL     1      27.031   0.975  54.262  1.00  0.00    -0.223 NA
HETATM   22  C14 UNL     1      27.050   0.279  55.231  1.00  0.00     0.123 A 
HETATM   23  C15 UNL     1      25.830  -0.341  54.684  1.00  0.00     0.056 A 
HETATM   24  C16 UNL     1      24.976  -0.261  53.609  1.00  0.00     0.086 A 
HETATM   25  F1  UNL     1      23.922  -0.483  52.712  1.00  0.00    -0.360 F 
HETATM   26  C17 UNL     1      24.890   0.576  52.375  1.00  0.00     0.229 A 
HETATM   27  C18 UNL     1      25.396   1.576  51.585  1.00  0.00     0.044 A 
ENDBRANCH   4  17
TORSDOF 7
ENDMDL
MODEL 8
REMARK VINA RESULT:      -6.9      4.164      8.277
REMARK  7 active torsions:
REMARK  status: ('A' for Active; 'I' for Inactive)
REMARK    1  A    between atoms: C2_2  and  N1_3 
REMARK    2  A    between atoms: N1_3  and  C3_4 
REMARK    3  A    between atoms: N1_3  and  C5_6 
REMARK    4  A    between atoms: C5_6  and  C6_7 
REMARK    5  A    between atoms: C6_7  and  N2_8 
REMARK       I    between atoms: N2_8  and  C7_9 
REMARK    6  A    between atoms: C7_9  and  C8_11 
REMARK    7  A    between atoms: C10_14  and  C11_15 
ROOT
HETATM    1  C8  UNL     1      25.723   3.424  50.310  1.00  0.00     0.038 A 
HETATM    2  C9  UNL     1      24.691   3.160  49.533  1.00  0.00     0.141 A 
HETATM    3  N3  UNL     1      24.151   2.555  50.758  1.00  0.00    -0.399 N 
HETATM    4  C10 UNL     1      25.323   2.838  51.581  1.00  0.00     0.144 A 
HETATM    5  H17 UNL     1      23.430   2.070  51.452  1.00  0.00     0.155 HD
ENDROOT
BRANCH   1   6
HETATM    6  C7  UNL     1      26.670   4.121  49.476  1.00  0.00     0.248 C 
HETATM    7  N2  UNL     1      26.187   5.511  49.519  1.00  0.00    -0.356 N 
HETATM    8  H15 UNL     1      25.335   5.912  50.046  1.00  0.00     0.162 HD
HETATM    9  O1  UNL     1      27.606   4.371  48.752  1.00  0.00    -0.268 OA
BRANCH   7  10
HETATM   10  C6  UNL     1      26.920   6.537  48.756  1.00  0.00     0.142 C 
BRANCH  10  11
HETATM   11  C5  UNL     1      26.831   7.841  49.475  1.00  0.00     0.136 C 
BRANCH  11  12
HETATM   12  N1  UNL     1      27.943   8.682  49.272  1.00  0.00    -0.412 N 
BRANCH  12  13
HETATM   13  C2  UNL     1      29.095   8.088  48.686  1.00  0.00     0.112 C 
HETATM   14  C1  UNL     1      30.396   8.719  49.114  1.00  0.00     0.026 C 
ENDBRANCH  12  13
BRANCH  12  15
HETATM   15  C3  UNL     1      27.748  10.026  48.917  1.00  0.00     0.112 C 
HETATM   16  C4  UNL     1      26.288  10.327  48.734  1.00  0.00     0.026 C 
ENDBRANCH  12  15
ENDBRANCH  11  12
ENDBRANCH  10  11
ENDBRANCH   7  10
ENDBRANCH   1   6
BRANCH   4  17
HETATM   17  C11 UNL     1      26.103   1.633  51.958  1.00  0.00    -0.044 A 
HETATM   18  C12 UNL     1      26.475   0.370  52.058  1.00  0.00     0.081 A 
HETATM   19  C13 UNL     1      27.084  -0.932  52.310  1.00  0.00     0.266 A 
HETATM   20  O2  UNL     1      26.468  -1.915  51.787  1.00  0.00    -0.266 OA
HETATM   21  N4  UNL     1      28.218  -0.785  53.081  1.00  0.00    -0.223 NA
HETATM   22  C14 UNL     1      29.071  -1.464  53.568  1.00  0.00     0.123 A 
HETATM   23  C15 UNL     1      29.637  -0.205  54.085  1.00  0.00     0.056 A 
HETATM   24  C16 UNL     1      29.410   1.152  54.085  1.00  0.00     0.086 A 
HETATM   25  F1  UNL     1      29.519   2.530  54.312  1.00  0.00    -0.360 F 
HETATM   26  C17 UNL     1      28.379   2.062  53.504  1.00  0.00     0.229 A 
HETATM   27  C18 UNL     1      27.233   2.238  52.770  1.00  0.00     0.044 A 
ENDBRANCH   4  17
TORSDOF 7
ENDMDL
MODEL 9
REMARK VINA RESULT:      -6.8      2.982      6.822
REMARK  7 active torsions:
REMARK  status: ('A' for Active; 'I' for Inactive)
REMARK    1  A    between atoms: C2_2  and  N1_3 
REMARK    2  A    between atoms: N1_3  and  C3_4 
REMARK    3  A    between atoms: N1_3  and  C5_6 
REMARK    4  A    between atoms: C5_6  and  C6_7 
REMARK    5  A    between atoms: C6_7  and  N2_8 
REMARK       I    between atoms: N2_8  and  C7_9 
REMARK    6  A    between atoms: C7_9  and  C8_11 
REMARK    7  A    between atoms: C10_14  and  C11_15 
ROOT
HETATM    1  C8  UNL     1      23.705   2.503  52.509  1.00  0.00     0.038 A 
HETATM    2  C9  UNL     1      23.334   2.222  51.275  1.00  0.00     0.141 A 
HETATM    3  N3  UNL     1      23.704   0.856  51.666  1.00  0.00    -0.399 N 
HETATM    4  C10 UNL     1      24.135   1.208  53.016  1.00  0.00     0.144 A 
HETATM    5  H17 UNL     1      23.827  -0.249  51.611  1.00  0.00     0.155 HD
ENDROOT
BRANCH   1   6
HETATM    6  C7  UNL     1      23.501   3.922  52.663  1.00  0.00     0.248 C 
HETATM    7  N2  UNL     1      22.476   4.220  51.649  1.00  0.00    -0.356 N 
HETATM    8  H15 UNL     1      21.993   3.544  50.961  1.00  0.00     0.162 HD
HETATM    9  O1  UNL     1      23.581   5.064  53.051  1.00  0.00    -0.268 OA
BRANCH   7  10
HETATM   10  C6  UNL     1      22.010   5.610  51.503  1.00  0.00     0.142 C 
BRANCH  10  11
HETATM   11  C5  UNL     1      22.061   5.997  50.063  1.00  0.00     0.136 C 
BRANCH  11  12
HETATM   12  N1  UNL     1      23.202   5.525  49.385  1.00  0.00    -0.412 N 
BRANCH  12  13
HETATM   13  C2  UNL     1      22.986   4.910  48.120  1.00  0.00     0.112 C 
HETATM   14  C1  UNL     1      22.482   5.853  47.057  1.00  0.00     0.026 C 
ENDBRANCH  12  13
BRANCH  12  15
HETATM   15  C3  UNL     1      24.413   6.229  49.479  1.00  0.00     0.112 C 
HETATM   16  C4  UNL     1      25.530   5.319  49.905  1.00  0.00     0.026 C 
ENDBRANCH  12  15
ENDBRANCH  11  12
ENDBRANCH  10  11
ENDBRANCH   7  10
ENDBRANCH   1   6
BRANCH   4  17
HETATM   17  C11 UNL     1      25.599   1.103  53.229  1.00  0.00    -0.044 A 
HETATM   18  C12 UNL     1      26.845   1.436  53.512  1.00  0.00     0.081 A 
HETATM   19  C13 UNL     1      28.275   1.555  53.775  1.00  0.00     0.266 A 
HETATM   20  O2  UNL     1      28.655   2.719  54.121  1.00  0.00    -0.266 OA
HETATM   21  N4  UNL     1      28.897   0.339  53.579  1.00  0.00    -0.223 NA
HETATM   22  C14 UNL     1      29.991  -0.134  53.643  1.00  0.00     0.123 A 
HETATM   23  C15 UNL     1      29.357  -1.400  53.236  1.00  0.00     0.056 A 
HETATM   24  C16 UNL     1      28.130  -1.930  52.913  1.00  0.00     0.086 A 
HETATM   25  F1  UNL     1      27.103  -2.806  52.538  1.00  0.00    -0.360 F 
HETATM   26  C17 UNL     1      26.734  -1.406  52.815  1.00  0.00     0.229 A 
HETATM   27  C18 UNL     1      25.851  -0.362  52.921  1.00  0.00     0.044 A 
ENDBRANCH   4  17
TORSDOF 7
ENDMDL
