MODEL 1
REMARK VINA RESULT:      -8.6      0.000      0.000
REMARK  3 active torsions:
REMARK  status: ('A' for Active; 'I' for Inactive)
REMARK    1  A    between atoms: C11_14  and  N3_15 
REMARK    2  A    between atoms: N3_15  and  C12_16 
REMARK    3  A    between atoms: C12_16  and  C13_17 
ROOT
HETATM    1  C1  UNL     1      21.529   0.952  48.782  1.00  0.00     0.018 C 
HETATM    2  C2  UNL     1      21.527   1.396  50.206  1.00  0.00    -0.013 C 
HETATM    3  C3  UNL     1      22.549   1.333  51.150  1.00  0.00     0.050 A 
HETATM    4  C4  UNL     1      21.794   0.242  51.893  1.00  0.00     0.049 C 
HETATM    5  C5  UNL     1      20.516   0.814  52.459  1.00  0.00     0.009 C 
HETATM    6  C6  UNL     1      20.391   2.125  52.162  1.00  0.00     0.073 C 
HETATM    7  C7  UNL     1      20.205   2.002  50.666  1.00  0.00     0.078 C 
HETATM    8  O1  UNL     1      20.375   3.443  52.681  1.00  0.00    -0.240 OA
HETATM    9  N1  UNL     1      21.443   4.293  52.368  1.00  0.00    -0.227 N 
HETATM   10  C8  UNL     1      22.427   3.551  51.667  1.00  0.00     0.246 A 
HETATM   11  N2  UNL     1      22.553   3.837  50.320  1.00  0.00    -0.224 NA
HETATM   12  C9  UNL     1      23.406   3.050  49.555  1.00  0.00     0.129 A 
HETATM   13  C10 UNL     1      23.629   2.398  50.731  1.00  0.00     0.003 A 
HETATM   14  C11 UNL     1      23.842   1.739  51.967  1.00  0.00     0.165 A 
HETATM   15  N4  UNL     1      22.942   2.628  52.598  1.00  0.00    -0.216 NA
HETATM   16  H9  UNL     1      21.193   5.237  52.716  1.00  0.00     0.198 HD
ENDROOT
BRANCH  14  17
HETATM   17  N3  UNL     1      24.745   0.665  52.078  1.00  0.00    -0.387 N 
HETATM   18  H11 UNL     1      25.160   0.447  51.165  1.00  0.00     0.156 HD
BRANCH  17  19
HETATM   19  C12 UNL     1      25.213  -0.183  53.133  1.00  0.00     0.155 C 
BRANCH  19  20
HETATM   20  C13 UNL     1      26.673   0.085  53.300  1.00  0.00    -0.038 A 
HETATM   21  C14 UNL     1      27.605  -0.959  53.270  1.00  0.00     0.009 A 
HETATM   22  C15 UNL     1      28.951  -0.706  53.427  1.00  0.00     0.004 A 
HETATM   23  C16 UNL     1      29.441   0.570  53.617  1.00  0.00     0.042 A 
HETATM   24  C17 UNL     1      28.494   1.604  53.642  1.00  0.00     0.117 A 
HETATM   25  F1  UNL     1      28.944   2.868  53.829  1.00  0.00    -0.206 F 
HETATM   26  C18 UNL     1      27.150   1.369  53.488  1.00  0.00     0.051 A 
ENDBRANCH  19  20
ENDBRANCH  17  19
ENDBRANCH  14  17
TORSDOF 3
ENDMDL
MODEL 2
REMARK VINA RESULT:      -8.5      1.246      1.478
REMARK  3 active torsions:
REMARK  status: ('A' for Active; 'I' for Inactive)
REMARK    1  A    between atoms: C11_14  and  N3_15 
REMARK    2  A    between atoms: N3_15  and  C12_16 
REMARK    3  A    between atoms: C12_16  and  C13_17 
ROOT
HETATM    1  C1  UNL     1      22.852   2.470  48.418  1.00  0.00     0.018 C 
HETATM    2  C2  UNL     1      22.770   2.720  49.887  1.00  0.00    -0.013 C 
HETATM    3  C3  UNL     1      23.601   2.263  50.906  1.00  0.00     0.050 A 
HETATM    4  C4  UNL     1      22.496   1.340  51.393  1.00  0.00     0.049 C 
HETATM    5  C5  UNL     1      21.344   2.169  51.911  1.00  0.00     0.009 C 
HETATM    6  C6  UNL     1      21.604   3.489  51.809  1.00  0.00     0.073 C 
HETATM    7  C7  UNL     1      21.599   3.605  50.301  1.00  0.00     0.078 C 
HETATM    8  O1  UNL     1      21.859   4.687  52.521  1.00  0.00    -0.240 OA
HETATM    9  N1  UNL     1      23.143   5.242  52.451  1.00  0.00    -0.227 N 
HETATM   10  C8  UNL     1      23.988   4.349  51.745  1.00  0.00     0.246 A 
HETATM   11  N2  UNL     1      24.366   4.752  50.477  1.00  0.00    -0.224 NA
HETATM   12  C9  UNL     1      25.084   3.859  49.688  1.00  0.00     0.129 A 
HETATM   13  C10 UNL     1      24.967   3.033  50.765  1.00  0.00     0.003 A 
HETATM   14  C11 UNL     1      24.831   2.195  51.900  1.00  0.00     0.165 A 
HETATM   15  N4  UNL     1      24.114   3.213  52.568  1.00  0.00    -0.216 NA
HETATM   16  H9  UNL     1      23.099   6.168  52.913  1.00  0.00     0.198 HD
ENDROOT
BRANCH  14  17
HETATM   17  N3  UNL     1      25.401   0.909  51.933  1.00  0.00    -0.387 N 
HETATM   18  H11 UNL     1      25.783   0.660  51.013  1.00  0.00     0.156 HD
BRANCH  17  19
HETATM   19  C12 UNL     1      25.574  -0.117  52.917  1.00  0.00     0.155 C 
BRANCH  19  20
HETATM   20  C13 UNL     1      27.032  -0.183  53.235  1.00  0.00    -0.038 A 
HETATM   21  C14 UNL     1      27.777  -1.338  52.967  1.00  0.00     0.009 A 
HETATM   22  C15 UNL     1      29.121  -1.394  53.265  1.00  0.00     0.004 A 
HETATM   23  C16 UNL     1      29.792  -0.331  53.834  1.00  0.00     0.042 A 
HETATM   24  C17 UNL     1      29.031   0.819  54.094  1.00  0.00     0.117 A 
HETATM   25  F1  UNL     1      29.661   1.879  54.655  1.00  0.00    -0.206 F 
HETATM   26  C18 UNL     1      27.691   0.891  53.804  1.00  0.00     0.051 A 
ENDBRANCH  19  20
ENDBRANCH  17  19
ENDBRANCH  14  17
TORSDOF 3
ENDMDL
MODEL 3
REMARK VINA RESULT:      -8.1      1.725      2.739
REMARK  3 active torsions:
REMARK  status: ('A' for Active; 'I' for Inactive)
REMARK    1  A    between atoms: C11_14  and  N3_15 
REMARK    2  A    between atoms: N3_15  and  C12_16 
REMARK    3  A    between atoms: C12_16  and  C13_17 
ROOT
HETATM    1  C1  UNL     1      20.681   3.025  52.398  1.00  0.00     0.018 C 
HETATM    2  C2  UNL     1      22.027   3.457  51.919  1.00  0.00    -0.013 C 
HETATM    3  C3  UNL     1      23.262   2.833  52.082  1.00  0.00     0.050 A 
HETATM    4  C4  UNL     1      23.685   3.923  53.053  1.00  0.00     0.049 C 
HETATM    5  C5  UNL     1      23.790   5.237  52.315  1.00  0.00     0.009 C 
HETATM    6  C6  UNL     1      23.491   5.091  51.007  1.00  0.00     0.073 C 
HETATM    7  C7  UNL     1      22.019   4.771  51.146  1.00  0.00     0.078 C 
HETATM    8  O1  UNL     1      23.995   5.120  49.684  1.00  0.00    -0.240 OA
HETATM    9  N1  UNL     1      24.080   3.913  48.978  1.00  0.00    -0.227 N 
HETATM   10  C8  UNL     1      23.743   2.849  49.852  1.00  0.00     0.246 A 
HETATM   11  N2  UNL     1      22.525   2.238  49.619  1.00  0.00    -0.224 NA
HETATM   12  C9  UNL     1      22.083   1.279  50.525  1.00  0.00     0.129 A 
HETATM   13  C10 UNL     1      23.253   1.552  51.167  1.00  0.00     0.003 A 
HETATM   14  C11 UNL     1      24.477   1.855  51.815  1.00  0.00     0.165 A 
HETATM   15  N4  UNL     1      24.778   2.799  50.807  1.00  0.00    -0.216 NA
HETATM   16  H9  UNL     1      24.336   4.148  48.002  1.00  0.00     0.198 HD
ENDROOT
BRANCH  14  17
HETATM   17  N3  UNL     1      24.871   1.184  52.987  1.00  0.00    -0.387 N 
HETATM   18  H11 UNL     1      24.878   1.828  53.787  1.00  0.00     0.156 HD
BRANCH  17  19
HETATM   19  C12 UNL     1      25.261  -0.151  53.329  1.00  0.00     0.155 C 
BRANCH  19  20
HETATM   20  C13 UNL     1      26.748  -0.155  53.468  1.00  0.00    -0.038 A 
HETATM   21  C14 UNL     1      27.505  -1.268  53.082  1.00  0.00     0.009 A 
HETATM   22  C15 UNL     1      28.877  -1.266  53.216  1.00  0.00     0.004 A 
HETATM   23  C16 UNL     1      29.563  -0.185  53.728  1.00  0.00     0.042 A 
HETATM   24  C17 UNL     1      28.790   0.922  54.108  1.00  0.00     0.117 A 
HETATM   25  F1  UNL     1      29.436   1.999  54.618  1.00  0.00    -0.206 F 
HETATM   26  C18 UNL     1      27.423   0.937  53.983  1.00  0.00     0.051 A 
ENDBRANCH  19  20
ENDBRANCH  17  19
ENDBRANCH  14  17
TORSDOF 3
ENDMDL
MODEL 4
REMARK VINA RESULT:      -8.0      1.654      2.479
REMARK  3 active torsions:
REMARK  status: ('A' for Active; 'I' for Inactive)
REMARK    1  A    between atoms: C11_14  and  N3_15 
REMARK    2  A    between atoms: N3_15  and  C12_16 
REMARK    3  A    between atoms: C12_16  and  C13_17 
ROOT
HETATM    1  C1  UNL     1      24.821   3.613  49.966  1.00  0.00     0.018 C 
HETATM    2  C2  UNL     1      23.398   3.229  50.200  1.00  0.00    -0.013 C 
HETATM    3  C3  UNL     1      22.873   2.287  51.081  1.00  0.00     0.050 A 
HETATM    4  C4  UNL     1      22.518   1.388  49.907  1.00  0.00     0.049 C 
HETATM    5  C5  UNL     1      21.454   2.057  49.070  1.00  0.00     0.009 C 
HETATM    6  C6  UNL     1      21.103   3.254  49.584  1.00  0.00     0.073 C 
HETATM    7  C7  UNL     1      22.399   3.995  49.338  1.00  0.00     0.078 C 
HETATM    8  O1  UNL     1      20.075   3.999  50.212  1.00  0.00    -0.240 OA
HETATM    9  N1  UNL     1      20.245   4.370  51.552  1.00  0.00    -0.227 N 
HETATM   10  C8  UNL     1      21.425   3.760  52.047  1.00  0.00     0.246 A 
HETATM   11  N2  UNL     1      22.493   4.609  52.274  1.00  0.00    -0.224 NA
HETATM   12  C9  UNL     1      23.715   4.051  52.632  1.00  0.00     0.129 A 
HETATM   13  C10 UNL     1      23.044   2.870  52.533  1.00  0.00     0.003 A 
HETATM   14  C11 UNL     1      22.322   1.655  52.422  1.00  0.00     0.165 A 
HETATM   15  N4  UNL     1      21.159   2.377  52.070  1.00  0.00    -0.216 NA
HETATM   16  H9  UNL     1      19.468   5.012  51.791  1.00  0.00     0.198 HD
ENDROOT
BRANCH  14  17
HETATM   17  N3  UNL     1      22.927   0.415  52.700  1.00  0.00    -0.387 N 
HETATM   18  H11 UNL     1      22.860  -0.209  51.887  1.00  0.00     0.156 HD
BRANCH  17  19
HETATM   19  C12 UNL     1      23.597  -0.177  53.819  1.00  0.00     0.155 C 
BRANCH  19  20
HETATM   20  C13 UNL     1      25.064  -0.043  53.576  1.00  0.00    -0.038 A 
HETATM   21  C14 UNL     1      25.565   0.165  52.285  1.00  0.00     0.009 A 
HETATM   22  C15 UNL     1      26.920   0.285  52.066  1.00  0.00     0.004 A 
HETATM   23  C16 UNL     1      27.839   0.209  53.092  1.00  0.00     0.042 A 
HETATM   24  C17 UNL     1      27.321   0.003  54.379  1.00  0.00     0.117 A 
HETATM   25  F1  UNL     1      28.199  -0.079  55.408  1.00  0.00    -0.206 F 
HETATM   26  C18 UNL     1      25.974  -0.120  54.615  1.00  0.00     0.051 A 
ENDBRANCH  19  20
ENDBRANCH  17  19
ENDBRANCH  14  17
TORSDOF 3
ENDMDL
MODEL 5
REMARK VINA RESULT:      -8.0      2.978      4.686
REMARK  3 active torsions:
REMARK  status: ('A' for Active; 'I' for Inactive)
REMARK    1  A    between atoms: C11_14  and  N3_15 
REMARK    2  A    between atoms: N3_15  and  C12_16 
REMARK    3  A    between atoms: C12_16  and  C13_17 
ROOT
HETATM    1  C1  UNL     1      26.133   3.210  50.778  1.00  0.00     0.018 C 
HETATM    2  C2  UNL     1      24.792   3.786  50.469  1.00  0.00    -0.013 C 
HETATM    3  C3  UNL     1      23.538   3.186  50.541  1.00  0.00     0.050 A 
HETATM    4  C4  UNL     1      23.455   3.176  49.023  1.00  0.00     0.049 C 
HETATM    5  C5  UNL     1      23.390   4.598  48.517  1.00  0.00     0.009 C 
HETATM    6  C6  UNL     1      23.416   5.484  49.535  1.00  0.00     0.073 C 
HETATM    7  C7  UNL     1      24.831   5.240  50.010  1.00  0.00     0.078 C 
HETATM    8  O1  UNL     1      22.680   6.457  50.254  1.00  0.00    -0.240 OA
HETATM    9  N1  UNL     1      22.304   6.167  51.572  1.00  0.00    -0.227 N 
HETATM   10  C8  UNL     1      22.653   4.823  51.860  1.00  0.00     0.246 A 
HETATM   11  N2  UNL     1      23.712   4.648  52.730  1.00  0.00    -0.224 NA
HETATM   12  C9  UNL     1      24.183   3.357  52.945  1.00  0.00     0.129 A 
HETATM   13  C10 UNL     1      23.202   3.005  52.068  1.00  0.00     0.003 A 
HETATM   14  C11 UNL     1      22.174   2.667  51.153  1.00  0.00     0.165 A 
HETATM   15  N4  UNL     1      21.819   4.031  51.047  1.00  0.00    -0.216 NA
HETATM   16  H9  UNL     1      21.902   7.034  51.971  1.00  0.00     0.198 HD
ENDROOT
BRANCH  14  17
HETATM   17  N3  UNL     1      21.920   1.329  50.798  1.00  0.00    -0.387 N 
HETATM   18  H11 UNL     1      22.516   1.046  50.011  1.00  0.00     0.156 HD
BRANCH  17  19
HETATM   19  C12 UNL     1      21.049   0.288  51.255  1.00  0.00     0.155 C 
BRANCH  19  20
HETATM   20  C13 UNL     1      21.608  -0.219  52.544  1.00  0.00    -0.038 A 
HETATM   21  C14 UNL     1      20.764  -0.622  53.587  1.00  0.00     0.009 A 
HETATM   22  C15 UNL     1      21.285  -1.087  54.775  1.00  0.00     0.004 A 
HETATM   23  C16 UNL     1      22.644  -1.178  54.995  1.00  0.00     0.042 A 
HETATM   24  C17 UNL     1      23.475  -0.773  53.940  1.00  0.00     0.117 A 
HETATM   25  F1  UNL     1      24.815  -0.848  54.127  1.00  0.00    -0.206 F 
HETATM   26  C18 UNL     1      22.973  -0.306  52.751  1.00  0.00     0.051 A 
ENDBRANCH  19  20
ENDBRANCH  17  19
ENDBRANCH  14  17
TORSDOF 3
ENDMDL
MODEL 6
REMARK VINA RESULT:      -7.7      1.704      2.665
REMARK  3 active torsions:
REMARK  status: ('A' for Active; 'I' for Inactive)
REMARK    1  A    between atoms: C11_14  and  N3_15 
REMARK    2  A    between atoms: N3_15  and  C12_16 
REMARK    3  A    between atoms: C12_16  and  C13_17 
ROOT
HETATM    1  C1  UNL     1      21.554   1.291  52.360  1.00  0.00     0.018 C 
HETATM    2  C2  UNL     1      22.095   2.630  51.981  1.00  0.00    -0.013 C 
HETATM    3  C3  UNL     1      23.300   2.949  51.360  1.00  0.00     0.050 A 
HETATM    4  C4  UNL     1      23.815   3.539  52.663  1.00  0.00     0.049 C 
HETATM    5  C5  UNL     1      23.001   4.762  53.014  1.00  0.00     0.009 C 
HETATM    6  C6  UNL     1      22.051   5.003  52.087  1.00  0.00     0.073 C 
HETATM    7  C7  UNL     1      21.177   3.794  52.338  1.00  0.00     0.078 C 
HETATM    8  O1  UNL     1      21.615   5.880  51.064  1.00  0.00    -0.240 OA
HETATM    9  N1  UNL     1      21.665   5.432  49.737  1.00  0.00    -0.227 N 
HETATM   10  C8  UNL     1      22.309   4.169  49.707  1.00  0.00     0.246 A 
HETATM   11  N2  UNL     1      21.495   3.083  49.440  1.00  0.00    -0.224 NA
HETATM   12  C9  UNL     1      22.045   1.809  49.529  1.00  0.00     0.129 A 
HETATM   13  C10 UNL     1      23.184   2.478  49.862  1.00  0.00     0.003 A 
HETATM   14  C11 UNL     1      24.354   3.199  50.207  1.00  0.00     0.165 A 
HETATM   15  N4  UNL     1      23.647   4.415  50.072  1.00  0.00    -0.216 NA
HETATM   16  H9  UNL     1      21.187   6.145  49.157  1.00  0.00     0.198 HD
ENDROOT
BRANCH  14  17
HETATM   17  N3  UNL     1      25.571   2.540  50.464  1.00  0.00    -0.387 N 
HETATM   18  H11 UNL     1      25.563   1.596  50.058  1.00  0.00     0.156 HD
BRANCH  17  19
HETATM   19  C12 UNL     1      26.792   2.857  51.142  1.00  0.00     0.155 C 
BRANCH  19  20
HETATM   20  C13 UNL     1      27.078   1.735  52.084  1.00  0.00    -0.038 A 
HETATM   21  C14 UNL     1      26.423   0.503  51.958  1.00  0.00     0.009 A 
HETATM   22  C15 UNL     1      26.688  -0.528  52.833  1.00  0.00     0.004 A 
HETATM   23  C16 UNL     1      27.600  -0.403  53.861  1.00  0.00     0.042 A 
HETATM   24  C17 UNL     1      28.249   0.836  53.971  1.00  0.00     0.117 A 
HETATM   25  F1  UNL     1      29.148   0.991  54.973  1.00  0.00    -0.206 F 
HETATM   26  C18 UNL     1      27.995   1.874  53.110  1.00  0.00     0.051 A 
ENDBRANCH  19  20
ENDBRANCH  17  19
ENDBRANCH  14  17
TORSDOF 3
ENDMDL
MODEL 7
REMARK VINA RESULT:      -7.6      2.095      3.148
REMARK  3 active torsions:
REMARK  status: ('A' for Active; 'I' for Inactive)
REMARK    1  A    between atoms: C11_14  and  N3_15 
REMARK    2  A    between atoms: N3_15  and  C12_16 
REMARK    3  A    between atoms: C12_16  and  C13_17 
ROOT
HETATM    1  C1  UNL     1      21.617   5.380  49.624  1.00  0.00     0.018 C 
HETATM    2  C2  UNL     1      21.785   3.898  49.667  1.00  0.00    -0.013 C 
HETATM    3  C3  UNL     1      22.908   3.148  50.006  1.00  0.00     0.050 A 
HETATM    4  C4  UNL     1      23.073   2.737  48.552  1.00  0.00     0.049 C 
HETATM    5  C5  UNL     1      21.903   1.876  48.140  1.00  0.00     0.009 C 
HETATM    6  C6  UNL     1      21.039   1.699  49.161  1.00  0.00     0.073 C 
HETATM    7  C7  UNL     1      20.532   3.120  49.277  1.00  0.00     0.078 C 
HETATM    8  O1  UNL     1      20.489   0.769  50.077  1.00  0.00    -0.240 OA
HETATM    9  N1  UNL     1      20.822   0.893  51.432  1.00  0.00    -0.227 N 
HETATM   10  C8  UNL     1      21.805   1.906  51.569  1.00  0.00     0.246 A 
HETATM   11  N2  UNL     1      21.379   3.084  52.155  1.00  0.00    -0.224 NA
HETATM   12  C9  UNL     1      22.262   4.157  52.195  1.00  0.00     0.129 A 
HETATM   13  C10 UNL     1      23.110   3.301  51.560  1.00  0.00     0.003 A 
HETATM   14  C11 UNL     1      23.971   2.390  50.899  1.00  0.00     0.165 A 
HETATM   15  N4  UNL     1      22.961   1.402  50.941  1.00  0.00    -0.216 NA
HETATM   16  H9  UNL     1      20.228   0.223  51.953  1.00  0.00     0.198 HD
ENDROOT
BRANCH  14  17
HETATM   17  N3  UNL     1      25.289   2.745  50.554  1.00  0.00    -0.387 N 
HETATM   18  H11 UNL     1      25.321   3.128  49.602  1.00  0.00     0.156 HD
BRANCH  17  19
HETATM   19  C12 UNL     1      26.569   2.701  51.194  1.00  0.00     0.155 C 
BRANCH  19  20
HETATM   20  C13 UNL     1      26.534   1.575  52.175  1.00  0.00    -0.038 A 
HETATM   21  C14 UNL     1      26.412   1.819  53.548  1.00  0.00     0.009 A 
HETATM   22  C15 UNL     1      26.382   0.776  54.449  1.00  0.00     0.004 A 
HETATM   23  C16 UNL     1      26.469  -0.542  54.048  1.00  0.00     0.042 A 
HETATM   24  C17 UNL     1      26.589  -0.768  52.670  1.00  0.00     0.117 A 
HETATM   25  F1  UNL     1      26.680  -2.053  52.245  1.00  0.00    -0.206 F 
HETATM   26  C18 UNL     1      26.621   0.259  51.759  1.00  0.00     0.051 A 
ENDBRANCH  19  20
ENDBRANCH  17  19
ENDBRANCH  14  17
TORSDOF 3
ENDMDL
MODEL 8
REMARK VINA RESULT:      -7.5      8.741     10.127
REMARK  3 active torsions:
REMARK  status: ('A' for Active; 'I' for Inactive)
REMARK    1  A    between atoms: C11_14  and  N3_15 
REMARK    2  A    between atoms: N3_15  and  C12_16 
REMARK    3  A    between atoms: C12_16  and  C13_17 
ROOT
HETATM    1  C1  UNL     1      28.784   8.551  45.124  1.00  0.00     0.018 C 
HETATM    2  C2  UNL     1      28.840   8.246  46.584  1.00  0.00    -0.013 C 
HETATM    3  C3  UNL     1      29.948   7.991  47.389  1.00  0.00     0.050 A 
HETATM    4  C4  UNL     1      29.536   6.532  47.494  1.00  0.00     0.049 C 
HETATM    5  C5  UNL     1      28.233   6.433  48.251  1.00  0.00     0.009 C 
HETATM    6  C6  UNL     1      27.792   7.651  48.632  1.00  0.00     0.073 C 
HETATM    7  C7  UNL     1      27.476   8.215  47.265  1.00  0.00     0.078 C 
HETATM    8  O1  UNL     1      27.546   8.512  49.729  1.00  0.00    -0.240 OA
HETATM    9  N1  UNL     1      28.362   9.640  49.886  1.00  0.00    -0.227 N 
HETATM   10  C8  UNL     1      29.402   9.588  48.923  1.00  0.00     0.246 A 
HETATM   11  N2  UNL     1      29.314  10.503  47.890  1.00  0.00    -0.224 NA
HETATM   12  C9  UNL     1      30.231  10.411  46.848  1.00  0.00     0.129 A 
HETATM   13  C10 UNL     1      30.717   9.354  47.557  1.00  0.00     0.003 A 
HETATM   14  C11 UNL     1      31.202   8.259  48.315  1.00  0.00     0.165 A 
HETATM   15  N4  UNL     1      30.204   8.490  49.289  1.00  0.00    -0.216 NA
HETATM   16  H9  UNL     1      27.951  10.209  50.647  1.00  0.00     0.198 HD
ENDROOT
BRANCH  14  17
HETATM   17  N3  UNL     1      32.325   7.519  47.898  1.00  0.00    -0.387 N 
HETATM   18  H11 UNL     1      32.394   7.517  46.873  1.00  0.00     0.156 HD
BRANCH  17  19
HETATM   19  C12 UNL     1      33.371   6.782  48.541  1.00  0.00     0.155 C 
BRANCH  19  20
HETATM   20  C13 UNL     1      33.462   5.458  47.857  1.00  0.00    -0.038 A 
HETATM   21  C14 UNL     1      32.488   4.473  48.060  1.00  0.00     0.009 A 
HETATM   22  C15 UNL     1      32.579   3.251  47.428  1.00  0.00     0.004 A 
HETATM   23  C16 UNL     1      33.619   2.943  46.574  1.00  0.00     0.042 A 
HETATM   24  C17 UNL     1      34.584   3.941  46.381  1.00  0.00     0.117 A 
HETATM   25  F1  UNL     1      35.619   3.666  45.550  1.00  0.00    -0.206 F 
HETATM   26  C18 UNL     1      34.509   5.162  47.003  1.00  0.00     0.051 A 
ENDBRANCH  19  20
ENDBRANCH  17  19
ENDBRANCH  14  17
TORSDOF 3
ENDMDL
MODEL 9
REMARK VINA RESULT:      -7.4      3.564      4.933
REMARK  3 active torsions:
REMARK  status: ('A' for Active; 'I' for Inactive)
REMARK    1  A    between atoms: C11_14  and  N3_15 
REMARK    2  A    between atoms: N3_15  and  C12_16 
REMARK    3  A    between atoms: C12_16  and  C13_17 
ROOT
HETATM    1  C1  UNL     1      20.678   4.724  49.140  1.00  0.00     0.018 C 
HETATM    2  C2  UNL     1      21.238   3.404  49.553  1.00  0.00    -0.013 C 
HETATM    3  C3  UNL     1      22.569   3.015  49.686  1.00  0.00     0.050 A 
HETATM    4  C4  UNL     1      22.434   2.136  48.452  1.00  0.00     0.049 C 
HETATM    5  C5  UNL     1      21.468   1.012  48.742  1.00  0.00     0.009 C 
HETATM    6  C6  UNL     1      20.994   1.084  50.004  1.00  0.00     0.073 C 
HETATM    7  C7  UNL     1      20.180   2.352  49.868  1.00  0.00     0.078 C 
HETATM    8  O1  UNL     1      20.982   0.475  51.283  1.00  0.00    -0.240 OA
HETATM    9  N1  UNL     1      21.627   1.132  52.339  1.00  0.00    -0.227 N 
HETATM   10  C8  UNL     1      22.304   2.267  51.824  1.00  0.00     0.246 A 
HETATM   11  N2  UNL     1      21.758   3.495  52.150  1.00  0.00    -0.224 NA
HETATM   12  C9  UNL     1      22.301   4.634  51.565  1.00  0.00     0.129 A 
HETATM   13  C10 UNL     1      23.138   3.750  50.955  1.00  0.00     0.003 A 
HETATM   14  C11 UNL     1      23.997   2.808  50.335  1.00  0.00     0.165 A 
HETATM   15  N4  UNL     1      23.336   1.758  51.011  1.00  0.00    -0.216 NA
HETATM   16  H9  UNL     1      21.397   0.613  53.205  1.00  0.00     0.198 HD
ENDROOT
BRANCH  14  17
HETATM   17  N3  UNL     1      25.027   3.216  49.466  1.00  0.00    -0.387 N 
HETATM   18  H11 UNL     1      24.653   3.409  48.529  1.00  0.00     0.156 HD
BRANCH  17  19
HETATM   19  C12 UNL     1      26.440   3.421  49.569  1.00  0.00     0.155 C 
BRANCH  19  20
HETATM   20  C13 UNL     1      26.733   4.770  48.999  1.00  0.00    -0.038 A 
HETATM   21  C14 UNL     1      28.014   5.096  48.538  1.00  0.00     0.009 A 
HETATM   22  C15 UNL     1      28.279   6.343  48.015  1.00  0.00     0.004 A 
HETATM   23  C16 UNL     1      27.309   7.320  47.921  1.00  0.00     0.042 A 
HETATM   24  C17 UNL     1      26.031   6.977  48.385  1.00  0.00     0.117 A 
HETATM   25  F1  UNL     1      25.058   7.917  48.308  1.00  0.00    -0.206 F 
HETATM   26  C18 UNL     1      25.751   5.740  48.909  1.00  0.00     0.051 A 
ENDBRANCH  19  20
ENDBRANCH  17  19
ENDBRANCH  14  17
TORSDOF 3
ENDMDL
