MODEL 1
REMARK VINA RESULT:      -8.5      0.000      0.000
REMARK  4 active torsions:
REMARK  status: ('A' for Active; 'I' for Inactive)
REMARK    1  A    between atoms: C7_11  and  N4_12 
REMARK    2  A    between atoms: N4_12  and  C8_13 
REMARK    3  A    between atoms: C15_22  and  C16_23 
REMARK    4  A    between atoms: C16_23  and  N6_24 
ROOT
HETATM    1  O1  UNL     1      19.429   3.383  52.221  1.00  0.00    -0.273 OA
HETATM    2  C1  UNL     1      19.914   2.247  52.032  1.00  0.00     0.225 C 
HETATM    3  N1  UNL     1      21.439   2.036  52.235  1.00  0.00    -0.348 N 
HETATM    4  C2  UNL     1      22.242   1.322  50.942  1.00  0.00     0.071 A 
HETATM    5  C3  UNL     1      21.235   1.221  50.121  1.00  0.00     0.044 A 
HETATM    6  C4  UNL     1      21.176   0.400  51.289  1.00  0.00     0.069 A 
HETATM    7  C5  UNL     1      21.695  -0.067  52.416  1.00  0.00     0.136 A 
HETATM    8  N2  UNL     1      21.038  -0.972  53.341  1.00  0.00    -0.226 NA
HETATM    9  C6  UNL     1      21.845  -1.305  54.332  1.00  0.00     0.254 A 
HETATM   10  N3  UNL     1      23.187  -0.918  54.594  1.00  0.00    -0.057 NA
HETATM   11  C7  UNL     1      23.850  -0.124  53.841  1.00  0.00     0.709 A 
HETATM   12  N5  UNL     1      23.114   0.289  52.777  1.00  0.00    -0.165 N 
HETATM   13  C14 UNL     1      23.578   1.288  51.710  1.00  0.00     0.181 C 
HETATM   14  C15 UNL     1      19.705   0.682  51.625  1.00  0.00     0.125 C 
HETATM   15  H1  UNL     1      21.738   2.498  53.262  1.00  0.00     0.163 HD
ENDROOT
BRANCH  11  16
HETATM   16  N4  UNL     1      25.147   0.398  53.879  1.00  0.00    -0.190 N 
HETATM   17  H4  UNL     1      25.268   1.376  54.197  1.00  0.00     0.184 HD
BRANCH  16  18
HETATM   18  C8  UNL     1      26.167  -0.490  53.475  1.00  0.00     0.050 A 
HETATM   19  C9  UNL     1      26.130  -1.706  52.859  1.00  0.00     0.030 A 
HETATM   20  C10 UNL     1      27.240  -2.443  52.517  1.00  0.00     0.004 A 
HETATM   21  C11 UNL     1      28.484  -1.934  52.811  1.00  0.00     0.019 A 
HETATM   22  C12 UNL     1      28.574  -0.709  53.433  1.00  0.00     0.013 A 
HETATM   23 BR1  UNL     1      30.320  -0.058  53.812  1.00  0.00    -0.051 Br
HETATM   24  C13 UNL     1      27.430  -0.011  53.754  1.00  0.00     0.049 A 
ENDBRANCH  16  18
ENDBRANCH  11  16
BRANCH  14  25
HETATM   25  C16 UNL     1      18.728   0.657  50.559  1.00  0.00     0.287 C 
BRANCH  25  26
HETATM   26  N6  UNL     1      17.520  -0.111  50.796  1.00  0.00     0.089 N 
HETATM   27  C17 UNL     1      16.373   0.639  50.434  1.00  0.00     0.272 C 
HETATM   28  C18 UNL     1      15.927   1.423  51.649  1.00  0.00     0.030 C 
HETATM   29  C19 UNL     1      15.310   0.390  52.565  1.00  0.00     0.003 C 
HETATM   30  C20 UNL     1      16.194  -0.805  52.762  1.00  0.00     0.030 C 
HETATM   31  C21 UNL     1      17.512  -0.733  52.075  1.00  0.00     0.272 C 
ENDBRANCH  25  26
ENDBRANCH  14  25
TORSDOF 4
ENDMDL
MODEL 2
REMARK VINA RESULT:      -8.1      3.608      8.791
REMARK  4 active torsions:
REMARK  status: ('A' for Active; 'I' for Inactive)
REMARK    1  A    between atoms: C7_11  and  N4_12 
REMARK    2  A    between atoms: N4_12  and  C8_13 
REMARK    3  A    between atoms: C15_22  and  C16_23 
REMARK    4  A    between atoms: C16_23  and  N6_24 
ROOT
HETATM    1  O1  UNL     1      26.788   1.972  50.785  1.00  0.00    -0.273 OA
HETATM    2  C1  UNL     1      25.900   1.786  51.644  1.00  0.00     0.225 C 
HETATM    3  N1  UNL     1      24.490   2.393  51.415  1.00  0.00    -0.348 N 
HETATM    4  C2  UNL     1      23.894   3.323  52.683  1.00  0.00     0.071 A 
HETATM    5  C3  UNL     1      24.924   3.248  53.477  1.00  0.00     0.044 A 
HETATM    6  C4  UNL     1      24.208   2.031  53.267  1.00  0.00     0.069 A 
HETATM    7  C5  UNL     1      23.203   1.343  52.741  1.00  0.00     0.136 A 
HETATM    8  N2  UNL     1      23.009  -0.092  52.852  1.00  0.00    -0.226 NA
HETATM    9  C6  UNL     1      21.878  -0.462  52.279  1.00  0.00     0.254 A 
HETATM   10  N3  UNL     1      20.890   0.310  51.613  1.00  0.00    -0.057 NA
HETATM   11  C7  UNL     1      20.970   1.578  51.463  1.00  0.00     0.709 A 
HETATM   12  N5  UNL     1      22.105   2.077  52.017  1.00  0.00    -0.165 N 
HETATM   13  C14 UNL     1      22.547   3.545  51.968  1.00  0.00     0.181 C 
HETATM   14  C15 UNL     1      25.439   1.137  53.067  1.00  0.00     0.125 C 
HETATM   15  H1  UNL     1      24.148   2.123  50.334  1.00  0.00     0.163 HD
ENDROOT
BRANCH  11  16
HETATM   16  N4  UNL     1      20.154   2.541  50.862  1.00  0.00    -0.190 N 
HETATM   17  H4  UNL     1      20.592   3.429  50.558  1.00  0.00     0.184 HD
BRANCH  16  18
HETATM   18  C8  UNL     1      18.794   2.183  50.731  1.00  0.00     0.050 A 
HETATM   19  C9  UNL     1      18.172   1.200  50.019  1.00  0.00     0.030 A 
HETATM   20  C10 UNL     1      16.814   0.978  50.016  1.00  0.00     0.004 A 
HETATM   21  C11 UNL     1      16.012   1.796  50.779  1.00  0.00     0.019 A 
HETATM   22  C12 UNL     1      16.593   2.802  51.516  1.00  0.00     0.013 A 
HETATM   23 BR1  UNL     1      15.432   3.897  52.550  1.00  0.00    -0.051 Br
HETATM   24  C13 UNL     1      17.959   2.983  51.484  1.00  0.00     0.049 A 
ENDBRANCH  16  18
ENDBRANCH  11  16
BRANCH  14  25
HETATM   25  C16 UNL     1      26.559   1.279  53.971  1.00  0.00     0.287 C 
BRANCH  25  26
HETATM   26  N6  UNL     1      27.272   0.066  54.325  1.00  0.00     0.089 N 
HETATM   27  C17 UNL     1      28.535   0.378  54.891  1.00  0.00     0.272 C 
HETATM   28  C18 UNL     1      29.543   0.457  53.765  1.00  0.00     0.030 C 
HETATM   29  C19 UNL     1      29.767  -0.980  53.351  1.00  0.00     0.003 C 
HETATM   30  C20 UNL     1      28.482  -1.718  53.119  1.00  0.00     0.030 C 
HETATM   31  C21 UNL     1      27.249  -0.904  53.286  1.00  0.00     0.272 C 
ENDBRANCH  25  26
ENDBRANCH  14  25
TORSDOF 4
ENDMDL
MODEL 3
REMARK VINA RESULT:      -8.1      4.351      5.959
REMARK  4 active torsions:
REMARK  status: ('A' for Active; 'I' for Inactive)
REMARK    1  A    between atoms: C7_11  and  N4_12 
REMARK    2  A    between atoms: N4_12  and  C8_13 
REMARK    3  A    between atoms: C15_22  and  C16_23 
REMARK    4  A    between atoms: C16_23  and  N6_24 
ROOT
HETATM    1  O1  UNL     1      20.954   4.654  51.935  1.00  0.00    -0.273 OA
HETATM    2  C1  UNL     1      21.692   3.664  51.747  1.00  0.00     0.225 C 
HETATM    3  N1  UNL     1      22.813   3.751  50.676  1.00  0.00    -0.348 N 
HETATM    4  C2  UNL     1      22.819   2.511  49.541  1.00  0.00     0.071 A 
HETATM    5  C3  UNL     1      21.764   1.867  49.954  1.00  0.00     0.044 A 
HETATM    6  C4  UNL     1      22.891   1.851  50.832  1.00  0.00     0.069 A 
HETATM    7  C5  UNL     1      24.147   2.158  51.127  1.00  0.00     0.136 A 
HETATM    8  N2  UNL     1      24.814   1.879  52.385  1.00  0.00    -0.226 NA
HETATM    9  C6  UNL     1      26.083   2.245  52.340  1.00  0.00     0.254 A 
HETATM   10  N3  UNL     1      26.830   2.839  51.288  1.00  0.00    -0.057 NA
HETATM   11  C7  UNL     1      26.332   3.125  50.145  1.00  0.00     0.709 A 
HETATM   12  N5  UNL     1      25.018   2.790  50.073  1.00  0.00    -0.165 N 
HETATM   13  C14 UNL     1      24.100   3.047  48.871  1.00  0.00     0.181 C 
HETATM   14  C15 UNL     1      22.108   2.132  52.122  1.00  0.00     0.125 C 
HETATM   15  H1  UNL     1      23.405   4.741  50.847  1.00  0.00     0.163 HD
ENDROOT
BRANCH  11  16
HETATM   16  N4  UNL     1      26.843   3.698  48.976  1.00  0.00    -0.190 N 
HETATM   17  H4  UNL     1      27.096   3.066  48.195  1.00  0.00     0.184 HD
BRANCH  16  18
HETATM   18  C8  UNL     1      26.953   5.106  48.990  1.00  0.00     0.050 A 
HETATM   19  C9  UNL     1      26.152   6.080  49.510  1.00  0.00     0.030 A 
HETATM   20  C10 UNL     1      26.421   7.428  49.448  1.00  0.00     0.004 A 
HETATM   21  C11 UNL     1      27.574   7.840  48.821  1.00  0.00     0.019 A 
HETATM   22  C12 UNL     1      28.415   6.894  48.281  1.00  0.00     0.013 A 
HETATM   23 BR1  UNL     1      29.994   7.527  47.429  1.00  0.00    -0.051 Br
HETATM   24  C13 UNL     1      28.099   5.555  48.370  1.00  0.00     0.049 A 
ENDBRANCH  16  18
ENDBRANCH  11  16
BRANCH  14  25
HETATM   25  C16 UNL     1      20.875   1.414  52.362  1.00  0.00     0.287 C 
BRANCH  25  26
HETATM   26  N6  UNL     1      20.795   0.644  53.588  1.00  0.00     0.089 N 
HETATM   27  C17 UNL     1      22.093   0.356  54.082  1.00  0.00     0.272 C 
HETATM   28  C18 UNL     1      22.543  -0.953  53.472  1.00  0.00     0.030 C 
HETATM   29  C19 UNL     1      21.729  -2.008  54.188  1.00  0.00     0.003 C 
HETATM   30  C20 UNL     1      20.265  -1.688  54.209  1.00  0.00     0.030 C 
HETATM   31  C21 UNL     1      19.882  -0.442  53.492  1.00  0.00     0.272 C 
ENDBRANCH  25  26
ENDBRANCH  14  25
TORSDOF 4
ENDMDL
MODEL 4
REMARK VINA RESULT:      -8.0      5.044      7.487
REMARK  4 active torsions:
REMARK  status: ('A' for Active; 'I' for Inactive)
REMARK    1  A    between atoms: C7_11  and  N4_12 
REMARK    2  A    between atoms: N4_12  and  C8_13 
REMARK    3  A    between atoms: C15_22  and  C16_23 
REMARK    4  A    between atoms: C16_23  and  N6_24 
ROOT
HETATM    1  O1  UNL     1      27.115   2.389  51.800  1.00  0.00    -0.273 OA
HETATM    2  C1  UNL     1      25.878   2.485  51.654  1.00  0.00     0.225 C 
HETATM    3  N1  UNL     1      25.275   3.844  51.209  1.00  0.00    -0.348 N 
HETATM    4  C2  UNL     1      24.038   4.434  52.183  1.00  0.00     0.071 A 
HETATM    5  C3  UNL     1      24.035   3.492  53.083  1.00  0.00     0.044 A 
HETATM    6  C4  UNL     1      23.608   3.109  51.774  1.00  0.00     0.069 A 
HETATM    7  C5  UNL     1      23.319   3.390  50.511  1.00  0.00     0.136 A 
HETATM    8  N2  UNL     1      22.932   2.427  49.496  1.00  0.00    -0.226 NA
HETATM    9  C6  UNL     1      22.643   3.030  48.357  1.00  0.00     0.254 A 
HETATM   10  N3  UNL     1      22.660   4.410  48.018  1.00  0.00    -0.057 NA
HETATM   11  C7  UNL     1      22.988   5.333  48.841  1.00  0.00     0.709 A 
HETATM   12  N5  UNL     1      23.310   4.827  50.059  1.00  0.00    -0.165 N 
HETATM   13  C14 UNL     1      23.803   5.645  51.258  1.00  0.00     0.181 C 
HETATM   14  C15 UNL     1      24.401   1.796  51.710  1.00  0.00     0.125 C 
HETATM   15  H1  UNL     1      25.878   4.227  50.287  1.00  0.00     0.163 HD
ENDROOT
BRANCH  11  16
HETATM   16  N4  UNL     1      23.082   6.725  48.754  1.00  0.00    -0.190 N 
HETATM   17  H4  UNL     1      22.472   7.293  49.370  1.00  0.00     0.184 HD
BRANCH  16  18
HETATM   18  C8  UNL     1      24.022   7.210  47.820  1.00  0.00     0.050 A 
HETATM   19  C9  UNL     1      23.882   7.718  46.561  1.00  0.00     0.030 A 
HETATM   20  C10 UNL     1      24.922   8.167  45.780  1.00  0.00     0.004 A 
HETATM   21  C11 UNL     1      26.200   8.107  46.288  1.00  0.00     0.019 A 
HETATM   22  C12 UNL     1      26.393   7.603  47.554  1.00  0.00     0.013 A 
HETATM   23 BR1  UNL     1      28.181   7.547  48.199  1.00  0.00    -0.051 Br
HETATM   24  C13 UNL     1      25.316   7.165  48.295  1.00  0.00     0.049 A 
ENDBRANCH  16  18
ENDBRANCH  11  16
BRANCH  14  25
HETATM   25  C16 UNL     1      24.395   0.919  52.860  1.00  0.00     0.287 C 
BRANCH  25  26
HETATM   26  N6  UNL     1      23.444  -0.176  52.843  1.00  0.00     0.089 N 
HETATM   27  C17 UNL     1      22.200   0.253  52.315  1.00  0.00     0.272 C 
HETATM   28  C18 UNL     1      21.357   0.763  53.464  1.00  0.00     0.030 C 
HETATM   29  C19 UNL     1      20.932  -0.484  54.208  1.00  0.00     0.003 C 
HETATM   30  C20 UNL     1      22.085  -1.395  54.507  1.00  0.00     0.030 C 
HETATM   31  C21 UNL     1      23.415  -0.893  54.070  1.00  0.00     0.272 C 
ENDBRANCH  25  26
ENDBRANCH  14  25
TORSDOF 4
ENDMDL
MODEL 5
REMARK VINA RESULT:      -8.0     11.009     12.799
REMARK  4 active torsions:
REMARK  status: ('A' for Active; 'I' for Inactive)
REMARK    1  A    between atoms: C7_11  and  N4_12 
REMARK    2  A    between atoms: N4_12  and  C8_13 
REMARK    3  A    between atoms: C15_22  and  C16_23 
REMARK    4  A    between atoms: C16_23  and  N6_24 
ROOT
HETATM    1  O1  UNL     1      28.271   8.518  44.982  1.00  0.00    -0.273 OA
HETATM    2  C1  UNL     1      28.534   8.421  46.200  1.00  0.00     0.225 C 
HETATM    3  N1  UNL     1      29.226   7.133  46.721  1.00  0.00    -0.348 N 
HETATM    4  C2  UNL     1      28.459   6.380  48.014  1.00  0.00     0.071 A 
HETATM    5  C3  UNL     1      27.433   7.176  48.120  1.00  0.00     0.044 A 
HETATM    6  C4  UNL     1      28.702   7.743  48.451  1.00  0.00     0.069 A 
HETATM    7  C5  UNL     1      30.013   7.650  48.627  1.00  0.00     0.136 A 
HETATM    8  N2  UNL     1      30.903   8.747  48.961  1.00  0.00    -0.226 NA
HETATM    9  C6  UNL     1      32.139   8.316  49.138  1.00  0.00     0.254 A 
HETATM   10  N3  UNL     1      32.677   7.004  49.050  1.00  0.00    -0.057 NA
HETATM   11  C7  UNL     1      31.975   5.974  48.760  1.00  0.00     0.709 A 
HETATM   12  N5  UNL     1      30.672   6.298  48.555  1.00  0.00    -0.165 N 
HETATM   13  C14 UNL     1      29.570   5.317  48.134  1.00  0.00     0.181 C 
HETATM   14  C15 UNL     1      28.503   9.065  47.698  1.00  0.00     0.125 C 
HETATM   15  H1  UNL     1      30.140   6.905  46.034  1.00  0.00     0.163 HD
ENDROOT
BRANCH  11  16
HETATM   16  N4  UNL     1      32.258   4.613  48.615  1.00  0.00    -0.190 N 
HETATM   17  H4  UNL     1      31.737   3.942  49.208  1.00  0.00     0.184 HD
BRANCH  16  18
HETATM   18  C8  UNL     1      33.242   4.300  47.652  1.00  0.00     0.050 A 
HETATM   19  C9  UNL     1      34.444   3.662  47.746  1.00  0.00     0.030 A 
HETATM   20  C10 UNL     1      35.286   3.423  46.685  1.00  0.00     0.004 A 
HETATM   21  C11 UNL     1      34.905   3.850  45.433  1.00  0.00     0.019 A 
HETATM   22  C12 UNL     1      33.700   4.497  45.287  1.00  0.00     0.013 A 
HETATM   23 BR1  UNL     1      33.229   5.061  43.532  1.00  0.00    -0.051 Br
HETATM   24  C13 UNL     1      32.893   4.713  46.383  1.00  0.00     0.049 A 
ENDBRANCH  16  18
ENDBRANCH  11  16
BRANCH  14  25
HETATM   25  C16 UNL     1      27.240   9.759  47.825  1.00  0.00     0.287 C 
BRANCH  25  26
HETATM   26  N6  UNL     1      27.225  10.941  48.666  1.00  0.00     0.089 N 
HETATM   27  C17 UNL     1      26.260  11.871  48.201  1.00  0.00     0.272 C 
HETATM   28  C18 UNL     1      26.937  12.782  47.200  1.00  0.00     0.030 C 
HETATM   29  C19 UNL     1      27.817  13.683  48.038  1.00  0.00     0.003 C 
HETATM   30  C20 UNL     1      28.667  12.917  49.007  1.00  0.00     0.030 C 
HETATM   31  C21 UNL     1      28.530  11.438  48.932  1.00  0.00     0.272 C 
ENDBRANCH  25  26
ENDBRANCH  14  25
TORSDOF 4
ENDMDL
MODEL 6
REMARK VINA RESULT:      -7.9      3.578      8.412
REMARK  4 active torsions:
REMARK  status: ('A' for Active; 'I' for Inactive)
REMARK    1  A    between atoms: C7_11  and  N4_12 
REMARK    2  A    between atoms: N4_12  and  C8_13 
REMARK    3  A    between atoms: C15_22  and  C16_23 
REMARK    4  A    between atoms: C16_23  and  N6_24 
ROOT
HETATM    1  O1  UNL     1      26.635   2.458  50.462  1.00  0.00    -0.273 OA
HETATM    2  C1  UNL     1      25.796   2.162  51.339  1.00  0.00     0.225 C 
HETATM    3  N1  UNL     1      24.402   2.844  51.309  1.00  0.00    -0.348 N 
HETATM    4  C2  UNL     1      23.928   3.571  52.749  1.00  0.00     0.071 A 
HETATM    5  C3  UNL     1      25.002   3.333  53.447  1.00  0.00     0.044 A 
HETATM    6  C4  UNL     1      24.220   2.191  53.092  1.00  0.00     0.069 A 
HETATM    7  C5  UNL     1      23.156   1.632  52.532  1.00  0.00     0.136 A 
HETATM    8  N2  UNL     1      22.907   0.207  52.422  1.00  0.00    -0.226 NA
HETATM    9  C6  UNL     1      21.727  -0.027  51.877  1.00  0.00     0.254 A 
HETATM   10  N3  UNL     1      20.733   0.877  51.414  1.00  0.00    -0.057 NA
HETATM   11  C7  UNL     1      20.860   2.149  51.467  1.00  0.00     0.709 A 
HETATM   12  N5  UNL     1      22.048   2.512  52.015  1.00  0.00    -0.165 N 
HETATM   13  C14 UNL     1      22.549   3.953  52.174  1.00  0.00     0.181 C 
HETATM   14  C15 UNL     1      25.396   1.302  52.666  1.00  0.00     0.125 C 
HETATM   15  H1  UNL     1      23.981   2.768  50.224  1.00  0.00     0.163 HD
ENDROOT
BRANCH  11  16
HETATM   16  N4  UNL     1      20.050   3.224  51.088  1.00  0.00    -0.190 N 
HETATM   17  H4  UNL     1      19.841   3.949  51.798  1.00  0.00     0.184 HD
BRANCH  16  18
HETATM   18  C8  UNL     1      19.602   3.201  49.749  1.00  0.00     0.050 A 
HETATM   19  C9  UNL     1      18.370   2.995  49.201  1.00  0.00     0.030 A 
HETATM   20  C10 UNL     1      18.101   3.022  47.852  1.00  0.00     0.004 A 
HETATM   21  C11 UNL     1      19.136   3.273  46.980  1.00  0.00     0.019 A 
HETATM   22  C12 UNL     1      20.398   3.488  47.485  1.00  0.00     0.013 A 
HETATM   23 BR1  UNL     1      21.785   3.832  46.230  1.00  0.00    -0.051 Br
HETATM   24  C13 UNL     1      20.614   3.450  48.846  1.00  0.00     0.049 A 
ENDBRANCH  16  18
ENDBRANCH  11  16
BRANCH  14  25
HETATM   25  C16 UNL     1      26.576   1.257  53.501  1.00  0.00     0.287 C 
BRANCH  25  26
HETATM   26  N6  UNL     1      26.991  -0.049  53.977  1.00  0.00     0.089 N 
HETATM   27  C17 UNL     1      28.197   0.049  54.715  1.00  0.00     0.272 C 
HETATM   28  C18 UNL     1      29.350  -0.109  53.747  1.00  0.00     0.030 C 
HETATM   29  C19 UNL     1      29.355  -1.580  53.396  1.00  0.00     0.003 C 
HETATM   30  C20 UNL     1      28.000  -2.078  52.992  1.00  0.00     0.030 C 
HETATM   31  C21 UNL     1      26.931  -1.044  52.962  1.00  0.00     0.272 C 
ENDBRANCH  25  26
ENDBRANCH  14  25
TORSDOF 4
ENDMDL
MODEL 7
REMARK VINA RESULT:      -7.9      3.510      8.722
REMARK  4 active torsions:
REMARK  status: ('A' for Active; 'I' for Inactive)
REMARK    1  A    between atoms: C7_11  and  N4_12 
REMARK    2  A    between atoms: N4_12  and  C8_13 
REMARK    3  A    between atoms: C15_22  and  C16_23 
REMARK    4  A    between atoms: C16_23  and  N6_24 
ROOT
HETATM    1  O1  UNL     1      21.371  -0.540  55.255  1.00  0.00    -0.273 OA
HETATM    2  C1  UNL     1      21.745   0.067  54.229  1.00  0.00     0.225 C 
HETATM    3  N1  UNL     1      20.697   0.424  53.141  1.00  0.00    -0.348 N 
HETATM    4  C2  UNL     1      21.085  -0.070  51.582  1.00  0.00     0.071 A 
HETATM    5  C3  UNL     1      22.209  -0.674  51.845  1.00  0.00     0.044 A 
HETATM    6  C4  UNL     1      22.206   0.743  52.019  1.00  0.00     0.069 A 
HETATM    7  C5  UNL     1      21.613   1.927  51.950  1.00  0.00     0.136 A 
HETATM    8  N2  UNL     1      22.185   3.188  52.384  1.00  0.00    -0.226 NA
HETATM    9  C6  UNL     1      21.372   4.195  52.117  1.00  0.00     0.254 A 
HETATM   10  N3  UNL     1      20.093   4.203  51.499  1.00  0.00    -0.057 NA
HETATM   11  C7  UNL     1      19.505   3.145  51.084  1.00  0.00     0.709 A 
HETATM   12  N5  UNL     1      20.254   2.035  51.309  1.00  0.00    -0.165 N 
HETATM   13  C14 UNL     1      19.827   0.597  50.991  1.00  0.00     0.181 C 
HETATM   14  C15 UNL     1      22.944   0.755  53.364  1.00  0.00     0.125 C 
HETATM   15  H1  UNL     1      19.782   0.923  53.664  1.00  0.00     0.163 HD
ENDROOT
BRANCH  11  16
HETATM   16  N4  UNL     1      18.278   2.894  50.461  1.00  0.00    -0.190 N 
HETATM   17  H4  UNL     1      18.290   2.587  49.472  1.00  0.00     0.184 HD
BRANCH  16  18
HETATM   18  C8  UNL     1      17.138   3.088  51.270  1.00  0.00     0.050 A 
HETATM   19  C9  UNL     1      16.574   4.211  51.801  1.00  0.00     0.030 A 
HETATM   20  C10 UNL     1      15.432   4.222  52.569  1.00  0.00     0.004 A 
HETATM   21  C11 UNL     1      14.802   3.027  52.829  1.00  0.00     0.019 A 
HETATM   22  C12 UNL     1      15.332   1.867  52.315  1.00  0.00     0.013 A 
HETATM   23 BR1  UNL     1      14.415   0.248  52.708  1.00  0.00    -0.051 Br
HETATM   24  C13 UNL     1      16.480   1.909  51.551  1.00  0.00     0.049 A 
ENDBRANCH  16  18
ENDBRANCH  11  16
BRANCH  14  25
HETATM   25  C16 UNL     1      24.109  -0.085  53.529  1.00  0.00     0.287 C 
BRANCH  25  26
HETATM   26  N6  UNL     1      25.400   0.576  53.515  1.00  0.00     0.089 N 
HETATM   27  C17 UNL     1      26.031   0.412  52.256  1.00  0.00     0.272 C 
HETATM   28  C18 UNL     1      26.855  -0.856  52.310  1.00  0.00     0.030 C 
HETATM   29  C19 UNL     1      28.043  -0.502  53.176  1.00  0.00     0.003 C 
HETATM   30  C20 UNL     1      27.642   0.153  54.463  1.00  0.00     0.030 C 
HETATM   31  C21 UNL     1      26.175   0.286  54.671  1.00  0.00     0.272 C 
ENDBRANCH  25  26
ENDBRANCH  14  25
TORSDOF 4
ENDMDL
MODEL 8
REMARK VINA RESULT:      -7.9      8.788     11.223
REMARK  4 active torsions:
REMARK  status: ('A' for Active; 'I' for Inactive)
REMARK    1  A    between atoms: C7_11  and  N4_12 
REMARK    2  A    between atoms: N4_12  and  C8_13 
REMARK    3  A    between atoms: C15_22  and  C16_23 
REMARK    4  A    between atoms: C16_23  and  N6_24 
ROOT
HETATM    1  O1  UNL     1      30.116   9.622  49.625  1.00  0.00    -0.273 OA
HETATM    2  C1  UNL     1      29.260   9.077  48.896  1.00  0.00     0.225 C 
HETATM    3  N1  UNL     1      29.005   7.553  49.043  1.00  0.00    -0.348 N 
HETATM    4  C2  UNL     1      29.095   6.670  47.615  1.00  0.00     0.071 A 
HETATM    5  C3  UNL     1      29.420   7.641  46.808  1.00  0.00     0.044 A 
HETATM    6  C4  UNL     1      28.107   7.705  47.367  1.00  0.00     0.069 A 
HETATM    7  C5  UNL     1      27.127   7.206  48.109  1.00  0.00     0.136 A 
HETATM    8  N2  UNL     1      25.858   7.853  48.383  1.00  0.00    -0.226 NA
HETATM    9  C6  UNL     1      25.070   7.068  49.096  1.00  0.00     0.254 A 
HETATM   10  N3  UNL     1      25.289   5.757  49.597  1.00  0.00    -0.057 NA
HETATM   11  C7  UNL     1      26.374   5.105  49.410  1.00  0.00     0.709 A 
HETATM   12  N5  UNL     1      27.269   5.820  48.682  1.00  0.00    -0.165 N 
HETATM   13  C14 UNL     1      28.690   5.364  48.325  1.00  0.00     0.181 C 
HETATM   14  C15 UNL     1      28.139   9.198  47.718  1.00  0.00     0.125 C 
HETATM   15  H1  UNL     1      28.864   7.314  50.175  1.00  0.00     0.163 HD
ENDROOT
BRANCH  11  16
HETATM   16  N4  UNL     1      26.824   3.836  49.789  1.00  0.00    -0.190 N 
HETATM   17  H4  UNL     1      27.804   3.582  49.569  1.00  0.00     0.184 HD
BRANCH  16  18
HETATM   18  C8  UNL     1      25.871   3.028  50.447  1.00  0.00     0.050 A 
HETATM   19  C9  UNL     1      24.508   3.001  50.401  1.00  0.00     0.030 A 
HETATM   20  C10 UNL     1      23.720   2.123  51.109  1.00  0.00     0.004 A 
HETATM   21  C11 UNL     1      24.334   1.200  51.925  1.00  0.00     0.019 A 
HETATM   22  C12 UNL     1      25.707   1.187  52.005  1.00  0.00     0.013 A 
HETATM   23 BR1  UNL     1      26.495  -0.112  53.148  1.00  0.00    -0.051 Br
HETATM   24  C13 UNL     1      26.451   2.090  51.275  1.00  0.00     0.049 A 
ENDBRANCH  16  18
ENDBRANCH  11  16
BRANCH  14  25
HETATM   25  C16 UNL     1      28.659  10.133  46.745  1.00  0.00     0.287 C 
BRANCH  25  26
HETATM   26  N6  UNL     1      27.990  11.417  46.648  1.00  0.00     0.089 N 
HETATM   27  C17 UNL     1      28.923  12.476  46.775  1.00  0.00     0.272 C 
HETATM   28  C18 UNL     1      29.038  12.822  48.245  1.00  0.00     0.030 C 
HETATM   29  C19 UNL     1      27.748  13.542  48.570  1.00  0.00     0.003 C 
HETATM   30  C20 UNL     1      26.538  12.794  48.097  1.00  0.00     0.030 C 
HETATM   31  C21 UNL     1      26.819  11.483  47.453  1.00  0.00     0.272 C 
ENDBRANCH  25  26
ENDBRANCH  14  25
TORSDOF 4
ENDMDL
MODEL 9
REMARK VINA RESULT:      -7.8      3.847      8.782
REMARK  4 active torsions:
REMARK  status: ('A' for Active; 'I' for Inactive)
REMARK    1  A    between atoms: C7_11  and  N4_12 
REMARK    2  A    between atoms: N4_12  and  C8_13 
REMARK    3  A    between atoms: C15_22  and  C16_23 
REMARK    4  A    between atoms: C16_23  and  N6_24 
ROOT
HETATM    1  O1  UNL     1      23.434   2.733  49.440  1.00  0.00    -0.273 OA
HETATM    2  C1  UNL     1      22.834   2.587  50.526  1.00  0.00     0.225 C 
HETATM    3  N1  UNL     1      21.302   2.832  50.580  1.00  0.00    -0.348 N 
HETATM    4  C2  UNL     1      20.788   3.902  51.771  1.00  0.00     0.071 A 
HETATM    5  C3  UNL     1      21.954   4.223  52.257  1.00  0.00     0.044 A 
HETATM    6  C4  UNL     1      21.536   2.874  52.473  1.00  0.00     0.069 A 
HETATM    7  C5  UNL     1      20.645   1.897  52.372  1.00  0.00     0.136 A 
HETATM    8  N2  UNL     1      20.845   0.522  52.789  1.00  0.00    -0.226 NA
HETATM    9  C6  UNL     1      19.745  -0.189  52.621  1.00  0.00     0.254 A 
HETATM   10  N3  UNL     1      18.473   0.192  52.118  1.00  0.00    -0.057 NA
HETATM   11  C7  UNL     1      18.198   1.378  51.724  1.00  0.00     0.709 A 
HETATM   12  N5  UNL     1      19.266   2.207  51.851  1.00  0.00    -0.165 N 
HETATM   13  C14 UNL     1      19.304   3.679  51.419  1.00  0.00     0.181 C 
HETATM   14  C15 UNL     1      22.876   2.218  52.114  1.00  0.00     0.125 C 
HETATM   15  H1  UNL     1      20.807   2.251  49.699  1.00  0.00     0.163 HD
ENDROOT
BRANCH  11  16
HETATM   16  N4  UNL     1      17.055   1.991  51.202  1.00  0.00    -0.190 N 
HETATM   17  H4  UNL     1      17.164   2.592  50.366  1.00  0.00     0.184 HD
BRANCH  16  18
HETATM   18  C8  UNL     1      15.852   1.708  51.886  1.00  0.00     0.050 A 
HETATM   19  C9  UNL     1      15.210   0.536  52.160  1.00  0.00     0.030 A 
HETATM   20  C10 UNL     1      14.033   0.438  52.865  1.00  0.00     0.004 A 
HETATM   21  C11 UNL     1      13.448   1.592  53.333  1.00  0.00     0.019 A 
HETATM   22  C12 UNL     1      14.058   2.799  53.083  1.00  0.00     0.013 A 
HETATM   23 BR1  UNL     1      13.202   4.358  53.757  1.00  0.00    -0.051 Br
HETATM   24  C13 UNL     1      15.238   2.843  52.371  1.00  0.00     0.049 A 
ENDBRANCH  16  18
ENDBRANCH  11  16
BRANCH  14  25
HETATM   25  C16 UNL     1      24.097   2.789  52.640  1.00  0.00     0.287 C 
BRANCH  25  26
HETATM   26  N6  UNL     1      25.024   1.874  53.278  1.00  0.00     0.089 N 
HETATM   27  C17 UNL     1      26.347   2.110  52.824  1.00  0.00     0.272 C 
HETATM   28  C18 UNL     1      26.580   1.248  51.602  1.00  0.00     0.030 C 
HETATM   29  C19 UNL     1      26.714  -0.157  52.145  1.00  0.00     0.003 C 
HETATM   30  C20 UNL     1      25.601  -0.520  53.083  1.00  0.00     0.030 C 
HETATM   31  C21 UNL     1      24.563   0.530  53.263  1.00  0.00     0.272 C 
ENDBRANCH  25  26
ENDBRANCH  14  25
TORSDOF 4
ENDMDL
