MODEL 1
REMARK VINA RESULT:      -8.4      0.000      0.000
REMARK  7 active torsions:
REMARK  status: ('A' for Active; 'I' for Inactive)
REMARK    1  A    between atoms: C2_2  and  O1_3 
REMARK    2  A    between atoms: O1_3  and  C3_4 
REMARK    3  A    between atoms: C3_4  and  C4_6 
REMARK    4  A    between atoms: C4_6  and  N1_7 
REMARK    5  A    between atoms: C5_8  and  O3_9 
REMARK    6  A    between atoms: O3_9  and  C6_10 
REMARK    7  A    between atoms: C6_10  and  C7_11 
ROOT
HETATM    1  N1  UNL     1      23.008   0.775  51.894  1.00  0.00    -0.319 N 
HETATM    2  C5  UNL     1      24.423   0.817  52.158  1.00  0.00     0.142 C 
HETATM    3  C13 UNL     1      25.376   1.712  51.840  1.00  0.00     0.037 C 
HETATM    4  C14 UNL     1      24.800   2.865  51.069  1.00  0.00     0.096 C 
HETATM    5  C15 UNL     1      25.521   3.931  50.603  1.00  0.00     0.072 C 
HETATM    6  N2  UNL     1      24.785   4.954  49.880  1.00  0.00    -0.377 N 
HETATM    7  C16 UNL     1      24.324   6.307  50.118  1.00  0.00     0.097 C 
HETATM    8  C17 UNL     1      25.522   7.170  49.968  1.00  0.00     0.091 C 
HETATM    9  N3  UNL     1      23.102   6.507  50.387  1.00  0.00    -0.230 NA
HETATM   10  C18 UNL     1      22.413   7.692  50.654  1.00  0.00     0.231 C 
HETATM   11  N4  UNL     1      21.366   6.894  50.639  1.00  0.00    -0.257 NA
HETATM   12  C19 UNL     1      21.617   5.522  50.389  1.00  0.00     0.325 C 
HETATM   13  O4  UNL     1      20.467   4.675  50.467  1.00  0.00    -0.330 OA
HETATM   14  C20 UNL     1      20.825   3.322  50.199  1.00  0.00     0.073 A 
HETATM   15  C21 UNL     1      20.426   2.544  49.145  1.00  0.00     0.037 A 
HETATM   16  C22 UNL     1      20.853   1.259  49.013  1.00  0.00     0.005 A 
HETATM   17  C23 UNL     1      21.717   0.819  50.029  1.00  0.00     0.030 A 
HETATM   18  C24 UNL     1      22.134   1.604  51.116  1.00  0.00     0.039 A 
HETATM   19  C25 UNL     1      21.669   2.892  51.195  1.00  0.00     0.066 A 
HETATM   20  H17 UNL     1      24.408   4.847  48.903  1.00  0.00     0.160 HD
ENDROOT
BRANCH   2  21
HETATM   21  O3  UNL     1      24.847  -0.318  52.893  1.00  0.00    -0.331 OA
BRANCH  21  22
HETATM   22  C6  UNL     1      25.443  -0.197  54.180  1.00  0.00     0.216 C 
BRANCH  22  23
HETATM   23  C7  UNL     1      26.926  -0.306  53.938  1.00  0.00    -0.031 A 
HETATM   24  C8  UNL     1      27.525  -1.338  53.254  1.00  0.00     0.009 A 
HETATM   25  C9  UNL     1      28.905  -1.298  53.126  1.00  0.00     0.004 A 
HETATM   26  C10 UNL     1      29.587  -0.228  53.692  1.00  0.00     0.042 A 
HETATM   27  C11 UNL     1      29.016   0.806  54.375  1.00  0.00     0.117 A 
HETATM   28  F1  UNL     1      29.694   1.834  54.917  1.00  0.00    -0.206 F 
HETATM   29  C12 UNL     1      27.644   0.755  54.496  1.00  0.00     0.051 A 
ENDBRANCH  22  23
ENDBRANCH  21  22
ENDBRANCH   2  21
BRANCH   1  30
HETATM   30  C4  UNL     1      22.288  -0.340  52.475  1.00  0.00     0.242 C 
BRANCH  30  31
HETATM   31  C3  UNL     1      21.380  -0.001  53.564  1.00  0.00     0.277 C 
HETATM   32  O2  UNL     1      21.895  -0.024  54.705  1.00  0.00    -0.263 OA
BRANCH  31  33
HETATM   33  O1  UNL     1      20.059   0.339  53.497  1.00  0.00    -0.321 OA
BRANCH  33  34
HETATM   34  C2  UNL     1      18.990  -0.414  53.025  1.00  0.00     0.174 C 
HETATM   35  C1  UNL     1      18.552  -0.142  51.628  1.00  0.00     0.034 C 
ENDBRANCH  33  34
ENDBRANCH  31  33
ENDBRANCH  30  31
ENDBRANCH   1  30
TORSDOF 7
ENDMDL
MODEL 2
REMARK VINA RESULT:      -8.4      2.213      5.109
REMARK  7 active torsions:
REMARK  status: ('A' for Active; 'I' for Inactive)
REMARK    1  A    between atoms: C2_2  and  O1_3 
REMARK    2  A    between atoms: O1_3  and  C3_4 
REMARK    3  A    between atoms: C3_4  and  C4_6 
REMARK    4  A    between atoms: C4_6  and  N1_7 
REMARK    5  A    between atoms: C5_8  and  O3_9 
REMARK    6  A    between atoms: O3_9  and  C6_10 
REMARK    7  A    between atoms: C6_10  and  C7_11 
ROOT
HETATM    1  N1  UNL     1      24.226   2.007  52.543  1.00  0.00    -0.319 N 
HETATM    2  C5  UNL     1      24.218   0.804  53.334  1.00  0.00     0.142 C 
HETATM    3  C13 UNL     1      23.224  -0.010  53.734  1.00  0.00     0.037 C 
HETATM    4  C14 UNL     1      21.894   0.472  53.228  1.00  0.00     0.096 C 
HETATM    5  C15 UNL     1      20.696  -0.142  53.472  1.00  0.00     0.072 C 
HETATM    6  N2  UNL     1      19.514   0.473  52.894  1.00  0.00    -0.377 N 
HETATM    7  C16 UNL     1      18.596   0.205  51.804  1.00  0.00     0.097 C 
HETATM    8  C17 UNL     1      17.703  -0.876  52.291  1.00  0.00     0.091 C 
HETATM    9  N3  UNL     1      18.699   0.869  50.730  1.00  0.00    -0.230 NA
HETATM   10  C18 UNL     1      17.953   0.808  49.550  1.00  0.00     0.231 C 
HETATM   11  N4  UNL     1      18.685   1.854  49.228  1.00  0.00    -0.257 NA
HETATM   12  C19 UNL     1      19.631   2.289  50.190  1.00  0.00     0.325 C 
HETATM   13  O4  UNL     1      20.465   3.372  49.769  1.00  0.00    -0.330 OA
HETATM   14  C20 UNL     1      21.375   3.732  50.804  1.00  0.00     0.073 A 
HETATM   15  C21 UNL     1      21.431   4.913  51.495  1.00  0.00     0.037 A 
HETATM   16  C22 UNL     1      22.358   5.120  52.469  1.00  0.00     0.005 A 
HETATM   17  C23 UNL     1      23.227   4.038  52.694  1.00  0.00     0.030 A 
HETATM   18  C24 UNL     1      23.181   2.822  51.993  1.00  0.00     0.039 A 
HETATM   19  C25 UNL     1      22.224   2.673  51.022  1.00  0.00     0.066 A 
HETATM   20  H17 UNL     1      19.069   1.362  53.237  1.00  0.00     0.160 HD
ENDROOT
BRANCH   2  21
HETATM   21  O3  UNL     1      25.526   0.448  53.749  1.00  0.00    -0.331 OA
BRANCH  21  22
HETATM   22  C6  UNL     1      26.058  -0.851  53.514  1.00  0.00     0.216 C 
BRANCH  22  23
HETATM   23  C7  UNL     1      27.554  -0.675  53.542  1.00  0.00    -0.031 A 
HETATM   24  C8  UNL     1      28.454  -1.635  53.144  1.00  0.00     0.009 A 
HETATM   25  C9  UNL     1      29.801  -1.322  53.240  1.00  0.00     0.004 A 
HETATM   26  C10 UNL     1      30.151  -0.070  53.730  1.00  0.00     0.042 A 
HETATM   27  C11 UNL     1      29.278   0.898  54.132  1.00  0.00     0.117 A 
HETATM   28  F1  UNL     1      29.637   2.106  54.603  1.00  0.00    -0.206 F 
HETATM   29  C12 UNL     1      27.942   0.575  54.031  1.00  0.00     0.051 A 
ENDBRANCH  22  23
ENDBRANCH  21  22
ENDBRANCH   2  21
BRANCH   1  30
HETATM   30  C4  UNL     1      25.530   2.570  52.259  1.00  0.00     0.242 C 
BRANCH  30  31
HETATM   31  C3  UNL     1      26.036   2.332  50.913  1.00  0.00     0.277 C 
HETATM   32  O2  UNL     1      26.749   1.310  50.791  1.00  0.00    -0.263 OA
BRANCH  31  33
HETATM   33  O1  UNL     1      25.829   3.069  49.782  1.00  0.00    -0.321 OA
BRANCH  33  34
HETATM   34  C2  UNL     1      25.876   4.449  49.622  1.00  0.00     0.174 C 
HETATM   35  C1  UNL     1      24.582   5.130  49.344  1.00  0.00     0.034 C 
ENDBRANCH  33  34
ENDBRANCH  31  33
ENDBRANCH  30  31
ENDBRANCH   1  30
TORSDOF 7
ENDMDL
MODEL 3
REMARK VINA RESULT:      -8.3      2.094      2.643
REMARK  7 active torsions:
REMARK  status: ('A' for Active; 'I' for Inactive)
REMARK    1  A    between atoms: C2_2  and  O1_3 
REMARK    2  A    between atoms: O1_3  and  C3_4 
REMARK    3  A    between atoms: C3_4  and  C4_6 
REMARK    4  A    between atoms: C4_6  and  N1_7 
REMARK    5  A    between atoms: C5_8  and  O3_9 
REMARK    6  A    between atoms: O3_9  and  C6_10 
REMARK    7  A    between atoms: C6_10  and  C7_11 
ROOT
HETATM    1  N1  UNL     1      23.865   2.223  50.642  1.00  0.00    -0.319 N 
HETATM    2  C5  UNL     1      25.207   2.016  51.121  1.00  0.00     0.142 C 
HETATM    3  C13 UNL     1      26.371   2.630  50.844  1.00  0.00     0.037 C 
HETATM    4  C14 UNL     1      26.175   3.734  49.845  1.00  0.00     0.096 C 
HETATM    5  C15 UNL     1      27.173   4.538  49.363  1.00  0.00     0.072 C 
HETATM    6  N2  UNL     1      26.787   5.557  48.402  1.00  0.00    -0.377 N 
HETATM    7  C16 UNL     1      26.619   6.997  48.382  1.00  0.00     0.097 C 
HETATM    8  C17 UNL     1      27.992   7.558  48.313  1.00  0.00     0.091 C 
HETATM    9  N3  UNL     1      25.451   7.485  48.423  1.00  0.00    -0.230 NA
HETATM   10  C18 UNL     1      25.022   8.814  48.417  1.00  0.00     0.231 C 
HETATM   11  N4  UNL     1      23.831   8.257  48.340  1.00  0.00    -0.257 NA
HETATM   12  C19 UNL     1      23.793   6.840  48.318  1.00  0.00     0.325 C 
HETATM   13  O4  UNL     1      22.480   6.273  48.322  1.00  0.00    -0.330 OA
HETATM   14  C20 UNL     1      22.552   4.850  48.297  1.00  0.00     0.073 A 
HETATM   15  C21 UNL     1      22.124   4.009  47.305  1.00  0.00     0.037 A 
HETATM   16  C22 UNL     1      22.260   2.659  47.414  1.00  0.00     0.005 A 
HETATM   17  C23 UNL     1      22.865   2.224  48.606  1.00  0.00     0.030 A 
HETATM   18  C24 UNL     1      23.309   3.074  49.631  1.00  0.00     0.039 A 
HETATM   19  C25 UNL     1      23.142   4.426  49.464  1.00  0.00     0.066 A 
HETATM   20  H17 UNL     1      26.523   5.371  47.401  1.00  0.00     0.160 HD
ENDROOT
BRANCH   2  21
HETATM   21  O3  UNL     1      25.265   0.954  52.058  1.00  0.00    -0.331 OA
BRANCH  21  22
HETATM   22  C6  UNL     1      26.125   1.001  53.191  1.00  0.00     0.216 C 
BRANCH  22  23
HETATM   23  C7  UNL     1      26.998  -0.221  53.073  1.00  0.00    -0.031 A 
HETATM   24  C8  UNL     1      26.555  -1.452  52.650  1.00  0.00     0.009 A 
HETATM   25  C9  UNL     1      27.482  -2.481  52.605  1.00  0.00     0.004 A 
HETATM   26  C10 UNL     1      28.788  -2.204  52.990  1.00  0.00     0.042 A 
HETATM   27  C11 UNL     1      29.253  -0.993  53.414  1.00  0.00     0.117 A 
HETATM   28  F1  UNL     1      30.522  -0.746  53.782  1.00  0.00    -0.206 F 
HETATM   29  C12 UNL     1      28.321   0.022  53.454  1.00  0.00     0.051 A 
ENDBRANCH  22  23
ENDBRANCH  21  22
ENDBRANCH   2  21
BRANCH   1  30
HETATM   30  C4  UNL     1      22.842   1.391  51.243  1.00  0.00     0.242 C 
BRANCH  30  31
HETATM   31  C3  UNL     1      22.040   2.032  52.277  1.00  0.00     0.277 C 
HETATM   32  O2  UNL     1      21.748   1.297  53.248  1.00  0.00    -0.263 OA
BRANCH  31  33
HETATM   33  O1  UNL     1      21.577   3.316  52.323  1.00  0.00    -0.321 OA
BRANCH  33  34
HETATM   34  C2  UNL     1      20.343   3.810  51.919  1.00  0.00     0.174 C 
HETATM   35  C1  UNL     1      19.756   3.209  50.689  1.00  0.00     0.034 C 
ENDBRANCH  33  34
ENDBRANCH  31  33
ENDBRANCH  30  31
ENDBRANCH   1  30
TORSDOF 7
ENDMDL
MODEL 4
REMARK VINA RESULT:      -8.2      3.230      5.815
REMARK  7 active torsions:
REMARK  status: ('A' for Active; 'I' for Inactive)
REMARK    1  A    between atoms: C2_2  and  O1_3 
REMARK    2  A    between atoms: O1_3  and  C3_4 
REMARK    3  A    between atoms: C3_4  and  C4_6 
REMARK    4  A    between atoms: C4_6  and  N1_7 
REMARK    5  A    between atoms: C5_8  and  O3_9 
REMARK    6  A    between atoms: O3_9  and  C6_10 
REMARK    7  A    between atoms: C6_10  and  C7_11 
ROOT
HETATM    1  N1  UNL     1      24.171   4.702  49.624  1.00  0.00    -0.319 N 
HETATM    2  C5  UNL     1      25.138   3.653  49.809  1.00  0.00     0.142 C 
HETATM    3  C13 UNL     1      26.452   3.573  49.530  1.00  0.00     0.037 C 
HETATM    4  C14 UNL     1      26.952   4.849  48.915  1.00  0.00     0.096 C 
HETATM    5  C15 UNL     1      28.244   5.072  48.519  1.00  0.00     0.072 C 
HETATM    6  N2  UNL     1      28.538   6.374  47.947  1.00  0.00    -0.377 N 
HETATM    7  C16 UNL     1      29.225   7.586  48.349  1.00  0.00     0.097 C 
HETATM    8  C17 UNL     1      30.673   7.285  48.219  1.00  0.00     0.091 C 
HETATM    9  N3  UNL     1      28.546   8.594  48.706  1.00  0.00    -0.230 NA
HETATM   10  C18 UNL     1      28.956   9.860  49.131  1.00  0.00     0.231 C 
HETATM   11  N4  UNL     1      27.664  10.109  49.095  1.00  0.00    -0.257 NA
HETATM   12  C19 UNL     1      26.822   9.043  48.692  1.00  0.00     0.325 C 
HETATM   13  O4  UNL     1      25.421   9.326  48.749  1.00  0.00    -0.330 OA
HETATM   14  C20 UNL     1      24.666   8.195  48.325  1.00  0.00     0.073 A 
HETATM   15  C21 UNL     1      23.861   8.092  47.222  1.00  0.00     0.037 A 
HETATM   16  C22 UNL     1      23.198   6.940  46.935  1.00  0.00     0.005 A 
HETATM   17  C23 UNL     1      23.410   5.895  47.850  1.00  0.00     0.030 A 
HETATM   18  C24 UNL     1      24.231   5.985  48.986  1.00  0.00     0.039 A 
HETATM   19  C25 UNL     1      24.874   7.174  49.223  1.00  0.00     0.066 A 
HETATM   20  H17 UNL     1      28.243   6.691  46.988  1.00  0.00     0.160 HD
ENDROOT
BRANCH   2  21
HETATM   21  O3  UNL     1      24.551   2.505  50.399  1.00  0.00    -0.331 OA
BRANCH  21  22
HETATM   22  C6  UNL     1      25.060   1.938  51.601  1.00  0.00     0.216 C 
BRANCH  22  23
HETATM   23  C7  UNL     1      23.937   1.092  52.143  1.00  0.00    -0.031 A 
HETATM   24  C8  UNL     1      22.666   1.065  51.619  1.00  0.00     0.009 A 
HETATM   25  C9  UNL     1      21.741   0.240  52.239  1.00  0.00     0.004 A 
HETATM   26  C10 UNL     1      22.154  -0.499  53.341  1.00  0.00     0.042 A 
HETATM   27  C11 UNL     1      23.408  -0.490  53.879  1.00  0.00     0.117 A 
HETATM   28  F1  UNL     1      23.789  -1.214  54.947  1.00  0.00    -0.206 F 
HETATM   29  C12 UNL     1      24.319   0.335  53.254  1.00  0.00     0.051 A 
ENDBRANCH  22  23
ENDBRANCH  21  22
ENDBRANCH   2  21
BRANCH   1  30
HETATM   30  C4  UNL     1      22.840   4.434  50.128  1.00  0.00     0.242 C 
BRANCH  30  31
HETATM   31  C3  UNL     1      22.459   5.179  51.322  1.00  0.00     0.277 C 
HETATM   32  O2  UNL     1      23.046   4.828  52.371  1.00  0.00    -0.263 OA
BRANCH  31  33
HETATM   33  O1  UNL     1      21.561   6.201  51.438  1.00  0.00    -0.321 OA
BRANCH  33  34
HETATM   34  C2  UNL     1      21.527   7.412  50.756  1.00  0.00     0.174 C 
HETATM   35  C1  UNL     1      20.569   7.508  49.621  1.00  0.00     0.034 C 
ENDBRANCH  33  34
ENDBRANCH  31  33
ENDBRANCH  30  31
ENDBRANCH   1  30
TORSDOF 7
ENDMDL
MODEL 5
REMARK VINA RESULT:      -7.6      6.986     11.065
REMARK  7 active torsions:
REMARK  status: ('A' for Active; 'I' for Inactive)
REMARK    1  A    between atoms: C2_2  and  O1_3 
REMARK    2  A    between atoms: O1_3  and  C3_4 
REMARK    3  A    between atoms: C3_4  and  C4_6 
REMARK    4  A    between atoms: C4_6  and  N1_7 
REMARK    5  A    between atoms: C5_8  and  O3_9 
REMARK    6  A    between atoms: O3_9  and  C6_10 
REMARK    7  A    between atoms: C6_10  and  C7_11 
ROOT
HETATM    1  N1  UNL     1      28.762   7.912  47.869  1.00  0.00    -0.319 N 
HETATM    2  C5  UNL     1      28.443   6.545  48.189  1.00  0.00     0.142 C 
HETATM    3  C13 UNL     1      29.177   5.418  48.176  1.00  0.00     0.037 C 
HETATM    4  C14 UNL     1      30.587   5.696  47.741  1.00  0.00     0.096 C 
HETATM    5  C15 UNL     1      31.570   4.751  47.624  1.00  0.00     0.072 C 
HETATM    6  N2  UNL     1      32.877   5.214  47.191  1.00  0.00    -0.377 N 
HETATM    7  C16 UNL     1      34.181   5.440  47.784  1.00  0.00     0.097 C 
HETATM    8  C17 UNL     1      34.790   4.095  47.932  1.00  0.00     0.091 C 
HETATM    9  N3  UNL     1      34.544   6.624  48.050  1.00  0.00    -0.230 NA
HETATM   10  C18 UNL     1      35.728   7.105  48.613  1.00  0.00     0.231 C 
HETATM   11  N4  UNL     1      35.193   8.275  48.331  1.00  0.00    -0.257 NA
HETATM   12  C19 UNL     1      33.918   8.258  47.713  1.00  0.00     0.325 C 
HETATM   13  O4  UNL     1      33.333   9.546  47.503  1.00  0.00    -0.330 OA
HETATM   14  C20 UNL     1      32.059   9.419  46.878  1.00  0.00     0.073 A 
HETATM   15  C21 UNL     1      31.692   9.852  45.632  1.00  0.00     0.037 A 
HETATM   16  C22 UNL     1      30.431   9.658  45.158  1.00  0.00     0.005 A 
HETATM   17  C23 UNL     1      29.567   8.990  46.043  1.00  0.00     0.030 A 
HETATM   18  C24 UNL     1      29.929   8.541  47.323  1.00  0.00     0.039 A 
HETATM   19  C25 UNL     1      31.215   8.767  47.745  1.00  0.00     0.066 A 
HETATM   20  H17 UNL     1      33.116   5.510  46.210  1.00  0.00     0.160 HD
ENDROOT
BRANCH   2  21
HETATM   21  O3  UNL     1      27.090   6.409  48.590  1.00  0.00    -0.331 OA
BRANCH  21  22
HETATM   22  C6  UNL     1      26.528   5.141  48.910  1.00  0.00     0.216 C 
BRANCH  22  23
HETATM   23  C7  UNL     1      25.471   5.428  49.944  1.00  0.00    -0.031 A 
HETATM   24  C8  UNL     1      25.084   6.692  50.324  1.00  0.00     0.009 A 
HETATM   25  C9  UNL     1      24.102   6.789  51.298  1.00  0.00     0.004 A 
HETATM   26  C10 UNL     1      23.580   5.614  51.824  1.00  0.00     0.042 A 
HETATM   27  C11 UNL     1      23.948   4.350  51.464  1.00  0.00     0.117 A 
HETATM   28  F1  UNL     1      23.429   3.224  51.986  1.00  0.00    -0.206 F 
HETATM   29  C12 UNL     1      24.924   4.266  50.495  1.00  0.00     0.051 A 
ENDBRANCH  22  23
ENDBRANCH  21  22
ENDBRANCH   2  21
BRANCH   1  30
HETATM   30  C4  UNL     1      27.701   8.876  48.081  1.00  0.00     0.242 C 
BRANCH  30  31
HETATM   31  C3  UNL     1      27.896   9.783  49.206  1.00  0.00     0.277 C 
HETATM   32  O2  UNL     1      27.899   9.234  50.331  1.00  0.00    -0.263 OA
BRANCH  31  33
HETATM   33  O1  UNL     1      28.076  11.137  49.187  1.00  0.00    -0.321 OA
BRANCH  33  34
HETATM   34  C2  UNL     1      28.969  11.885  48.429  1.00  0.00     0.174 C 
HETATM   35  C1  UNL     1      30.326  12.086  49.007  1.00  0.00     0.034 C 
ENDBRANCH  33  34
ENDBRANCH  31  33
ENDBRANCH  30  31
ENDBRANCH   1  30
TORSDOF 7
ENDMDL
MODEL 6
REMARK VINA RESULT:      -7.6      2.618      4.112
REMARK  7 active torsions:
REMARK  status: ('A' for Active; 'I' for Inactive)
REMARK    1  A    between atoms: C2_2  and  O1_3 
REMARK    2  A    between atoms: O1_3  and  C3_4 
REMARK    3  A    between atoms: C3_4  and  C4_6 
REMARK    4  A    between atoms: C4_6  and  N1_7 
REMARK    5  A    between atoms: C5_8  and  O3_9 
REMARK    6  A    between atoms: O3_9  and  C6_10 
REMARK    7  A    between atoms: C6_10  and  C7_11 
ROOT
HETATM    1  N1  UNL     1      24.242   3.979  51.464  1.00  0.00    -0.319 N 
HETATM    2  C5  UNL     1      25.257   2.996  51.193  1.00  0.00     0.142 C 
HETATM    3  C13 UNL     1      26.349   3.015  50.407  1.00  0.00     0.037 C 
HETATM    4  C14 UNL     1      26.488   4.336  49.707  1.00  0.00     0.096 C 
HETATM    5  C15 UNL     1      27.496   4.658  48.838  1.00  0.00     0.072 C 
HETATM    6  N2  UNL     1      27.463   5.991  48.262  1.00  0.00    -0.377 N 
HETATM    7  C16 UNL     1      28.186   7.238  48.413  1.00  0.00     0.097 C 
HETATM    8  C17 UNL     1      29.472   7.042  47.699  1.00  0.00     0.091 C 
HETATM    9  N3  UNL     1      27.655   8.188  49.062  1.00  0.00    -0.230 NA
HETATM   10  C18 UNL     1      28.132   9.469  49.349  1.00  0.00     0.231 C 
HETATM   11  N4  UNL     1      26.923   9.628  49.847  1.00  0.00    -0.257 NA
HETATM   12  C19 UNL     1      26.050   8.515  49.763  1.00  0.00     0.325 C 
HETATM   13  O4  UNL     1      24.778   8.698  50.391  1.00  0.00    -0.330 OA
HETATM   14  C20 UNL     1      23.979   7.527  50.250  1.00  0.00     0.073 A 
HETATM   15  C21 UNL     1      22.804   7.394  49.558  1.00  0.00     0.037 A 
HETATM   16  C22 UNL     1      22.146   6.205  49.505  1.00  0.00     0.005 A 
HETATM   17  C23 UNL     1      22.766   5.156  50.206  1.00  0.00     0.030 A 
HETATM   18  C24 UNL     1      23.969   5.278  50.919  1.00  0.00     0.039 A 
HETATM   19  C25 UNL     1      24.586   6.503  50.937  1.00  0.00     0.066 A 
HETATM   20  H17 UNL     1      26.789   6.309  47.518  1.00  0.00     0.160 HD
ENDROOT
BRANCH   2  21
HETATM   21  O3  UNL     1      25.021   1.796  51.912  1.00  0.00    -0.331 OA
BRANCH  21  22
HETATM   22  C6  UNL     1      25.402   1.653  53.275  1.00  0.00     0.216 C 
BRANCH  22  23
HETATM   23  C7  UNL     1      26.532   0.656  53.266  1.00  0.00    -0.031 A 
HETATM   24  C8  UNL     1      27.779   0.894  53.794  1.00  0.00     0.009 A 
HETATM   25  C9  UNL     1      28.715  -0.124  53.697  1.00  0.00     0.004 A 
HETATM   26  C10 UNL     1      28.335  -1.308  53.078  1.00  0.00     0.042 A 
HETATM   27  C11 UNL     1      27.106  -1.568  52.546  1.00  0.00     0.117 A 
HETATM   28  F1  UNL     1      26.757  -2.723  51.950  1.00  0.00    -0.206 F 
HETATM   29  C12 UNL     1      26.184  -0.548  52.648  1.00  0.00     0.051 A 
ENDBRANCH  22  23
ENDBRANCH  21  22
ENDBRANCH   2  21
BRANCH   1  30
HETATM   30  C4  UNL     1      23.244   3.607  52.446  1.00  0.00     0.242 C 
BRANCH  30  31
HETATM   31  C3  UNL     1      22.076   2.912  51.919  1.00  0.00     0.277 C 
HETATM   32  O2  UNL     1      20.974   3.382  52.285  1.00  0.00    -0.263 OA
BRANCH  31  33
HETATM   33  O1  UNL     1      22.031   1.832  51.085  1.00  0.00    -0.321 OA
BRANCH  33  34
HETATM   34  C2  UNL     1      22.202   1.789  49.706  1.00  0.00     0.174 C 
HETATM   35  C1  UNL     1      21.229   0.961  48.942  1.00  0.00     0.034 C 
ENDBRANCH  33  34
ENDBRANCH  31  33
ENDBRANCH  30  31
ENDBRANCH   1  30
TORSDOF 7
ENDMDL
MODEL 7
REMARK VINA RESULT:      -7.6      3.955      6.753
REMARK  7 active torsions:
REMARK  status: ('A' for Active; 'I' for Inactive)
REMARK    1  A    between atoms: C2_2  and  O1_3 
REMARK    2  A    between atoms: O1_3  and  C3_4 
REMARK    3  A    between atoms: C3_4  and  C4_6 
REMARK    4  A    between atoms: C4_6  and  N1_7 
REMARK    5  A    between atoms: C5_8  and  O3_9 
REMARK    6  A    between atoms: O3_9  and  C6_10 
REMARK    7  A    between atoms: C6_10  and  C7_11 
ROOT
HETATM    1  N1  UNL     1      25.172   6.016  48.959  1.00  0.00    -0.319 N 
HETATM    2  C5  UNL     1      26.257   5.070  48.998  1.00  0.00     0.142 C 
HETATM    3  C13 UNL     1      27.560   5.174  48.682  1.00  0.00     0.037 C 
HETATM    4  C14 UNL     1      27.892   6.560  48.208  1.00  0.00     0.096 C 
HETATM    5  C15 UNL     1      29.136   6.973  47.811  1.00  0.00     0.072 C 
HETATM    6  N2  UNL     1      29.262   8.357  47.387  1.00  0.00    -0.377 N 
HETATM    7  C16 UNL     1      29.824   9.587  47.911  1.00  0.00     0.097 C 
HETATM    8  C17 UNL     1      31.290   9.471  47.714  1.00  0.00     0.091 C 
HETATM    9  N3  UNL     1      29.050  10.463  48.398  1.00  0.00    -0.230 NA
HETATM   10  C18 UNL     1      29.330  11.712  48.957  1.00  0.00     0.231 C 
HETATM   11  N4  UNL     1      28.018  11.813  48.980  1.00  0.00    -0.257 NA
HETATM   12  C19 UNL     1      27.286  10.709  48.476  1.00  0.00     0.325 C 
HETATM   13  O4  UNL     1      25.865  10.821  48.597  1.00  0.00    -0.330 OA
HETATM   14  C20 UNL     1      25.227   9.665  48.062  1.00  0.00     0.073 A 
HETATM   15  C21 UNL     1      24.400   9.596  46.973  1.00  0.00     0.037 A 
HETATM   16  C22 UNL     1      23.859   8.414  46.570  1.00  0.00     0.005 A 
HETATM   17  C23 UNL     1      24.219   7.304  47.353  1.00  0.00     0.030 A 
HETATM   18  C24 UNL     1      25.066   7.361  48.472  1.00  0.00     0.039 A 
HETATM   19  C25 UNL     1      25.580   8.581  48.830  1.00  0.00     0.066 A 
HETATM   20  H17 UNL     1      28.899   8.743  46.479  1.00  0.00     0.160 HD
ENDROOT
BRANCH   2  21
HETATM   21  O3  UNL     1      25.823   3.803  49.465  1.00  0.00    -0.331 OA
BRANCH  21  22
HETATM   22  C6  UNL     1      26.686   2.939  50.195  1.00  0.00     0.216 C 
BRANCH  22  23
HETATM   23  C7  UNL     1      25.781   2.173  51.125  1.00  0.00    -0.031 A 
HETATM   24  C8  UNL     1      24.470   2.505  51.376  1.00  0.00     0.009 A 
HETATM   25  C9  UNL     1      23.772   1.704  52.267  1.00  0.00     0.004 A 
HETATM   26  C10 UNL     1      24.437   0.629  52.844  1.00  0.00     0.042 A 
HETATM   27  C11 UNL     1      25.735   0.281  52.612  1.00  0.00     0.117 A 
HETATM   28  F1  UNL     1      26.361  -0.765  53.181  1.00  0.00    -0.206 F 
HETATM   29  C12 UNL     1      26.419   1.084  51.725  1.00  0.00     0.051 A 
ENDBRANCH  22  23
ENDBRANCH  21  22
ENDBRANCH   2  21
BRANCH   1  30
HETATM   30  C4  UNL     1      23.898   5.541  49.459  1.00  0.00     0.242 C 
BRANCH  30  31
HETATM   31  C3  UNL     1      23.413   6.200  50.665  1.00  0.00     0.277 C 
HETATM   32  O2  UNL     1      24.143   6.058  51.672  1.00  0.00    -0.263 OA
BRANCH  31  33
HETATM   33  O1  UNL     1      22.282   6.947  50.831  1.00  0.00    -0.321 OA
BRANCH  33  34
HETATM   34  C2  UNL     1      21.881   8.085  50.141  1.00  0.00     0.174 C 
HETATM   35  C1  UNL     1      20.926   7.879  49.017  1.00  0.00     0.034 C 
ENDBRANCH  33  34
ENDBRANCH  31  33
ENDBRANCH  30  31
ENDBRANCH   1  30
TORSDOF 7
ENDMDL
MODEL 8
REMARK VINA RESULT:      -7.3      3.427      4.759
REMARK  7 active torsions:
REMARK  status: ('A' for Active; 'I' for Inactive)
REMARK    1  A    between atoms: C2_2  and  O1_3 
REMARK    2  A    between atoms: O1_3  and  C3_4 
REMARK    3  A    between atoms: C3_4  and  C4_6 
REMARK    4  A    between atoms: C4_6  and  N1_7 
REMARK    5  A    between atoms: C5_8  and  O3_9 
REMARK    6  A    between atoms: O3_9  and  C6_10 
REMARK    7  A    between atoms: C6_10  and  C7_11 
ROOT
HETATM    1  N1  UNL     1      22.418   2.891  49.498  1.00  0.00    -0.319 N 
HETATM    2  C5  UNL     1      23.514   2.483  50.337  1.00  0.00     0.142 C 
HETATM    3  C13 UNL     1      24.778   2.928  50.454  1.00  0.00     0.037 C 
HETATM    4  C14 UNL     1      25.040   4.067  49.511  1.00  0.00     0.096 C 
HETATM    5  C15 UNL     1      26.234   4.727  49.394  1.00  0.00     0.072 C 
HETATM    6  N2  UNL     1      26.293   5.808  48.425  1.00  0.00    -0.377 N 
HETATM    7  C16 UNL     1      26.331   7.257  48.444  1.00  0.00     0.097 C 
HETATM    8  C17 UNL     1      27.722   7.615  48.817  1.00  0.00     0.091 C 
HETATM    9  N3  UNL     1      25.279   7.908  48.168  1.00  0.00    -0.230 NA
HETATM   10  C18 UNL     1      25.052   9.285  48.116  1.00  0.00     0.231 C 
HETATM   11  N4  UNL     1      23.877   8.906  47.658  1.00  0.00    -0.257 NA
HETATM   12  C19 UNL     1      23.660   7.511  47.539  1.00  0.00     0.325 C 
HETATM   13  O4  UNL     1      22.343   7.139  47.122  1.00  0.00    -0.330 OA
HETATM   14  C20 UNL     1      22.230   5.722  47.033  1.00  0.00     0.073 A 
HETATM   15  C21 UNL     1      22.013   4.969  45.910  1.00  0.00     0.037 A 
HETATM   16  C22 UNL     1      21.930   3.613  45.973  1.00  0.00     0.005 A 
HETATM   17  C23 UNL     1      22.086   3.072  47.261  1.00  0.00     0.030 A 
HETATM   18  C24 UNL     1      22.309   3.832  48.421  1.00  0.00     0.039 A 
HETATM   19  C25 UNL     1      22.381   5.196  48.294  1.00  0.00     0.066 A 
HETATM   20  H17 UNL     1      26.320   5.680  47.382  1.00  0.00     0.160 HD
ENDROOT
BRANCH   2  21
HETATM   21  O3  UNL     1      23.146   1.407  51.184  1.00  0.00    -0.331 OA
BRANCH  21  22
HETATM   22  C6  UNL     1      23.992   0.961  52.238  1.00  0.00     0.216 C 
BRANCH  22  23
HETATM   23  C7  UNL     1      23.106   0.129  53.128  1.00  0.00    -0.031 A 
HETATM   24  C8  UNL     1      23.553  -0.585  54.215  1.00  0.00     0.009 A 
HETATM   25  C9  UNL     1      22.612  -1.310  54.929  1.00  0.00     0.004 A 
HETATM   26  C10 UNL     1      21.290  -1.270  54.504  1.00  0.00     0.042 A 
HETATM   27  C11 UNL     1      20.823  -0.570  53.430  1.00  0.00     0.117 A 
HETATM   28  F1  UNL     1      19.537  -0.543  53.034  1.00  0.00    -0.206 F 
HETATM   29  C12 UNL     1      21.768   0.147  52.728  1.00  0.00     0.051 A 
ENDBRANCH  22  23
ENDBRANCH  21  22
ENDBRANCH   2  21
BRANCH   1  30
HETATM   30  C4  UNL     1      21.161   2.204  49.719  1.00  0.00     0.242 C 
BRANCH  30  31
HETATM   31  C3  UNL     1      20.108   3.006  50.330  1.00  0.00     0.277 C 
HETATM   32  O2  UNL     1      20.304   3.306  51.529  1.00  0.00    -0.263 OA
BRANCH  31  33
HETATM   33  O1  UNL     1      18.953   3.468  49.766  1.00  0.00    -0.321 OA
BRANCH  33  34
HETATM   34  C2  UNL     1      18.416   4.749  49.809  1.00  0.00     0.174 C 
HETATM   35  C1  UNL     1      18.808   5.671  48.707  1.00  0.00     0.034 C 
ENDBRANCH  33  34
ENDBRANCH  31  33
ENDBRANCH  30  31
ENDBRANCH   1  30
TORSDOF 7
ENDMDL
MODEL 9
REMARK VINA RESULT:      -7.3      7.148      9.910
REMARK  7 active torsions:
REMARK  status: ('A' for Active; 'I' for Inactive)
REMARK    1  A    between atoms: C2_2  and  O1_3 
REMARK    2  A    between atoms: O1_3  and  C3_4 
REMARK    3  A    between atoms: C3_4  and  C4_6 
REMARK    4  A    between atoms: C4_6  and  N1_7 
REMARK    5  A    between atoms: C5_8  and  O3_9 
REMARK    6  A    between atoms: O3_9  and  C6_10 
REMARK    7  A    between atoms: C6_10  and  C7_11 
ROOT
HETATM    1  N1  UNL     1      30.237   6.839  47.653  1.00  0.00    -0.319 N 
HETATM    2  C5  UNL     1      30.777   7.332  46.413  1.00  0.00     0.142 C 
HETATM    3  C13 UNL     1      30.208   7.936  45.354  1.00  0.00     0.037 C 
HETATM    4  C14 UNL     1      28.730   8.106  45.560  1.00  0.00     0.096 C 
HETATM    5  C15 UNL     1      27.877   8.683  44.658  1.00  0.00     0.072 C 
HETATM    6  N2  UNL     1      26.477   8.762  45.038  1.00  0.00    -0.377 N 
HETATM    7  C16 UNL     1      25.543   9.785  45.467  1.00  0.00     0.097 C 
HETATM    8  C17 UNL     1      25.174  10.530  44.238  1.00  0.00     0.091 C 
HETATM    9  N3  UNL     1      25.231   9.863  46.693  1.00  0.00    -0.230 NA
HETATM   10  C18 UNL     1      24.370  10.741  47.355  1.00  0.00     0.231 C 
HETATM   11  N4  UNL     1      24.630   9.959  48.382  1.00  0.00    -0.257 NA
HETATM   12  C19 UNL     1      25.510   8.873  48.148  1.00  0.00     0.325 C 
HETATM   13  O4  UNL     1      25.835   8.099  49.306  1.00  0.00    -0.330 OA
HETATM   14  C20 UNL     1      26.720   7.037  48.964  1.00  0.00     0.073 A 
HETATM   15  C21 UNL     1      26.475   5.691  49.027  1.00  0.00     0.037 A 
HETATM   16  C22 UNL     1      27.420   4.783  48.662  1.00  0.00     0.005 A 
HETATM   17  C23 UNL     1      28.634   5.339  48.226  1.00  0.00     0.030 A 
HETATM   18  C24 UNL     1      28.899   6.716  48.156  1.00  0.00     0.039 A 
HETATM   19  C25 UNL     1      27.908   7.583  48.539  1.00  0.00     0.066 A 
HETATM   20  H17 UNL     1      25.814   7.946  45.065  1.00  0.00     0.160 HD
ENDROOT
BRANCH   2  21
HETATM   21  O3  UNL     1      32.177   7.119  46.337  1.00  0.00    -0.331 OA
BRANCH  21  22
HETATM   22  C6  UNL     1      32.751   6.261  45.357  1.00  0.00     0.216 C 
BRANCH  22  23
HETATM   23  C7  UNL     1      33.358   5.124  46.138  1.00  0.00    -0.031 A 
HETATM   24  C8  UNL     1      33.119   3.794  45.882  1.00  0.00     0.009 A 
HETATM   25  C9  UNL     1      33.747   2.866  46.698  1.00  0.00     0.004 A 
HETATM   26  C10 UNL     1      34.569   3.336  47.715  1.00  0.00     0.042 A 
HETATM   27  C11 UNL     1      34.822   4.649  47.989  1.00  0.00     0.117 A 
HETATM   28  F1  UNL     1      35.622   5.084  48.979  1.00  0.00    -0.206 F 
HETATM   29  C12 UNL     1      34.192   5.561  47.170  1.00  0.00     0.051 A 
ENDBRANCH  22  23
ENDBRANCH  21  22
ENDBRANCH   2  21
BRANCH   1  30
HETATM   30  C4  UNL     1      31.199   6.305  48.596  1.00  0.00     0.242 C 
BRANCH  30  31
HETATM   31  C3  UNL     1      31.689   7.249  49.592  1.00  0.00     0.277 C 
HETATM   32  O2  UNL     1      32.059   6.732  50.671  1.00  0.00    -0.263 OA
BRANCH  31  33
HETATM   33  O1  UNL     1      31.800   8.607  49.498  1.00  0.00    -0.321 OA
BRANCH  33  34
HETATM   34  C2  UNL     1      30.812   9.573  49.650  1.00  0.00     0.174 C 
HETATM   35  C1  UNL     1      30.535  10.433  48.466  1.00  0.00     0.034 C 
ENDBRANCH  33  34
ENDBRANCH  31  33
ENDBRANCH  30  31
ENDBRANCH   1  30
TORSDOF 7
ENDMDL
