MODEL 1
REMARK VINA RESULT:      -7.4      0.000      0.000
REMARK  2 active torsions:
REMARK  status: ('A' for Active; 'I' for Inactive)
REMARK    1  A    between atoms: N1_13  and  C12_14 
REMARK    2  A    between atoms: C12_14  and  C13_15 
ROOT
HETATM    1  C1  UNL     1      23.380   4.758  52.744  1.00  0.00     0.043 C 
HETATM    2  C2  UNL     1      22.709   3.653  52.455  1.00  0.00     0.025 C 
HETATM    3  C3  UNL     1      23.486   2.432  52.777  1.00  0.00     0.047 C 
HETATM    4  C4  UNL     1      23.254   1.179  52.416  1.00  0.00     0.013 C 
HETATM    5 BR1  UNL     1      24.591   0.022  53.124  1.00  0.00    -0.051 Br
HETATM    6  C5  UNL     1      22.255   0.473  51.625  1.00  0.00     0.018 C 
HETATM    7  C6  UNL     1      21.232   0.822  50.827  1.00  0.00     0.018 C 
HETATM    8  C7  UNL     1      20.537   2.039  50.297  1.00  0.00     0.132 C 
HETATM    9  C8  UNL     1      19.190   1.517  49.831  1.00  0.00     0.048 C 
HETATM   10  C9  UNL     1      18.766   2.695  49.280  1.00  0.00     0.058 C 
HETATM   11  C10 UNL     1      19.457   3.331  48.083  1.00  0.00     0.048 C 
HETATM   12  C11 UNL     1      20.523   2.556  47.730  1.00  0.00     0.090 C 
HETATM   13  N1  UNL     1      21.239   2.245  49.014  1.00  0.00    -0.363 N 
HETATM   14  N2  UNL     1      17.726   3.457  50.022  1.00  0.00    -0.242 NA
HETATM   15  C19 UNL     1      18.076   3.954  51.276  1.00  0.00     0.235 C 
HETATM   16  N3  UNL     1      19.389   3.739  51.940  1.00  0.00    -0.225 NA
HETATM   17  C20 UNL     1      20.389   3.107  51.253  1.00  0.00     0.142 C 
HETATM   18  N4  UNL     1      21.398   3.927  51.902  1.00  0.00    -0.342 N 
HETATM   19  H16 UNL     1      21.101   4.946  51.991  1.00  0.00     0.167 HD
ENDROOT
BRANCH  13  20
HETATM   20  C12 UNL     1      22.690   2.126  48.732  1.00  0.00     0.162 C 
BRANCH  20  21
HETATM   21  C13 UNL     1      23.407   3.385  48.983  1.00  0.00    -0.040 A 
HETATM   22  C14 UNL     1      22.936   4.668  48.827  1.00  0.00     0.010 A 
HETATM   23  C15 UNL     1      23.653   5.812  49.082  1.00  0.00     0.024 A 
HETATM   24  C16 UNL     1      24.933   5.708  49.525  1.00  0.00     0.034 A 
HETATM   25 CL1  UNL     1      25.835   7.170  49.845  1.00  0.00    -0.084 Cl
HETATM   26  C17 UNL     1      25.473   4.459  49.705  1.00  0.00     0.024 A 
HETATM   27  C18 UNL     1      24.728   3.329  49.440  1.00  0.00     0.010 A 
ENDBRANCH  20  21
ENDBRANCH  13  20
TORSDOF 2
ENDMDL
MODEL 2
REMARK VINA RESULT:      -7.2      3.133      5.241
REMARK  2 active torsions:
REMARK  status: ('A' for Active; 'I' for Inactive)
REMARK    1  A    between atoms: N1_13  and  C12_14 
REMARK    2  A    between atoms: C12_14  and  C13_15 
ROOT
HETATM    1  C1  UNL     1      26.498   3.689  48.968  1.00  0.00     0.043 C 
HETATM    2  C2  UNL     1      25.307   4.030  49.436  1.00  0.00     0.025 C 
HETATM    3  C3  UNL     1      25.303   5.406  49.991  1.00  0.00     0.047 C 
HETATM    4  C4  UNL     1      24.388   5.996  50.744  1.00  0.00     0.013 C 
HETATM    5 BR1  UNL     1      24.915   7.778  51.162  1.00  0.00    -0.051 Br
HETATM    6  C5  UNL     1      23.104   5.633  51.329  1.00  0.00     0.018 C 
HETATM    7  C6  UNL     1      22.382   4.507  51.452  1.00  0.00     0.018 C 
HETATM    8  C7  UNL     1      22.435   3.051  51.101  1.00  0.00     0.132 C 
HETATM    9  C8  UNL     1      20.991   2.596  51.209  1.00  0.00     0.048 C 
HETATM   10  C9  UNL     1      21.245   1.270  50.992  1.00  0.00     0.058 C 
HETATM   11  C10 UNL     1      22.070   0.429  51.955  1.00  0.00     0.048 C 
HETATM   12  C11 UNL     1      22.496   1.226  52.977  1.00  0.00     0.090 C 
HETATM   13  N1  UNL     1      23.024   2.473  52.324  1.00  0.00    -0.363 N 
HETATM   14  N2  UNL     1      20.865   0.712  49.666  1.00  0.00    -0.242 NA
HETATM   15  C19 UNL     1      21.535   1.215  48.551  1.00  0.00     0.235 C 
HETATM   16  N3  UNL     1      22.559   2.291  48.588  1.00  0.00    -0.225 NA
HETATM   17  C20 UNL     1      22.982   2.771  49.797  1.00  0.00     0.142 C 
HETATM   18  N4  UNL     1      24.326   2.975  49.284  1.00  0.00    -0.342 N 
HETATM   19  H16 UNL     1      24.650   2.177  48.657  1.00  0.00     0.167 HD
ENDROOT
BRANCH  13  20
HETATM   20  C12 UNL     1      24.138   3.003  53.146  1.00  0.00     0.162 C 
BRANCH  20  21
HETATM   21  C13 UNL     1      25.269   2.067  53.217  1.00  0.00    -0.040 A 
HETATM   22  C14 UNL     1      25.967   1.673  54.334  1.00  0.00     0.010 A 
HETATM   23  C15 UNL     1      27.017   0.787  54.341  1.00  0.00     0.024 A 
HETATM   24  C16 UNL     1      27.428   0.235  53.169  1.00  0.00     0.034 A 
HETATM   25 CL1  UNL     1      28.765  -0.890  53.191  1.00  0.00    -0.084 Cl
HETATM   26  C17 UNL     1      26.779   0.580  52.011  1.00  0.00     0.024 A 
HETATM   27  C18 UNL     1      25.728   1.473  52.036  1.00  0.00     0.010 A 
ENDBRANCH  20  21
ENDBRANCH  13  20
TORSDOF 2
ENDMDL
MODEL 3
REMARK VINA RESULT:      -7.2      2.802      5.178
REMARK  2 active torsions:
REMARK  status: ('A' for Active; 'I' for Inactive)
REMARK    1  A    between atoms: N1_13  and  C12_14 
REMARK    2  A    between atoms: C12_14  and  C13_15 
ROOT
HETATM    1  C1  UNL     1      20.996   0.994  48.988  1.00  0.00     0.043 C 
HETATM    2  C2  UNL     1      21.435   1.805  49.939  1.00  0.00     0.025 C 
HETATM    3  C3  UNL     1      20.808   3.147  49.856  1.00  0.00     0.047 C 
HETATM    4  C4  UNL     1      21.159   4.268  50.467  1.00  0.00     0.013 C 
HETATM    5 BR1  UNL     1      19.986   5.688  49.983  1.00  0.00    -0.051 Br
HETATM    6  C5  UNL     1      22.201   4.686  51.397  1.00  0.00     0.018 C 
HETATM    7  C6  UNL     1      23.311   4.134  51.914  1.00  0.00     0.018 C 
HETATM    8  C7  UNL     1      24.106   2.865  51.867  1.00  0.00     0.132 C 
HETATM    9  C8  UNL     1      24.967   2.927  53.116  1.00  0.00     0.048 C 
HETATM   10  C9  UNL     1      25.689   1.797  52.845  1.00  0.00     0.058 C 
HETATM   11  C10 UNL     1      26.618   1.691  51.645  1.00  0.00     0.048 C 
HETATM   12  C11 UNL     1      26.554   2.856  50.938  1.00  0.00     0.090 C 
HETATM   13  N1  UNL     1      25.090   3.170  50.810  1.00  0.00    -0.363 N 
HETATM   14  N2  UNL     1      25.379   0.583  53.647  1.00  0.00    -0.242 NA
HETATM   15  C19 UNL     1      24.107   0.032  53.497  1.00  0.00     0.235 C 
HETATM   16  N3  UNL     1      23.033   0.593  52.636  1.00  0.00    -0.225 NA
HETATM   17  C20 UNL     1      23.311   1.664  51.831  1.00  0.00     0.142 C 
HETATM   18  N4  UNL     1      22.407   1.171  50.806  1.00  0.00    -0.342 N 
HETATM   19  H16 UNL     1      22.476   0.117  50.673  1.00  0.00     0.167 HD
ENDROOT
BRANCH  13  20
HETATM   20  C12 UNL     1      24.865   3.866  49.520  1.00  0.00     0.162 C 
BRANCH  20  21
HETATM   21  C13 UNL     1      25.686   5.079  49.395  1.00  0.00    -0.040 A 
HETATM   22  C14 UNL     1      26.842   5.242  48.667  1.00  0.00     0.010 A 
HETATM   23  C15 UNL     1      27.569   6.404  48.583  1.00  0.00     0.024 A 
HETATM   24  C16 UNL     1      27.144   7.503  49.260  1.00  0.00     0.034 A 
HETATM   25 CL1  UNL     1      28.078   8.976  49.146  1.00  0.00    -0.084 Cl
HETATM   26  C17 UNL     1      25.998   7.418  50.009  1.00  0.00     0.024 A 
HETATM   27  C18 UNL     1      25.289   6.236  50.074  1.00  0.00     0.010 A 
ENDBRANCH  20  21
ENDBRANCH  13  20
TORSDOF 2
ENDMDL
MODEL 4
REMARK VINA RESULT:      -6.9      3.258      5.409
REMARK  2 active torsions:
REMARK  status: ('A' for Active; 'I' for Inactive)
REMARK    1  A    between atoms: N1_13  and  C12_14 
REMARK    2  A    between atoms: C12_14  and  C13_15 
ROOT
HETATM    1  C1  UNL     1      26.796   2.961  49.328  1.00  0.00     0.043 C 
HETATM    2  C2  UNL     1      26.096   3.251  50.414  1.00  0.00     0.025 C 
HETATM    3  C3  UNL     1      26.398   2.323  51.531  1.00  0.00     0.047 C 
HETATM    4  C4  UNL     1      25.742   2.149  52.668  1.00  0.00     0.013 C 
HETATM    5 BR1  UNL     1      26.590   0.816  53.732  1.00  0.00    -0.051 Br
HETATM    6  C5  UNL     1      24.552   2.705  53.300  1.00  0.00     0.018 C 
HETATM    7  C6  UNL     1      23.559   3.530  52.930  1.00  0.00     0.018 C 
HETATM    8  C7  UNL     1      23.089   4.324  51.749  1.00  0.00     0.132 C 
HETATM    9  C8  UNL     1      22.128   5.336  52.347  1.00  0.00     0.048 C 
HETATM   10  C9  UNL     1      21.717   5.862  51.153  1.00  0.00     0.058 C 
HETATM   11  C10 UNL     1      20.950   5.046  50.124  1.00  0.00     0.048 C 
HETATM   12  C11 UNL     1      20.805   3.774  50.593  1.00  0.00     0.090 C 
HETATM   13  N1  UNL     1      22.161   3.375  51.104  1.00  0.00    -0.363 N 
HETATM   14  N2  UNL     1      22.229   7.212  50.793  1.00  0.00    -0.242 NA
HETATM   15  C19 UNL     1      23.602   7.336  50.588  1.00  0.00     0.235 C 
HETATM   16  N3  UNL     1      24.589   6.236  50.748  1.00  0.00    -0.225 NA
HETATM   17  C20 UNL     1      24.142   4.969  51.006  1.00  0.00     0.142 C 
HETATM   18  N4  UNL     1      25.224   4.393  50.227  1.00  0.00    -0.342 N 
HETATM   19  H16 UNL     1      25.416   4.934  49.330  1.00  0.00     0.167 HD
ENDROOT
BRANCH  13  20
HETATM   20  C12 UNL     1      22.332   1.916  50.904  1.00  0.00     0.162 C 
BRANCH  20  21
HETATM   21  C13 UNL     1      21.219   1.144  51.474  1.00  0.00    -0.040 A 
HETATM   22  C14 UNL     1      20.074   0.722  50.840  1.00  0.00     0.010 A 
HETATM   23  C15 UNL     1      19.065  -0.003  51.425  1.00  0.00     0.024 A 
HETATM   24  C16 UNL     1      19.170  -0.351  52.735  1.00  0.00     0.034 A 
HETATM   25 CL1  UNL     1      17.879  -1.273  53.468  1.00  0.00    -0.084 Cl
HETATM   26  C17 UNL     1      20.285   0.034  53.435  1.00  0.00     0.024 A 
HETATM   27  C18 UNL     1      21.283   0.762  52.820  1.00  0.00     0.010 A 
ENDBRANCH  20  21
ENDBRANCH  13  20
TORSDOF 2
ENDMDL
MODEL 5
REMARK VINA RESULT:      -6.9      3.106      5.582
REMARK  2 active torsions:
REMARK  status: ('A' for Active; 'I' for Inactive)
REMARK    1  A    between atoms: N1_13  and  C12_14 
REMARK    2  A    between atoms: C12_14  and  C13_15 
ROOT
HETATM    1  C1  UNL     1      19.629   3.664  51.957  1.00  0.00     0.043 C 
HETATM    2  C2  UNL     1      20.162   4.168  50.855  1.00  0.00     0.025 C 
HETATM    3  C3  UNL     1      19.380   3.810  49.647  1.00  0.00     0.047 C 
HETATM    4  C4  UNL     1      19.720   3.924  48.373  1.00  0.00     0.013 C 
HETATM    5 BR1  UNL     1      18.313   3.304  47.248  1.00  0.00    -0.051 Br
HETATM    6  C5  UNL     1      20.880   4.390  47.623  1.00  0.00     0.018 C 
HETATM    7  C6  UNL     1      22.131   4.775  47.923  1.00  0.00     0.018 C 
HETATM    8  C7  UNL     1      23.041   4.950  49.100  1.00  0.00     0.132 C 
HETATM    9  C8  UNL     1      24.135   5.867  48.584  1.00  0.00     0.048 C 
HETATM   10  C9  UNL     1      24.909   5.809  49.711  1.00  0.00     0.058 C 
HETATM   11  C10 UNL     1      25.567   4.522  50.183  1.00  0.00     0.048 C 
HETATM   12  C11 UNL     1      25.218   3.514  49.333  1.00  0.00     0.090 C 
HETATM   13  N1  UNL     1      23.734   3.647  49.136  1.00  0.00    -0.363 N 
HETATM   14  N2  UNL     1      24.921   7.010  50.589  1.00  0.00    -0.242 NA
HETATM   15  C19 UNL     1      23.720   7.355  51.207  1.00  0.00     0.235 C 
HETATM   16  N3  UNL     1      22.429   6.644  51.014  1.00  0.00    -0.225 NA
HETATM   17  C20 UNL     1      22.402   5.495  50.272  1.00  0.00     0.142 C 
HETATM   18  N4  UNL     1      21.365   4.932  51.118  1.00  0.00    -0.342 N 
HETATM   19  H16 UNL     1      21.525   5.134  52.152  1.00  0.00     0.167 HD
ENDROOT
BRANCH  13  20
HETATM   20  C12 UNL     1      23.159   2.296  48.931  1.00  0.00     0.162 C 
BRANCH  20  21
HETATM   21  C13 UNL     1      22.668   1.707  50.184  1.00  0.00    -0.040 A 
HETATM   22  C14 UNL     1      23.159   1.898  51.454  1.00  0.00     0.010 A 
HETATM   23  C15 UNL     1      22.655   1.322  52.595  1.00  0.00     0.024 A 
HETATM   24  C16 UNL     1      21.584   0.491  52.501  1.00  0.00     0.034 A 
HETATM   25 CL1  UNL     1      20.952  -0.237  53.959  1.00  0.00    -0.084 Cl
HETATM   26  C17 UNL     1      21.038   0.251  51.266  1.00  0.00     0.024 A 
HETATM   27  C18 UNL     1      21.567   0.843  50.138  1.00  0.00     0.010 A 
ENDBRANCH  20  21
ENDBRANCH  13  20
TORSDOF 2
ENDMDL
MODEL 6
REMARK VINA RESULT:      -6.9      3.321      5.140
REMARK  2 active torsions:
REMARK  status: ('A' for Active; 'I' for Inactive)
REMARK    1  A    between atoms: N1_13  and  C12_14 
REMARK    2  A    between atoms: C12_14  and  C13_15 
ROOT
HETATM    1  C1  UNL     1      20.850   2.139  47.896  1.00  0.00     0.043 C 
HETATM    2  C2  UNL     1      20.858   2.475  49.177  1.00  0.00     0.025 C 
HETATM    3  C3  UNL     1      21.384   3.846  49.387  1.00  0.00     0.047 C 
HETATM    4  C4  UNL     1      21.760   4.429  50.515  1.00  0.00     0.013 C 
HETATM    5 BR1  UNL     1      22.354   6.207  50.182  1.00  0.00    -0.051 Br
HETATM    6  C5  UNL     1      21.837   4.060  51.923  1.00  0.00     0.018 C 
HETATM    7  C6  UNL     1      21.682   2.931  52.635  1.00  0.00     0.018 C 
HETATM    8  C7  UNL     1      21.363   1.479  52.452  1.00  0.00     0.132 C 
HETATM    9  C8  UNL     1      20.938   1.021  53.835  1.00  0.00     0.048 C 
HETATM   10  C9  UNL     1      20.817  -0.303  53.514  1.00  0.00     0.058 C 
HETATM   11  C10 UNL     1      22.007  -1.151  53.090  1.00  0.00     0.048 C 
HETATM   12  C11 UNL     1      23.120  -0.363  53.067  1.00  0.00     0.090 C 
HETATM   13  N1  UNL     1      22.712   0.890  52.343  1.00  0.00    -0.363 N 
HETATM   14  N2  UNL     1      19.440  -0.850  53.387  1.00  0.00    -0.242 NA
HETATM   15  C19 UNL     1      18.646  -0.337  52.361  1.00  0.00     0.235 C 
HETATM   16  N3  UNL     1      19.060   0.741  51.424  1.00  0.00    -0.225 NA
HETATM   17  C20 UNL     1      20.344   1.210  51.469  1.00  0.00     0.142 C 
HETATM   18  N4  UNL     1      20.353   1.421  50.032  1.00  0.00    -0.342 N 
HETATM   19  H16 UNL     1      19.880   0.628  49.499  1.00  0.00     0.167 HD
ENDROOT
BRANCH  13  20
HETATM   20  C12 UNL     1      23.886   1.415  51.605  1.00  0.00     0.162 C 
BRANCH  20  21
HETATM   21  C13 UNL     1      25.124   1.314  52.390  1.00  0.00    -0.040 A 
HETATM   22  C14 UNL     1      25.497   2.070  53.477  1.00  0.00     0.010 A 
HETATM   23  C15 UNL     1      26.670   1.927  54.177  1.00  0.00     0.024 A 
HETATM   24  C16 UNL     1      27.559   0.974  53.796  1.00  0.00     0.034 A 
HETATM   25 CL1  UNL     1      29.048   0.803  54.694  1.00  0.00    -0.084 Cl
HETATM   26  C17 UNL     1      27.258   0.180  52.718  1.00  0.00     0.024 A 
HETATM   27  C18 UNL     1      26.071   0.346  52.034  1.00  0.00     0.010 A 
ENDBRANCH  20  21
ENDBRANCH  13  20
TORSDOF 2
ENDMDL
MODEL 7
REMARK VINA RESULT:      -6.8      9.020     11.841
REMARK  2 active torsions:
REMARK  status: ('A' for Active; 'I' for Inactive)
REMARK    1  A    between atoms: N1_13  and  C12_14 
REMARK    2  A    between atoms: C12_14  and  C13_15 
ROOT
HETATM    1  C1  UNL     1      28.578   9.597  45.721  1.00  0.00     0.043 C 
HETATM    2  C2  UNL     1      29.064   8.434  46.126  1.00  0.00     0.025 C 
HETATM    3  C3  UNL     1      28.114   7.714  47.010  1.00  0.00     0.047 C 
HETATM    4  C4  UNL     1      28.332   6.662  47.783  1.00  0.00     0.013 C 
HETATM    5 BR1  UNL     1      26.737   6.164  48.698  1.00  0.00    -0.051 Br
HETATM    6  C5  UNL     1      29.464   5.806  48.111  1.00  0.00     0.018 C 
HETATM    7  C6  UNL     1      30.784   5.813  47.862  1.00  0.00     0.018 C 
HETATM    8  C7  UNL     1      31.828   6.626  47.159  1.00  0.00     0.132 C 
HETATM    9  C8  UNL     1      32.988   5.663  46.988  1.00  0.00     0.048 C 
HETATM   10  C9  UNL     1      33.859   6.582  46.469  1.00  0.00     0.058 C 
HETATM   11  C10 UNL     1      34.359   7.774  47.271  1.00  0.00     0.048 C 
HETATM   12  C11 UNL     1      33.774   7.750  48.503  1.00  0.00     0.090 C 
HETATM   13  N1  UNL     1      32.315   7.491  48.252  1.00  0.00    -0.363 N 
HETATM   14  N2  UNL     1      34.144   6.501  45.012  1.00  0.00    -0.242 NA
HETATM   15  C19 UNL     1      33.081   6.740  44.143  1.00  0.00     0.235 C 
HETATM   16  N3  UNL     1      31.684   7.022  44.565  1.00  0.00    -0.225 NA
HETATM   17  C20 UNL     1      31.406   7.176  45.896  1.00  0.00     0.142 C 
HETATM   18  N4  UNL     1      30.389   8.171  45.603  1.00  0.00    -0.342 N 
HETATM   19  H16 UNL     1      30.686   8.845  44.833  1.00  0.00     0.167 HD
ENDROOT
BRANCH  13  20
HETATM   20  C12 UNL     1      31.524   8.180  49.300  1.00  0.00     0.162 C 
BRANCH  20  21
HETATM   21  C13 UNL     1      31.063   9.505  48.864  1.00  0.00    -0.040 A 
HETATM   22  C14 UNL     1      31.696  10.378  48.009  1.00  0.00     0.010 A 
HETATM   23  C15 UNL     1      31.215  11.608  47.632  1.00  0.00     0.024 A 
HETATM   24  C16 UNL     1      30.020  12.032  48.122  1.00  0.00     0.034 A 
HETATM   25 CL1  UNL     1      29.418  13.598  47.635  1.00  0.00    -0.084 Cl
HETATM   26  C17 UNL     1      29.329  11.215  48.980  1.00  0.00     0.024 A 
HETATM   27  C18 UNL     1      29.838   9.985  49.342  1.00  0.00     0.010 A 
ENDBRANCH  20  21
ENDBRANCH  13  20
TORSDOF 2
ENDMDL
MODEL 8
REMARK VINA RESULT:      -6.2      3.558      5.365
REMARK  2 active torsions:
REMARK  status: ('A' for Active; 'I' for Inactive)
REMARK    1  A    between atoms: N1_13  and  C12_14 
REMARK    2  A    between atoms: C12_14  and  C13_15 
ROOT
HETATM    1  C1  UNL     1      18.745   5.395  47.687  1.00  0.00     0.043 C 
HETATM    2  C2  UNL     1      19.413   5.745  48.776  1.00  0.00     0.025 C 
HETATM    3  C3  UNL     1      19.653   7.207  48.833  1.00  0.00     0.047 C 
HETATM    4  C4  UNL     1      20.470   7.886  49.624  1.00  0.00     0.013 C 
HETATM    5 BR1  UNL     1      20.365   9.750  49.252  1.00  0.00    -0.051 Br
HETATM    6  C5  UNL     1      21.419   7.573  50.685  1.00  0.00     0.018 C 
HETATM    7  C6  UNL     1      21.948   6.454  51.208  1.00  0.00     0.018 C 
HETATM    8  C7  UNL     1      21.906   4.965  51.047  1.00  0.00     0.132 C 
HETATM    9  C8  UNL     1      22.462   4.440  52.357  1.00  0.00     0.048 C 
HETATM   10  C9  UNL     1      22.469   3.122  51.988  1.00  0.00     0.058 C 
HETATM   11  C10 UNL     1      23.350   2.595  50.866  1.00  0.00     0.048 C 
HETATM   12  C11 UNL     1      24.045   3.638  50.328  1.00  0.00     0.090 C 
HETATM   13  N1  UNL     1      23.037   4.734  50.127  1.00  0.00    -0.363 N 
HETATM   14  N2  UNL     1      21.425   2.244  52.582  1.00  0.00    -0.242 NA
HETATM   15  C19 UNL     1      20.100   2.522  52.252  1.00  0.00     0.235 C 
HETATM   16  N3  UNL     1      19.656   3.652  51.394  1.00  0.00    -0.225 NA
HETATM   17  C20 UNL     1      20.595   4.431  50.776  1.00  0.00     0.142 C 
HETATM   18  N4  UNL     1      19.732   4.612  49.621  1.00  0.00    -0.342 N 
HETATM   19  H16 UNL     1      19.225   3.717  49.345  1.00  0.00     0.167 HD
ENDROOT
BRANCH  13  20
HETATM   20  C12 UNL     1      23.427   5.525  48.935  1.00  0.00     0.162 C 
BRANCH  20  21
HETATM   21  C13 UNL     1      22.754   5.057  47.715  1.00  0.00    -0.040 A 
HETATM   22  C14 UNL     1      22.294   3.790  47.441  1.00  0.00     0.010 A 
HETATM   23  C15 UNL     1      21.665   3.409  46.280  1.00  0.00     0.024 A 
HETATM   24  C16 UNL     1      21.464   4.329  45.301  1.00  0.00     0.034 A 
HETATM   25 CL1  UNL     1      20.664   3.832  43.829  1.00  0.00    -0.084 Cl
HETATM   26  C17 UNL     1      21.896   5.615  45.502  1.00  0.00     0.024 A 
HETATM   27  C18 UNL     1      22.525   5.969  46.678  1.00  0.00     0.010 A 
ENDBRANCH  20  21
ENDBRANCH  13  20
TORSDOF 2
ENDMDL
MODEL 9
REMARK VINA RESULT:      -6.1      4.558      6.609
REMARK  2 active torsions:
REMARK  status: ('A' for Active; 'I' for Inactive)
REMARK    1  A    between atoms: N1_13  and  C12_14 
REMARK    2  A    between atoms: C12_14  and  C13_15 
ROOT
HETATM    1  C1  UNL     1      15.840  -1.888  52.705  1.00  0.00     0.043 C 
HETATM    2  C2  UNL     1      15.709  -0.976  51.754  1.00  0.00     0.025 C 
HETATM    3  C3  UNL     1      15.581  -1.590  50.410  1.00  0.00     0.047 C 
HETATM    4  C4  UNL     1      15.671  -1.016  49.221  1.00  0.00     0.013 C 
HETATM    5 BR1  UNL     1      15.421  -2.301  47.838  1.00  0.00    -0.051 Br
HETATM    6  C5  UNL     1      15.913   0.327  48.710  1.00  0.00     0.018 C 
HETATM    7  C6  UNL     1      16.275   1.510  49.234  1.00  0.00     0.018 C 
HETATM    8  C7  UNL     1      16.625   2.137  50.549  1.00  0.00     0.132 C 
HETATM    9  C8  UNL     1      16.455   3.624  50.302  1.00  0.00     0.048 C 
HETATM   10  C9  UNL     1      16.926   4.025  51.522  1.00  0.00     0.058 C 
HETATM   11  C10 UNL     1      18.364   3.788  51.958  1.00  0.00     0.048 C 
HETATM   12  C11 UNL     1      19.017   3.116  50.967  1.00  0.00     0.090 C 
HETATM   13  N1  UNL     1      18.095   2.001  50.560  1.00  0.00    -0.363 N 
HETATM   14  N2  UNL     1      15.928   4.517  52.509  1.00  0.00    -0.242 NA
HETATM   15  C19 UNL     1      14.982   3.601  52.966  1.00  0.00     0.235 C 
HETATM   16  N3  UNL     1      14.873   2.191  52.507  1.00  0.00    -0.225 NA
HETATM   17  C20 UNL     1      15.820   1.689  51.658  1.00  0.00     0.142 C 
HETATM   18  N4  UNL     1      15.725   0.377  52.274  1.00  0.00    -0.342 N 
HETATM   19  H16 UNL     1      15.645   0.428  53.335  1.00  0.00     0.167 HD
ENDROOT
BRANCH  13  20
HETATM   20  C12 UNL     1      18.913   0.840  50.134  1.00  0.00     0.162 C 
BRANCH  20  21
HETATM   21  C13 UNL     1      19.780   0.348  51.214  1.00  0.00    -0.040 A 
HETATM   22  C14 UNL     1      21.155   0.304  51.237  1.00  0.00     0.010 A 
HETATM   23  C15 UNL     1      21.916  -0.165  52.279  1.00  0.00     0.024 A 
HETATM   24  C16 UNL     1      21.297  -0.632  53.396  1.00  0.00     0.034 A 
HETATM   25 CL1  UNL     1      22.276  -1.226  54.715  1.00  0.00    -0.084 Cl
HETATM   26  C17 UNL     1      19.926  -0.620  53.447  1.00  0.00     0.024 A 
HETATM   27  C18 UNL     1      19.188  -0.143  52.384  1.00  0.00     0.010 A 
ENDBRANCH  20  21
ENDBRANCH  13  20
TORSDOF 2
ENDMDL
