MODEL 1
REMARK VINA RESULT:      -8.7      0.000      0.000
REMARK  6 active torsions:
REMARK  status: ('A' for Active; 'I' for Inactive)
REMARK    1  A    between atoms: N1_1  and  C1_2 
REMARK    2  A    between atoms: N2_5  and  C4_6 
REMARK    3  A    between atoms: C4_6  and  C5_7 
REMARK    4  A    between atoms: C9_14  and  N6_15 
REMARK    5  A    between atoms: N6_15  and  C10_16 
REMARK    6  A    between atoms: C15_21  and  O1_22 
ROOT
HETATM    1  C5  UNL     1      22.807   0.623  52.508  1.00  0.00     0.004 A 
HETATM    2  C6  UNL     1      21.435   0.514  52.725  1.00  0.00     0.030 A 
HETATM    3  C7  UNL     1      21.211  -0.219  53.863  1.00  0.00     0.119 A 
HETATM    4  N3  UNL     1      22.426  -0.541  54.316  1.00  0.00    -0.240 N 
HETATM    5  N4  UNL     1      22.637  -1.265  55.429  1.00  0.00    -0.161 NA
HETATM    6  C8  UNL     1      23.892  -1.535  55.799  1.00  0.00     0.258 A 
HETATM    7  N5  UNL     1      24.887  -1.074  55.049  1.00  0.00    -0.220 NA
HETATM    8  C9  UNL     1      24.695  -0.356  53.945  1.00  0.00     0.159 A 
HETATM    9  C16 UNL     1      23.420  -0.054  53.527  1.00  0.00     0.112 A 
ENDROOT
BRANCH   1  10
HETATM   10  C4  UNL     1      23.482   1.332  51.406  1.00  0.00     0.313 C 
BRANCH  10  11
HETATM   11  N2  UNL     1      23.065   2.729  51.452  1.00  0.00     0.092 N 
HETATM   12  C3  UNL     1      23.839   3.549  52.331  1.00  0.00     0.275 C 
HETATM   13  C2  UNL     1      23.006   4.772  52.650  1.00  0.00     0.065 C 
HETATM   14  C1  UNL     1      22.845   5.535  51.327  1.00  0.00     0.221 C 
HETATM   15  C18 UNL     1      22.148   4.636  50.353  1.00  0.00     0.065 C 
HETATM   16  C17 UNL     1      22.844   3.304  50.160  1.00  0.00     0.275 C 
BRANCH  14  17
HETATM   17  N1  UNL     1      21.988   6.692  51.518  1.00  0.00     0.083 N 
HETATM   18  H1  UNL     1      21.046   6.431  51.153  1.00  0.00     0.313 HD
HETATM   19  H2  UNL     1      22.319   7.553  51.073  1.00  0.00     0.313 HD
ENDBRANCH  14  17
ENDBRANCH  10  11
ENDBRANCH   1  10
BRANCH   8  20
HETATM   20  N6  UNL     1      25.771   0.106  53.163  1.00  0.00    -0.337 N 
HETATM   21  H13 UNL     1      25.661   0.643  52.297  1.00  0.00     0.167 HD
BRANCH  20  22
HETATM   22  C10 UNL     1      27.166  -0.053  53.336  1.00  0.00     0.067 A 
HETATM   23  C11 UNL     1      27.782  -1.249  53.047  1.00  0.00     0.032 A 
HETATM   24  C12 UNL     1      29.147  -1.475  53.188  1.00  0.00     0.002 A 
HETATM   25  C13 UNL     1      29.970  -0.490  53.633  1.00  0.00     0.003 A 
HETATM   26  C14 UNL     1      29.401   0.723  53.935  1.00  0.00     0.039 A 
HETATM   27  C15 UNL     1      28.051   0.900  53.781  1.00  0.00     0.092 A 
BRANCH  27  28
HETATM   28  O1  UNL     1      27.529   2.165  54.107  1.00  0.00    -0.358 OA
HETATM   29  H18 UNL     1      28.132   2.847  54.523  1.00  0.00     0.217 HD
ENDBRANCH  27  28
ENDBRANCH  20  22
ENDBRANCH   8  20
TORSDOF 6
ENDMDL
MODEL 2
REMARK VINA RESULT:      -8.2      2.448      6.874
REMARK  6 active torsions:
REMARK  status: ('A' for Active; 'I' for Inactive)
REMARK    1  A    between atoms: N1_1  and  C1_2 
REMARK    2  A    between atoms: N2_5  and  C4_6 
REMARK    3  A    between atoms: C4_6  and  C5_7 
REMARK    4  A    between atoms: C9_14  and  N6_15 
REMARK    5  A    between atoms: N6_15  and  C10_16 
REMARK    6  A    between atoms: C15_21  and  O1_22 
ROOT
HETATM    1  C5  UNL     1      25.974   2.375  52.081  1.00  0.00     0.004 A 
HETATM    2  C6  UNL     1      26.949   2.755  51.161  1.00  0.00     0.030 A 
HETATM    3  C7  UNL     1      26.346   3.122  49.984  1.00  0.00     0.119 A 
HETATM    4  N3  UNL     1      25.037   2.963  50.199  1.00  0.00    -0.240 N 
HETATM    5  N4  UNL     1      24.095   3.224  49.275  1.00  0.00    -0.161 NA
HETATM    6  C8  UNL     1      22.810   3.032  49.587  1.00  0.00     0.258 A 
HETATM    7  N5  UNL     1      22.512   2.591  50.803  1.00  0.00    -0.220 NA
HETATM    8  C9  UNL     1      23.432   2.328  51.730  1.00  0.00     0.159 A 
HETATM    9  C16 UNL     1      24.766   2.512  51.453  1.00  0.00     0.112 A 
ENDROOT
BRANCH   1  10
HETATM   10  C4  UNL     1      26.185   1.920  53.467  1.00  0.00     0.313 C 
BRANCH  10  11
HETATM   11  N2  UNL     1      26.801   0.599  53.414  1.00  0.00     0.092 N 
HETATM   12  C3  UNL     1      26.311  -0.241  52.365  1.00  0.00     0.275 C 
HETATM   13  C2  UNL     1      26.643  -1.668  52.743  1.00  0.00     0.065 C 
HETATM   14  C1  UNL     1      28.176  -1.765  52.737  1.00  0.00     0.221 C 
HETATM   15  C18 UNL     1      28.709  -0.793  53.743  1.00  0.00     0.065 C 
HETATM   16  C17 UNL     1      28.228   0.626  53.521  1.00  0.00     0.275 C 
BRANCH  14  17
HETATM   17  N1  UNL     1      28.596  -3.088  53.167  1.00  0.00     0.083 N 
HETATM   18  H1  UNL     1      28.306  -3.185  54.164  1.00  0.00     0.313 HD
HETATM   19  H2  UNL     1      29.597  -3.278  53.065  1.00  0.00     0.313 HD
ENDBRANCH  14  17
ENDBRANCH  10  11
ENDBRANCH   1  10
BRANCH   8  20
HETATM   20  N6  UNL     1      23.085   1.848  53.007  1.00  0.00    -0.337 N 
HETATM   21  H13 UNL     1      23.413   2.263  53.884  1.00  0.00     0.167 HD
BRANCH  20  22
HETATM   22  C10 UNL     1      22.281   0.747  53.386  1.00  0.00     0.067 A 
HETATM   23  C11 UNL     1      22.848  -0.404  53.883  1.00  0.00     0.032 A 
HETATM   24  C12 UNL     1      22.121  -1.521  54.279  1.00  0.00     0.002 A 
HETATM   25  C13 UNL     1      20.766  -1.532  54.193  1.00  0.00     0.003 A 
HETATM   26  C14 UNL     1      20.153  -0.405  53.702  1.00  0.00     0.039 A 
HETATM   27  C15 UNL     1      20.910   0.672  53.323  1.00  0.00     0.092 A 
BRANCH  27  28
HETATM   28  O1  UNL     1      20.224   1.797  52.828  1.00  0.00    -0.358 OA
HETATM   29  H18 UNL     1      20.751   2.554  52.438  1.00  0.00     0.217 HD
ENDBRANCH  27  28
ENDBRANCH  20  22
ENDBRANCH   8  20
TORSDOF 6
ENDMDL
MODEL 3
REMARK VINA RESULT:      -8.1      2.018      4.803
REMARK  6 active torsions:
REMARK  status: ('A' for Active; 'I' for Inactive)
REMARK    1  A    between atoms: N1_1  and  C1_2 
REMARK    2  A    between atoms: N2_5  and  C4_6 
REMARK    3  A    between atoms: C4_6  and  C5_7 
REMARK    4  A    between atoms: C9_14  and  N6_15 
REMARK    5  A    between atoms: N6_15  and  C10_16 
REMARK    6  A    between atoms: C15_21  and  O1_22 
ROOT
HETATM    1  C5  UNL     1      23.784   1.602  51.910  1.00  0.00     0.004 A 
HETATM    2  C6  UNL     1      22.693   1.704  51.049  1.00  0.00     0.030 A 
HETATM    3  C7  UNL     1      23.060   2.412  49.932  1.00  0.00     0.119 A 
HETATM    4  N3  UNL     1      24.345   2.725  50.124  1.00  0.00    -0.240 N 
HETATM    5  N4  UNL     1      25.079   3.424  49.241  1.00  0.00    -0.161 NA
HETATM    6  C8  UNL     1      26.358   3.687  49.525  1.00  0.00     0.258 A 
HETATM    7  N5  UNL     1      26.856   3.244  50.674  1.00  0.00    -0.220 NA
HETATM    8  C9  UNL     1      26.142   2.550  51.559  1.00  0.00     0.159 A 
HETATM    9  C16 UNL     1      24.823   2.256  51.307  1.00  0.00     0.112 A 
ENDROOT
BRANCH   1  10
HETATM   10  C4  UNL     1      23.828   0.918  53.215  1.00  0.00     0.313 C 
BRANCH  10  11
HETATM   11  N2  UNL     1      22.586   0.169  53.370  1.00  0.00     0.092 N 
HETATM   12  C3  UNL     1      22.667  -0.929  54.282  1.00  0.00     0.275 C 
HETATM   13  C2  UNL     1      21.525  -1.866  53.955  1.00  0.00     0.065 C 
HETATM   14  C1  UNL     1      20.236  -1.094  54.273  1.00  0.00     0.221 C 
HETATM   15  C18 UNL     1      20.202   0.131  53.413  1.00  0.00     0.065 C 
HETATM   16  C17 UNL     1      21.435   0.999  53.557  1.00  0.00     0.275 C 
BRANCH  14  17
HETATM   17  N1  UNL     1      19.075  -1.891  53.914  1.00  0.00     0.083 N 
HETATM   18  H1  UNL     1      19.263  -2.861  54.245  1.00  0.00     0.313 HD
HETATM   19  H2  UNL     1      18.842  -1.891  52.917  1.00  0.00     0.313 HD
ENDBRANCH  14  17
ENDBRANCH  10  11
ENDBRANCH   1  10
BRANCH   8  20
HETATM   20  N6  UNL     1      26.696   2.107  52.775  1.00  0.00    -0.337 N 
HETATM   21  H13 UNL     1      26.469   2.512  53.689  1.00  0.00     0.167 HD
BRANCH  20  22
HETATM   22  C10 UNL     1      27.646   1.092  53.036  1.00  0.00     0.067 A 
HETATM   23  C11 UNL     1      27.309  -0.238  52.922  1.00  0.00     0.032 A 
HETATM   24  C12 UNL     1      28.192  -1.286  53.157  1.00  0.00     0.002 A 
HETATM   25  C13 UNL     1      29.477  -1.042  53.523  1.00  0.00     0.003 A 
HETATM   26  C14 UNL     1      29.860   0.271  53.650  1.00  0.00     0.039 A 
HETATM   27  C15 UNL     1      28.957   1.272  53.409  1.00  0.00     0.092 A 
BRANCH  27  28
HETATM   28  O1  UNL     1      29.410   2.596  53.556  1.00  0.00    -0.358 OA
HETATM   29  H18 UNL     1      29.364   3.028  54.458  1.00  0.00     0.217 HD
ENDBRANCH  27  28
ENDBRANCH  20  22
ENDBRANCH   8  20
TORSDOF 6
ENDMDL
MODEL 4
REMARK VINA RESULT:      -8.1      2.972      6.333
REMARK  6 active torsions:
REMARK  status: ('A' for Active; 'I' for Inactive)
REMARK    1  A    between atoms: N1_1  and  C1_2 
REMARK    2  A    between atoms: N2_5  and  C4_6 
REMARK    3  A    between atoms: C4_6  and  C5_7 
REMARK    4  A    between atoms: C9_14  and  N6_15 
REMARK    5  A    between atoms: N6_15  and  C10_16 
REMARK    6  A    between atoms: C15_21  and  O1_22 
ROOT
HETATM    1  C5  UNL     1      23.505   1.500  52.272  1.00  0.00     0.004 A 
HETATM    2  C6  UNL     1      22.582   0.485  52.511  1.00  0.00     0.030 A 
HETATM    3  C7  UNL     1      21.791   0.319  51.402  1.00  0.00     0.119 A 
HETATM    4  N3  UNL     1      22.234   1.219  50.519  1.00  0.00    -0.240 N 
HETATM    5  N4  UNL     1      21.713   1.374  49.290  1.00  0.00    -0.161 NA
HETATM    6  C8  UNL     1      22.228   2.304  48.480  1.00  0.00     0.258 A 
HETATM    7  N5  UNL     1      23.239   3.042  48.923  1.00  0.00    -0.220 NA
HETATM    8  C9  UNL     1      23.767   2.901  50.138  1.00  0.00     0.159 A 
HETATM    9  C16 UNL     1      23.270   1.956  51.004  1.00  0.00     0.112 A 
ENDROOT
BRANCH   1  10
HETATM   10  C4  UNL     1      24.546   1.994  53.193  1.00  0.00     0.313 C 
BRANCH  10  11
HETATM   11  N2  UNL     1      25.590   0.978  53.273  1.00  0.00     0.092 N 
HETATM   12  C3  UNL     1      26.197   0.654  52.019  1.00  0.00     0.275 C 
HETATM   13  C2  UNL     1      26.848  -0.704  52.176  1.00  0.00     0.065 C 
HETATM   14  C1  UNL     1      27.974  -0.520  53.203  1.00  0.00     0.221 C 
HETATM   15  C18 UNL     1      27.363  -0.054  54.488  1.00  0.00     0.065 C 
HETATM   16  C17 UNL     1      26.524   1.198  54.335  1.00  0.00     0.275 C 
BRANCH  14  17
HETATM   17  N1  UNL     1      28.611  -1.796  53.480  1.00  0.00     0.083 N 
HETATM   18  H1  UNL     1      27.907  -2.536  53.267  1.00  0.00     0.313 HD
HETATM   19  H2  UNL     1      28.966  -1.904  54.435  1.00  0.00     0.313 HD
ENDBRANCH  14  17
ENDBRANCH  10  11
ENDBRANCH   1  10
BRANCH   8  20
HETATM   20  N6  UNL     1      24.831   3.708  50.584  1.00  0.00    -0.337 N 
HETATM   21  H13 UNL     1      25.102   3.806  51.567  1.00  0.00     0.167 HD
BRANCH  20  22
HETATM   22  C10 UNL     1      25.714   4.545  49.861  1.00  0.00     0.067 A 
HETATM   23  C11 UNL     1      26.874   4.045  49.316  1.00  0.00     0.032 A 
HETATM   24  C12 UNL     1      27.784   4.807  48.591  1.00  0.00     0.002 A 
HETATM   25  C13 UNL     1      27.564   6.130  48.376  1.00  0.00     0.003 A 
HETATM   26  C14 UNL     1      26.418   6.675  48.902  1.00  0.00     0.039 A 
HETATM   27  C15 UNL     1      25.550   5.886  49.610  1.00  0.00     0.092 A 
BRANCH  27  28
HETATM   28  O1  UNL     1      24.394   6.504  50.122  1.00  0.00    -0.358 OA
HETATM   29  H18 UNL     1      24.205   7.457  49.881  1.00  0.00     0.217 HD
ENDBRANCH  27  28
ENDBRANCH  20  22
ENDBRANCH   8  20
TORSDOF 6
ENDMDL
MODEL 5
REMARK VINA RESULT:      -7.8      2.169      6.164
REMARK  6 active torsions:
REMARK  status: ('A' for Active; 'I' for Inactive)
REMARK    1  A    between atoms: N1_1  and  C1_2 
REMARK    2  A    between atoms: N2_5  and  C4_6 
REMARK    3  A    between atoms: C4_6  and  C5_7 
REMARK    4  A    between atoms: C9_14  and  N6_15 
REMARK    5  A    between atoms: N6_15  and  C10_16 
REMARK    6  A    between atoms: C15_21  and  O1_22 
ROOT
HETATM    1  C5  UNL     1      23.212   0.077  53.688  1.00  0.00     0.004 A 
HETATM    2  C6  UNL     1      23.386  -1.001  54.553  1.00  0.00     0.030 A 
HETATM    3  C7  UNL     1      22.181  -1.630  54.745  1.00  0.00     0.119 A 
HETATM    4  N3  UNL     1      21.306  -0.939  54.008  1.00  0.00    -0.240 N 
HETATM    5  N4  UNL     1      19.999  -1.244  53.926  1.00  0.00    -0.161 NA
HETATM    6  C8  UNL     1      19.204  -0.490  53.161  1.00  0.00     0.258 A 
HETATM    7  N5  UNL     1      19.739   0.536  52.509  1.00  0.00    -0.220 NA
HETATM    8  C9  UNL     1      21.031   0.852  52.580  1.00  0.00     0.159 A 
HETATM    9  C16 UNL     1      21.886   0.103  53.353  1.00  0.00     0.112 A 
ENDROOT
BRANCH   1  10
HETATM   10  C4  UNL     1      24.246   1.013  53.211  1.00  0.00     0.313 C 
BRANCH  10  11
HETATM   11  N2  UNL     1      25.546   0.384  53.414  1.00  0.00     0.092 N 
HETATM   12  C3  UNL     1      26.134  -0.156  52.227  1.00  0.00     0.275 C 
HETATM   13  C2  UNL     1      27.165  -1.174  52.662  1.00  0.00     0.065 C 
HETATM   14  C1  UNL     1      28.256  -0.387  53.402  1.00  0.00     0.221 C 
HETATM   15  C18 UNL     1      27.625   0.291  54.579  1.00  0.00     0.065 C 
HETATM   16  C17 UNL     1      26.445   1.166  54.207  1.00  0.00     0.275 C 
BRANCH  14  17
HETATM   17  N1  UNL     1      29.258  -1.296  53.930  1.00  0.00     0.083 N 
HETATM   18  H1  UNL     1      28.960  -2.259  53.663  1.00  0.00     0.313 HD
HETATM   19  H2  UNL     1      29.408  -1.235  54.941  1.00  0.00     0.313 HD
ENDBRANCH  14  17
ENDBRANCH  10  11
ENDBRANCH   1  10
BRANCH   8  20
HETATM   20  N6  UNL     1      21.565   1.955  51.887  1.00  0.00    -0.337 N 
HETATM   21  H13 UNL     1      21.752   2.866  52.318  1.00  0.00     0.167 HD
BRANCH  20  22
HETATM   22  C10 UNL     1      21.929   2.097  50.527  1.00  0.00     0.067 A 
HETATM   23  C11 UNL     1      21.410   1.260  49.566  1.00  0.00     0.032 A 
HETATM   24  C12 UNL     1      21.719   1.345  48.212  1.00  0.00     0.002 A 
HETATM   25  C13 UNL     1      22.579   2.292  47.756  1.00  0.00     0.003 A 
HETATM   26  C14 UNL     1      23.123   3.152  48.679  1.00  0.00     0.039 A 
HETATM   27  C15 UNL     1      22.790   3.031  50.003  1.00  0.00     0.092 A 
BRANCH  27  28
HETATM   28  O1  UNL     1      23.380   3.941  50.899  1.00  0.00    -0.358 OA
HETATM   29  H18 UNL     1      24.357   4.143  50.812  1.00  0.00     0.217 HD
ENDBRANCH  27  28
ENDBRANCH  20  22
ENDBRANCH   8  20
TORSDOF 6
ENDMDL
MODEL 6
REMARK VINA RESULT:      -7.8      2.572      6.365
REMARK  6 active torsions:
REMARK  status: ('A' for Active; 'I' for Inactive)
REMARK    1  A    between atoms: N1_1  and  C1_2 
REMARK    2  A    between atoms: N2_5  and  C4_6 
REMARK    3  A    between atoms: C4_6  and  C5_7 
REMARK    4  A    between atoms: C9_14  and  N6_15 
REMARK    5  A    between atoms: N6_15  and  C10_16 
REMARK    6  A    between atoms: C15_21  and  O1_22 
ROOT
HETATM    1  C5  UNL     1      23.388   2.046  52.810  1.00  0.00     0.004 A 
HETATM    2  C6  UNL     1      22.849   0.775  52.999  1.00  0.00     0.030 A 
HETATM    3  C7  UNL     1      21.579   0.737  52.481  1.00  0.00     0.119 A 
HETATM    4  N3  UNL     1      21.364   1.963  51.993  1.00  0.00    -0.240 N 
HETATM    5  N4  UNL     1      20.220   2.334  51.392  1.00  0.00    -0.161 NA
HETATM    6  C8  UNL     1      20.104   3.585  50.936  1.00  0.00     0.258 A 
HETATM    7  N5  UNL     1      21.127   4.415  51.096  1.00  0.00    -0.220 NA
HETATM    8  C9  UNL     1      22.267   4.064  51.688  1.00  0.00     0.159 A 
HETATM    9  C16 UNL     1      22.431   2.787  52.171  1.00  0.00     0.112 A 
ENDROOT
BRANCH   1  10
HETATM   10  C4  UNL     1      24.728   2.514  53.207  1.00  0.00     0.313 C 
BRANCH  10  11
HETATM   11  N2  UNL     1      25.616   1.358  53.230  1.00  0.00     0.092 N 
HETATM   12  C3  UNL     1      26.247   1.071  51.979  1.00  0.00     0.275 C 
HETATM   13  C2  UNL     1      26.696  -0.373  52.026  1.00  0.00     0.065 C 
HETATM   14  C1  UNL     1      27.774  -0.450  53.117  1.00  0.00     0.221 C 
HETATM   15  C18 UNL     1      27.157  -0.026  54.413  1.00  0.00     0.065 C 
HETATM   16  C17 UNL     1      26.508   1.342  54.350  1.00  0.00     0.275 C 
BRANCH  14  17
HETATM   17  N1  UNL     1      28.213  -1.824  53.290  1.00  0.00     0.083 N 
HETATM   18  H1  UNL     1      27.912  -2.117  54.245  1.00  0.00     0.313 HD
HETATM   19  H2  UNL     1      29.219  -1.974  53.171  1.00  0.00     0.313 HD
ENDBRANCH  14  17
ENDBRANCH  10  11
ENDBRANCH   1  10
BRANCH   8  20
HETATM   20  N6  UNL     1      23.329   4.973  51.854  1.00  0.00    -0.337 N 
HETATM   21  H13 UNL     1      23.524   5.472  52.728  1.00  0.00     0.167 HD
BRANCH  20  22
HETATM   22  C10 UNL     1      24.308   5.418  50.936  1.00  0.00     0.067 A 
HETATM   23  C11 UNL     1      24.927   4.537  50.079  1.00  0.00     0.032 A 
HETATM   24  C12 UNL     1      25.892   4.906  49.148  1.00  0.00     0.002 A 
HETATM   25  C13 UNL     1      26.287   6.200  49.034  1.00  0.00     0.003 A 
HETATM   26  C14 UNL     1      25.697   7.118  49.869  1.00  0.00     0.039 A 
HETATM   27  C15 UNL     1      24.750   6.710  50.772  1.00  0.00     0.092 A 
BRANCH  27  28
HETATM   28  O1  UNL     1      24.184   7.697  51.599  1.00  0.00    -0.358 OA
HETATM   29  H18 UNL     1      24.761   8.149  52.281  1.00  0.00     0.217 HD
ENDBRANCH  27  28
ENDBRANCH  20  22
ENDBRANCH   8  20
TORSDOF 6
ENDMDL
MODEL 7
REMARK VINA RESULT:      -7.6      2.937      6.012
REMARK  6 active torsions:
REMARK  status: ('A' for Active; 'I' for Inactive)
REMARK    1  A    between atoms: N1_1  and  C1_2 
REMARK    2  A    between atoms: N2_5  and  C4_6 
REMARK    3  A    between atoms: C4_6  and  C5_7 
REMARK    4  A    between atoms: C9_14  and  N6_15 
REMARK    5  A    between atoms: N6_15  and  C10_16 
REMARK    6  A    between atoms: C15_21  and  O1_22 
ROOT
HETATM    1  C5  UNL     1      23.495   1.322  52.070  1.00  0.00     0.004 A 
HETATM    2  C6  UNL     1      24.861   1.049  52.076  1.00  0.00     0.030 A 
HETATM    3  C7  UNL     1      25.137   0.128  53.056  1.00  0.00     0.119 A 
HETATM    4  N3  UNL     1      23.958  -0.142  53.623  1.00  0.00    -0.240 N 
HETATM    5  N4  UNL     1      23.802  -1.012  54.636  1.00  0.00    -0.161 NA
HETATM    6  C8  UNL     1      22.579  -1.214  55.136  1.00  0.00     0.258 A 
HETATM    7  N5  UNL     1      21.561  -0.544  54.608  1.00  0.00    -0.220 NA
HETATM    8  C9  UNL     1      21.698   0.320  53.604  1.00  0.00     0.159 A 
HETATM    9  C16 UNL     1      22.937   0.558  53.059  1.00  0.00     0.112 A 
ENDROOT
BRANCH   1  10
HETATM   10  C4  UNL     1      22.773   2.244  51.175  1.00  0.00     0.313 C 
BRANCH  10  11
HETATM   11  N2  UNL     1      23.530   3.489  51.113  1.00  0.00     0.092 N 
HETATM   12  C3  UNL     1      24.139   3.750  49.845  1.00  0.00     0.275 C 
HETATM   13  C2  UNL     1      25.253   4.747  50.080  1.00  0.00     0.065 C 
HETATM   14  C1  UNL     1      24.573   6.044  50.543  1.00  0.00     0.221 C 
HETATM   15  C18 UNL     1      23.823   5.753  51.805  1.00  0.00     0.065 C 
HETATM   16  C17 UNL     1      22.836   4.611  51.668  1.00  0.00     0.275 C 
BRANCH  14  17
HETATM   17  N1  UNL     1      25.574   7.044  50.871  1.00  0.00     0.083 N 
HETATM   18  H1  UNL     1      25.218   7.564  51.702  1.00  0.00     0.313 HD
HETATM   19  H2  UNL     1      25.801   7.694  50.112  1.00  0.00     0.313 HD
ENDBRANCH  14  17
ENDBRANCH  10  11
ENDBRANCH   1  10
BRANCH   8  20
HETATM   20  N6  UNL     1      20.599   1.025  53.076  1.00  0.00    -0.337 N 
HETATM   21  H13 UNL     1      20.434   2.025  53.228  1.00  0.00     0.167 HD
BRANCH  20  22
HETATM   22  C10 UNL     1      19.514   0.577  52.288  1.00  0.00     0.067 A 
HETATM   23  C11 UNL     1      19.341   1.029  51.000  1.00  0.00     0.032 A 
HETATM   24  C12 UNL     1      18.302   0.628  50.167  1.00  0.00     0.002 A 
HETATM   25  C13 UNL     1      17.373  -0.263  50.599  1.00  0.00     0.003 A 
HETATM   26  C14 UNL     1      17.503  -0.744  51.879  1.00  0.00     0.039 A 
HETATM   27  C15 UNL     1      18.543  -0.320  52.664  1.00  0.00     0.092 A 
BRANCH  27  28
HETATM   28  O1  UNL     1      18.621  -0.849  53.966  1.00  0.00    -0.358 OA
HETATM   29  H18 UNL     1      17.805  -0.833  54.547  1.00  0.00     0.217 HD
ENDBRANCH  27  28
ENDBRANCH  20  22
ENDBRANCH   8  20
TORSDOF 6
ENDMDL
MODEL 8
REMARK VINA RESULT:      -7.6      2.683      3.766
REMARK  6 active torsions:
REMARK  status: ('A' for Active; 'I' for Inactive)
REMARK    1  A    between atoms: N1_1  and  C1_2 
REMARK    2  A    between atoms: N2_5  and  C4_6 
REMARK    3  A    between atoms: C4_6  and  C5_7 
REMARK    4  A    between atoms: C9_14  and  N6_15 
REMARK    5  A    between atoms: N6_15  and  C10_16 
REMARK    6  A    between atoms: C15_21  and  O1_22 
ROOT
HETATM    1  C5  UNL     1      24.559   2.980  49.913  1.00  0.00     0.004 A 
HETATM    2  C6  UNL     1      23.588   3.077  48.918  1.00  0.00     0.030 A 
HETATM    3  C7  UNL     1      22.417   2.522  49.370  1.00  0.00     0.119 A 
HETATM    4  N3  UNL     1      22.684   2.103  50.610  1.00  0.00    -0.240 N 
HETATM    5  N4  UNL     1      21.781   1.498  51.401  1.00  0.00    -0.161 NA
HETATM    6  C8  UNL     1      22.148   1.114  52.628  1.00  0.00     0.258 A 
HETATM    7  N5  UNL     1      23.395   1.348  53.019  1.00  0.00    -0.220 NA
HETATM    8  C9  UNL     1      24.301   1.946  52.248  1.00  0.00     0.159 A 
HETATM    9  C16 UNL     1      23.968   2.358  50.979  1.00  0.00     0.112 A 
ENDROOT
BRANCH   1  10
HETATM   10  C4  UNL     1      25.952   3.457  49.849  1.00  0.00     0.313 C 
BRANCH  10  11
HETATM   11  N2  UNL     1      25.931   4.833  49.366  1.00  0.00     0.092 N 
HETATM   12  C3  UNL     1      25.361   5.772  50.281  1.00  0.00     0.275 C 
HETATM   13  C2  UNL     1      24.955   6.989  49.477  1.00  0.00     0.065 C 
HETATM   14  C1  UNL     1      26.257   7.598  48.938  1.00  0.00     0.221 C 
HETATM   15  C18 UNL     1      26.931   6.574  48.079  1.00  0.00     0.065 C 
HETATM   16  C17 UNL     1      27.171   5.258  48.790  1.00  0.00     0.275 C 
BRANCH  14  17
HETATM   17  N1  UNL     1      25.961   8.735  48.083  1.00  0.00     0.083 N 
HETATM   18  H1  UNL     1      25.062   9.139  48.422  1.00  0.00     0.313 HD
HETATM   19  H2  UNL     1      25.902   8.519  47.083  1.00  0.00     0.313 HD
ENDBRANCH  14  17
ENDBRANCH  10  11
ENDBRANCH   1  10
BRANCH   8  20
HETATM   20  N6  UNL     1      25.621   2.166  52.687  1.00  0.00    -0.337 N 
HETATM   21  H13 UNL     1      26.025   3.096  52.840  1.00  0.00     0.167 HD
BRANCH  20  22
HETATM   22  C10 UNL     1      26.655   1.248  52.984  1.00  0.00     0.067 A 
HETATM   23  C11 UNL     1      26.564  -0.069  52.596  1.00  0.00     0.032 A 
HETATM   24  C12 UNL     1      27.544  -1.023  52.848  1.00  0.00     0.002 A 
HETATM   25  C13 UNL     1      28.680  -0.691  53.514  1.00  0.00     0.003 A 
HETATM   26  C14 UNL     1      28.816   0.614  53.922  1.00  0.00     0.039 A 
HETATM   27  C15 UNL     1      27.826   1.520  53.652  1.00  0.00     0.092 A 
BRANCH  27  28
HETATM   28  O1  UNL     1      28.025   2.840  54.096  1.00  0.00    -0.358 OA
HETATM   29  H18 UNL     1      27.667   3.597  53.545  1.00  0.00     0.217 HD
ENDBRANCH  27  28
ENDBRANCH  20  22
ENDBRANCH   8  20
TORSDOF 6
ENDMDL
MODEL 9
REMARK VINA RESULT:      -7.5      3.371      6.702
REMARK  6 active torsions:
REMARK  status: ('A' for Active; 'I' for Inactive)
REMARK    1  A    between atoms: N1_1  and  C1_2 
REMARK    2  A    between atoms: N2_5  and  C4_6 
REMARK    3  A    between atoms: C4_6  and  C5_7 
REMARK    4  A    between atoms: C9_14  and  N6_15 
REMARK    5  A    between atoms: N6_15  and  C10_16 
REMARK    6  A    between atoms: C15_21  and  O1_22 
ROOT
HETATM    1  C5  UNL     1      22.824   2.006  50.838  1.00  0.00     0.004 A 
HETATM    2  C6  UNL     1      22.012   0.874  50.841  1.00  0.00     0.030 A 
HETATM    3  C7  UNL     1      21.273   0.841  49.685  1.00  0.00     0.119 A 
HETATM    4  N3  UNL     1      21.637   1.933  49.006  1.00  0.00    -0.240 N 
HETATM    5  N4  UNL     1      21.134   2.263  47.804  1.00  0.00    -0.161 NA
HETATM    6  C8  UNL     1      21.564   3.378  47.205  1.00  0.00     0.258 A 
HETATM    7  N5  UNL     1      22.477   4.118  47.824  1.00  0.00    -0.220 NA
HETATM    8  C9  UNL     1      22.985   3.805  49.014  1.00  0.00     0.159 A 
HETATM    9  C16 UNL     1      22.573   2.667  49.666  1.00  0.00     0.112 A 
ENDROOT
BRANCH   1  10
HETATM   10  C4  UNL     1      23.780   2.421  51.881  1.00  0.00     0.313 C 
BRANCH  10  11
HETATM   11  N2  UNL     1      24.643   1.282  52.175  1.00  0.00     0.092 N 
HETATM   12  C3  UNL     1      26.035   1.522  51.954  1.00  0.00     0.275 C 
HETATM   13  C2  UNL     1      26.703   0.173  51.806  1.00  0.00     0.065 C 
HETATM   14  C1  UNL     1      26.563  -0.524  53.168  1.00  0.00     0.221 C 
HETATM   15  C18 UNL     1      25.104  -0.665  53.471  1.00  0.00     0.065 C 
HETATM   16  C17 UNL     1      24.351   0.648  53.424  1.00  0.00     0.275 C 
BRANCH  14  17
HETATM   17  N1  UNL     1      27.110  -1.868  53.101  1.00  0.00     0.083 N 
HETATM   18  H1  UNL     1      26.467  -2.481  53.647  1.00  0.00     0.313 HD
HETATM   19  H2  UNL     1      28.071  -1.961  53.444  1.00  0.00     0.313 HD
ENDBRANCH  14  17
ENDBRANCH  10  11
ENDBRANCH   1  10
BRANCH   8  20
HETATM   20  N6  UNL     1      23.942   4.619  49.651  1.00  0.00    -0.337 N 
HETATM   21  H13 UNL     1      23.806   5.049  50.571  1.00  0.00     0.167 HD
BRANCH  20  22
HETATM   22  C10 UNL     1      25.220   5.043  49.218  1.00  0.00     0.067 A 
HETATM   23  C11 UNL     1      26.308   4.205  49.297  1.00  0.00     0.032 A 
HETATM   24  C12 UNL     1      27.590   4.553  48.886  1.00  0.00     0.002 A 
HETATM   25  C13 UNL     1      27.841   5.783  48.367  1.00  0.00     0.003 A 
HETATM   26  C14 UNL     1      26.786   6.656  48.268  1.00  0.00     0.039 A 
HETATM   27  C15 UNL     1      25.539   6.270  48.686  1.00  0.00     0.092 A 
BRANCH  27  28
HETATM   28  O1  UNL     1      24.500   7.210  48.558  1.00  0.00    -0.358 OA
HETATM   29  H18 UNL     1      24.329   7.626  47.663  1.00  0.00     0.217 HD
ENDBRANCH  27  28
ENDBRANCH  20  22
ENDBRANCH   8  20
TORSDOF 6
ENDMDL
