MODEL 1
REMARK VINA RESULT:      -8.7      0.000      0.000
REMARK  0 active torsions:
REMARK  status: ('A' for Active; 'I' for Inactive)
ROOT
HETATM    1  C1  UNL     1      20.945   2.599  49.633  1.00  0.00     0.000 C 
HETATM    2  O1  UNL     1      21.804   2.186  50.680  1.00  0.00     0.000 OA
HETATM    3  C2  UNL     1      22.486   3.043  51.500  1.00  0.00    -0.053 A 
HETATM    4  C3  UNL     1      22.408   1.858  52.146  1.00  0.00     0.029 A 
HETATM    5  C4  UNL     1      22.164   0.489  52.559  1.00  0.00     0.045 C 
HETATM    6  C5  UNL     1      23.322  -0.253  53.209  1.00  0.00    -0.068 C 
HETATM    7  C6  UNL     1      22.959  -0.888  54.357  1.00  0.00     0.087 C 
HETATM    8 CL1  UNL     1      21.334  -0.810  54.948  1.00  0.00    -0.097 Cl
HETATM    9  C7  UNL     1      24.877  -0.429  52.958  1.00  0.00     0.038 C 
HETATM   10  C8  UNL     1      25.201   0.934  52.958  1.00  0.00     0.048 C 
HETATM   11  C9  UNL     1      26.067   2.091  52.872  1.00  0.00     0.138 C 
HETATM   12  C10 UNL     1      27.010   2.257  51.766  1.00  0.00     0.221 C 
HETATM   13  O2  UNL     1      28.293   2.105  52.385  1.00  0.00    -0.301 OA
HETATM   14  C11 UNL     1      28.209   2.333  53.749  1.00  0.00     0.361 C 
HETATM   15  O3  UNL     1      29.121   2.492  54.595  1.00  0.00    -0.238 OA
HETATM   16  N1  UNL     1      26.818   2.363  54.057  1.00  0.00    -0.317 N 
HETATM   17  C12 UNL     1      24.890   3.137  52.753  1.00  0.00     0.248 C 
HETATM   18  O4  UNL     1      24.662   2.994  51.527  1.00  0.00    -0.271 OA
HETATM   19  N2  UNL     1      23.894   4.142  53.118  1.00  0.00    -0.355 N 
HETATM   20  C13 UNL     1      23.122   4.369  51.874  1.00  0.00     0.157 C 
HETATM   21  H14 UNL     1      26.306   2.544  54.967  1.00  0.00     0.166 HD
HETATM   22  H15 UNL     1      24.450   3.966  53.978  1.00  0.00     0.162 HD
ENDROOT
TORSDOF 0
ENDMDL
MODEL 2
REMARK VINA RESULT:      -7.5      4.213      5.297
REMARK  0 active torsions:
REMARK  status: ('A' for Active; 'I' for Inactive)
ROOT
HETATM    1  C1  UNL     1      20.672   3.245  48.883  1.00  0.00     0.000 C 
HETATM    2  O1  UNL     1      21.949   3.655  49.336  1.00  0.00     0.000 OA
HETATM    3  C2  UNL     1      22.161   4.687  50.210  1.00  0.00    -0.053 A 
HETATM    4  C3  UNL     1      23.259   3.898  50.257  1.00  0.00     0.029 A 
HETATM    5  C4  UNL     1      24.270   2.874  50.074  1.00  0.00     0.045 C 
HETATM    6  C5  UNL     1      25.713   3.341  49.958  1.00  0.00    -0.068 C 
HETATM    7  C6  UNL     1      26.558   2.635  50.758  1.00  0.00     0.087 C 
HETATM    8 CL1  UNL     1      25.976   1.358  51.769  1.00  0.00    -0.097 Cl
HETATM    9  C7  UNL     1      26.505   4.493  49.211  1.00  0.00     0.038 C 
HETATM   10  C8  UNL     1      25.758   5.565  49.718  1.00  0.00     0.048 C 
HETATM   11  C9  UNL     1      25.385   6.951  49.902  1.00  0.00     0.138 C 
HETATM   12  C10 UNL     1      25.177   7.843  48.761  1.00  0.00     0.221 C 
HETATM   13  O2  UNL     1      26.272   8.763  48.842  1.00  0.00    -0.301 OA
HETATM   14  C11 UNL     1      26.797   8.788  50.124  1.00  0.00     0.361 C 
HETATM   15  O3  UNL     1      27.611   9.587  50.644  1.00  0.00    -0.238 OA
HETATM   16  N1  UNL     1      26.219   7.678  50.806  1.00  0.00    -0.317 N 
HETATM   17  C12 UNL     1      24.009   6.633  50.608  1.00  0.00     0.248 C 
HETATM   18  O4  UNL     1      23.337   6.403  49.572  1.00  0.00    -0.271 OA
HETATM   19  N2  UNL     1      23.010   6.420  51.654  1.00  0.00    -0.355 N 
HETATM   20  C13 UNL     1      21.799   5.974  50.926  1.00  0.00     0.157 C 
HETATM   21  H14 UNL     1      26.313   7.346  51.808  1.00  0.00     0.166 HD
HETATM   22  H15 UNL     1      23.871   6.733  52.142  1.00  0.00     0.162 HD
ENDROOT
TORSDOF 0
ENDMDL
MODEL 3
REMARK VINA RESULT:      -7.3      3.270      4.438
REMARK  0 active torsions:
REMARK  status: ('A' for Active; 'I' for Inactive)
ROOT
HETATM    1  C1  UNL     1      20.907   1.355  51.772  1.00  0.00     0.000 C 
HETATM    2  O1  UNL     1      22.179   1.973  51.691  1.00  0.00     0.000 OA
HETATM    3  C2  UNL     1      22.424   3.276  52.033  1.00  0.00    -0.053 A 
HETATM    4  C3  UNL     1      23.608   2.624  52.082  1.00  0.00     0.029 A 
HETATM    5  C4  UNL     1      24.694   1.663  52.036  1.00  0.00     0.045 C 
HETATM    6  C5  UNL     1      25.991   2.116  51.383  1.00  0.00    -0.068 C 
HETATM    7  C6  UNL     1      27.085   1.826  52.138  1.00  0.00     0.087 C 
HETATM    8 CL1  UNL     1      26.935   1.027  53.665  1.00  0.00    -0.097 Cl
HETATM    9  C7  UNL     1      26.421   2.916  50.084  1.00  0.00     0.038 C 
HETATM   10  C8  UNL     1      25.655   4.062  50.332  1.00  0.00     0.048 C 
HETATM   11  C9  UNL     1      25.133   5.388  50.079  1.00  0.00     0.138 C 
HETATM   12  C10 UNL     1      24.550   5.743  48.785  1.00  0.00     0.221 C 
HETATM   13  O2  UNL     1      25.489   6.673  48.232  1.00  0.00    -0.301 OA
HETATM   14  C11 UNL     1      26.274   7.229  49.228  1.00  0.00     0.361 C 
HETATM   15  O3  UNL     1      27.057   8.208  49.184  1.00  0.00    -0.238 OA
HETATM   16  N1  UNL     1      26.030   6.454  50.398  1.00  0.00    -0.317 N 
HETATM   17  C12 UNL     1      24.008   5.308  51.185  1.00  0.00     0.248 C 
HETATM   18  O4  UNL     1      23.166   4.655  50.521  1.00  0.00    -0.271 OA
HETATM   19  N2  UNL     1      23.307   5.478  52.456  1.00  0.00    -0.355 N 
HETATM   20  C13 UNL     1      22.044   4.722  52.287  1.00  0.00     0.157 C 
HETATM   21  H14 UNL     1      26.390   6.550  51.390  1.00  0.00     0.166 HD
HETATM   22  H15 UNL     1      24.199   6.001  52.551  1.00  0.00     0.162 HD
ENDROOT
TORSDOF 0
ENDMDL
MODEL 4
REMARK VINA RESULT:      -7.0      3.896      5.135
REMARK  0 active torsions:
REMARK  status: ('A' for Active; 'I' for Inactive)
ROOT
HETATM    1  C1  UNL     1      20.716   4.875  48.687  1.00  0.00     0.000 C 
HETATM    2  O1  UNL     1      21.501   4.001  49.478  1.00  0.00     0.000 OA
HETATM    3  C2  UNL     1      21.311   2.647  49.547  1.00  0.00    -0.053 A 
HETATM    4  C3  UNL     1      22.580   2.889  49.946  1.00  0.00     0.029 A 
HETATM    5  C4  UNL     1      23.856   3.470  50.320  1.00  0.00     0.045 C 
HETATM    6  C5  UNL     1      24.513   2.935  51.584  1.00  0.00    -0.068 C 
HETATM    7  C6  UNL     1      25.827   2.631  51.401  1.00  0.00     0.087 C 
HETATM    8 CL1  UNL     1      26.595   2.856  49.867  1.00  0.00    -0.097 Cl
HETATM    9  C7  UNL     1      24.065   2.554  53.056  1.00  0.00     0.038 C 
HETATM   10  C8  UNL     1      23.057   1.650  52.693  1.00  0.00     0.048 C 
HETATM   11  C9  UNL     1      21.994   0.693  52.913  1.00  0.00     0.138 C 
HETATM   12  C10 UNL     1      20.879   0.986  53.814  1.00  0.00     0.221 C 
HETATM   13  O2  UNL     1      21.083   0.088  54.912  1.00  0.00    -0.301 OA
HETATM   14  C11 UNL     1      21.889  -0.973  54.534  1.00  0.00     0.361 C 
HETATM   15  O3  UNL     1      22.134  -2.049  55.130  1.00  0.00    -0.238 OA
HETATM   16  N1  UNL     1      22.435  -0.619  53.266  1.00  0.00    -0.317 N 
HETATM   17  C12 UNL     1      21.501   0.687  51.412  1.00  0.00     0.248 C 
HETATM   18  O4  UNL     1      20.810   1.735  51.458  1.00  0.00    -0.271 OA
HETATM   19  N2  UNL     1      21.322   0.284  50.019  1.00  0.00    -0.355 N 
HETATM   20  C13 UNL     1      20.507   1.367  49.420  1.00  0.00     0.157 C 
HETATM   21  H14 UNL     1      23.070  -1.150  52.604  1.00  0.00     0.166 HD
HETATM   22  H15 UNL     1      21.894  -0.462  50.461  1.00  0.00     0.162 HD
ENDROOT
TORSDOF 0
ENDMDL
MODEL 5
REMARK VINA RESULT:      -6.7      5.613      6.629
REMARK  0 active torsions:
REMARK  status: ('A' for Active; 'I' for Inactive)
ROOT
HETATM    1  C1  UNL     1      21.622   6.009  47.599  1.00  0.00     0.000 C 
HETATM    2  O1  UNL     1      22.918   5.994  48.169  1.00  0.00     0.000 OA
HETATM    3  C2  UNL     1      23.411   6.976  48.986  1.00  0.00    -0.053 A 
HETATM    4  C3  UNL     1      24.144   5.864  49.218  1.00  0.00     0.029 A 
HETATM    5  C4  UNL     1      24.734   4.538  49.229  1.00  0.00     0.045 C 
HETATM    6  C5  UNL     1      26.253   4.458  49.249  1.00  0.00    -0.068 C 
HETATM    7  C6  UNL     1      26.718   3.592  50.192  1.00  0.00     0.087 C 
HETATM    8 CL1  UNL     1      25.634   2.716  51.217  1.00  0.00    -0.097 Cl
HETATM    9  C7  UNL     1      27.465   5.173  48.521  1.00  0.00     0.038 C 
HETATM   10  C8  UNL     1      27.111   6.486  48.858  1.00  0.00     0.048 C 
HETATM   11  C9  UNL     1      27.245   7.927  48.898  1.00  0.00     0.138 C 
HETATM   12  C10 UNL     1      27.467   8.705  47.679  1.00  0.00     0.221 C 
HETATM   13  O2  UNL     1      28.808   9.189  47.823  1.00  0.00    -0.301 OA
HETATM   14  C11 UNL     1      29.197   9.168  49.152  1.00  0.00     0.361 C 
HETATM   15  O3  UNL     1      30.196   9.685  49.707  1.00  0.00    -0.238 OA
HETATM   16  N1  UNL     1      28.204   8.411  49.840  1.00  0.00    -0.317 N 
HETATM   17  C12 UNL     1      25.792   8.186  49.459  1.00  0.00     0.248 C 
HETATM   18  O4  UNL     1      25.172   8.095  48.370  1.00  0.00    -0.271 OA
HETATM   19  N2  UNL     1      24.698   8.450  50.392  1.00  0.00    -0.355 N 
HETATM   20  C13 UNL     1      23.474   8.378  49.560  1.00  0.00     0.157 C 
HETATM   21  H14 UNL     1      28.088   8.177  50.867  1.00  0.00     0.166 HD
HETATM   22  H15 UNL     1      25.570   8.494  50.955  1.00  0.00     0.162 HD
ENDROOT
TORSDOF 0
ENDMDL
MODEL 6
REMARK VINA RESULT:      -6.5      3.310      5.678
REMARK  0 active torsions:
REMARK  status: ('A' for Active; 'I' for Inactive)
ROOT
HETATM    1  C1  UNL     1      25.592   5.337  49.729  1.00  0.00     0.000 C 
HETATM    2  O1  UNL     1      24.984   4.153  50.210  1.00  0.00     0.000 OA
HETATM    3  C2  UNL     1      24.091   3.401  49.494  1.00  0.00    -0.053 A 
HETATM    4  C3  UNL     1      24.607   2.597  50.451  1.00  0.00     0.029 A 
HETATM    5  C4  UNL     1      25.329   2.011  51.564  1.00  0.00     0.045 C 
HETATM    6  C5  UNL     1      24.533   1.134  52.519  1.00  0.00    -0.068 C 
HETATM    7  C6  UNL     1      25.152  -0.050  52.780  1.00  0.00     0.087 C 
HETATM    8 CL1  UNL     1      26.678  -0.441  52.065  1.00  0.00    -0.097 Cl
HETATM    9  C7  UNL     1      23.123   1.183  53.241  1.00  0.00     0.038 C 
HETATM   10  C8  UNL     1      22.349   1.353  52.085  1.00  0.00     0.048 C 
HETATM   11  C9  UNL     1      21.135   1.517  51.316  1.00  0.00     0.138 C 
HETATM   12  C10 UNL     1      20.137   2.526  51.672  1.00  0.00     0.221 C 
HETATM   13  O2  UNL     1      19.019   1.754  52.127  1.00  0.00    -0.301 OA
HETATM   14  C11 UNL     1      19.089   0.458  51.643  1.00  0.00     0.361 C 
HETATM   15  O3  UNL     1      18.223  -0.450  51.646  1.00  0.00    -0.238 OA
HETATM   16  N1  UNL     1      20.398   0.312  51.100  1.00  0.00    -0.317 N 
HETATM   17  C12 UNL     1      21.871   1.921  49.978  1.00  0.00     0.248 C 
HETATM   18  O4  UNL     1      22.071   3.129  50.255  1.00  0.00    -0.271 OA
HETATM   19  N2  UNL     1      22.476   1.824  48.652  1.00  0.00    -0.355 N 
HETATM   20  C13 UNL     1      23.058   3.164  48.409  1.00  0.00     0.157 C 
HETATM   21  H14 UNL     1      20.863  -0.499  50.600  1.00  0.00     0.166 HD
HETATM   22  H15 UNL     1      22.061   0.891  48.845  1.00  0.00     0.162 HD
ENDROOT
TORSDOF 0
ENDMDL
MODEL 7
REMARK VINA RESULT:      -6.4      2.410      3.125
REMARK  0 active torsions:
REMARK  status: ('A' for Active; 'I' for Inactive)
ROOT
HETATM    1  C1  UNL     1      22.394   5.797  47.171  1.00  0.00     0.000 C 
HETATM    2  O1  UNL     1      22.464   5.056  48.375  1.00  0.00     0.000 OA
HETATM    3  C2  UNL     1      23.121   5.477  49.500  1.00  0.00    -0.053 A 
HETATM    4  C3  UNL     1      22.223   4.546  49.892  1.00  0.00     0.029 A 
HETATM    5  C4  UNL     1      21.190   3.532  49.985  1.00  0.00     0.045 C 
HETATM    6  C5  UNL     1      21.476   2.333  50.876  1.00  0.00    -0.068 C 
HETATM    7  C6  UNL     1      20.445   2.049  51.718  1.00  0.00     0.087 C 
HETATM    8 CL1  UNL     1      18.997   2.996  51.713  1.00  0.00    -0.097 Cl
HETATM    9  C7  UNL     1      22.693   1.357  51.156  1.00  0.00     0.038 C 
HETATM   10  C8  UNL     1      23.632   2.348  51.474  1.00  0.00     0.048 C 
HETATM   11  C9  UNL     1      24.920   2.876  51.868  1.00  0.00     0.138 C 
HETATM   12  C10 UNL     1      26.152   2.462  51.196  1.00  0.00     0.221 C 
HETATM   13  O2  UNL     1      26.844   1.698  52.191  1.00  0.00    -0.301 OA
HETATM   14  C11 UNL     1      26.385   2.014  53.459  1.00  0.00     0.361 C 
HETATM   15  O3  UNL     1      26.859   1.722  54.582  1.00  0.00    -0.238 OA
HETATM   16  N1  UNL     1      25.200   2.783  53.266  1.00  0.00    -0.317 N 
HETATM   17  C12 UNL     1      24.574   4.374  51.507  1.00  0.00     0.248 C 
HETATM   18  O4  UNL     1      24.782   4.301  50.271  1.00  0.00    -0.271 OA
HETATM   19  N2  UNL     1      24.168   5.770  51.651  1.00  0.00    -0.355 N 
HETATM   20  C13 UNL     1      24.144   6.295  50.266  1.00  0.00     0.157 C 
HETATM   21  H14 UNL     1      24.552   3.256  53.959  1.00  0.00     0.166 HD
HETATM   22  H15 UNL     1      24.191   5.380  52.613  1.00  0.00     0.162 HD
ENDROOT
TORSDOF 0
ENDMDL
MODEL 8
REMARK VINA RESULT:      -6.3      2.824      4.772
REMARK  0 active torsions:
REMARK  status: ('A' for Active; 'I' for Inactive)
ROOT
HETATM    1  C1  UNL     1      22.992  -1.259  55.422  1.00  0.00     0.000 C 
HETATM    2  O1  UNL     1      22.566  -0.353  54.421  1.00  0.00     0.000 OA
HETATM    3  C2  UNL     1      23.346   0.059  53.373  1.00  0.00    -0.053 A 
HETATM    4  C3  UNL     1      22.059   0.273  53.016  1.00  0.00     0.029 A 
HETATM    5  C4  UNL     1      20.615   0.381  52.940  1.00  0.00     0.045 C 
HETATM    6  C5  UNL     1      20.048   1.673  52.370  1.00  0.00    -0.068 C 
HETATM    7  C6  UNL     1      19.090   1.453  51.428  1.00  0.00     0.087 C 
HETATM    8 CL1  UNL     1      18.623  -0.152  50.982  1.00  0.00    -0.097 Cl
HETATM    9  C7  UNL     1      20.325   3.227  52.515  1.00  0.00     0.038 C 
HETATM   10  C8  UNL     1      21.686   3.185  52.184  1.00  0.00     0.048 C 
HETATM   11  C9  UNL     1      23.006   3.723  51.934  1.00  0.00     0.138 C 
HETATM   12  C10 UNL     1      23.656   4.622  52.888  1.00  0.00     0.221 C 
HETATM   13  O2  UNL     1      23.682   5.881  52.206  1.00  0.00    -0.301 OA
HETATM   14  C11 UNL     1      23.553   5.702  50.839  1.00  0.00     0.361 C 
HETATM   15  O3  UNL     1      23.726   6.516  49.900  1.00  0.00    -0.238 OA
HETATM   16  N1  UNL     1      23.166   4.343  50.657  1.00  0.00    -0.317 N 
HETATM   17  C12 UNL     1      23.728   2.318  51.922  1.00  0.00     0.248 C 
HETATM   18  O4  UNL     1      23.828   2.170  53.165  1.00  0.00    -0.271 OA
HETATM   19  N2  UNL     1      24.342   1.085  51.434  1.00  0.00    -0.355 N 
HETATM   20  C13 UNL     1      24.660   0.317  52.661  1.00  0.00     0.157 C 
HETATM   21  H14 UNL     1      22.994   3.775  49.778  1.00  0.00     0.166 HD
HETATM   22  H15 UNL     1      24.109   1.642  50.589  1.00  0.00     0.162 HD
ENDROOT
TORSDOF 0
ENDMDL
MODEL 9
REMARK VINA RESULT:      -6.3      8.224     10.664
REMARK  0 active torsions:
REMARK  status: ('A' for Active; 'I' for Inactive)
ROOT
HETATM    1  C1  UNL     1      33.492   4.333  45.881  1.00  0.00     0.000 C 
HETATM    2  O1  UNL     1      32.533   5.325  46.197  1.00  0.00     0.000 OA
HETATM    3  C2  UNL     1      32.190   5.686  47.473  1.00  0.00    -0.053 A 
HETATM    4  C3  UNL     1      31.839   6.711  46.664  1.00  0.00     0.029 A 
HETATM    5  C4  UNL     1      31.579   7.610  45.555  1.00  0.00     0.045 C 
HETATM    6  C5  UNL     1      30.228   8.307  45.533  1.00  0.00    -0.068 C 
HETATM    7  C6  UNL     1      30.333   9.644  45.301  1.00  0.00     0.087 C 
HETATM    8 CL1  UNL     1      31.875  10.394  45.066  1.00  0.00    -0.097 Cl
HETATM    9  C7  UNL     1      28.713   7.916  45.789  1.00  0.00     0.038 C 
HETATM   10  C8  UNL     1      28.892   7.391  47.076  1.00  0.00     0.048 C 
HETATM   11  C9  UNL     1      28.491   6.782  48.326  1.00  0.00     0.138 C 
HETATM   12  C10 UNL     1      27.678   5.566  48.356  1.00  0.00     0.221 C 
HETATM   13  O2  UNL     1      26.419   6.010  48.874  1.00  0.00    -0.301 OA
HETATM   14  C11 UNL     1      26.565   7.204  49.562  1.00  0.00     0.361 C 
HETATM   15  O3  UNL     1      25.761   7.802  50.316  1.00  0.00    -0.238 OA
HETATM   16  N1  UNL     1      27.874   7.676  49.254  1.00  0.00    -0.317 N 
HETATM   17  C12 UNL     1      29.963   6.471  48.807  1.00  0.00     0.248 C 
HETATM   18  O4  UNL     1      30.138   5.419  48.144  1.00  0.00    -0.271 OA
HETATM   19  N2  UNL     1      31.247   6.596  49.495  1.00  0.00    -0.355 N 
HETATM   20  C13 UNL     1      32.061   5.475  48.970  1.00  0.00     0.157 C 
HETATM   21  H14 UNL     1      28.408   8.527  49.590  1.00  0.00     0.166 HD
HETATM   22  H15 UNL     1      30.657   7.375  49.848  1.00  0.00     0.162 HD
ENDROOT
TORSDOF 0
ENDMDL
