MODEL 1
REMARK VINA RESULT:      -9.4      0.000      0.000
REMARK  2 active torsions:
REMARK  status: ('A' for Active; 'I' for Inactive)
REMARK    1  A    between atoms: N2_13  and  C11_14 
REMARK    2  A    between atoms: C15_18  and  N3_20 
ROOT
HETATM    1  O1  UNL     1      20.723   7.160  50.061  1.00  0.00    -0.288 OA
HETATM    2  C1  UNL     1      21.499   6.670  50.911  1.00  0.00     0.208 A 
HETATM    3  N1  UNL     1      22.379   5.869  51.946  1.00  0.00     0.000 N 
HETATM    4  C2  UNL     1      22.624   4.329  52.598  1.00  0.00     0.040 A 
HETATM    5  C3  UNL     1      21.600   3.592  51.910  1.00  0.00     0.019 A 
HETATM    6  C4  UNL     1      20.638   4.064  50.906  1.00  0.00     0.057 A 
HETATM    7  C5  UNL     1      19.700   3.247  50.337  1.00  0.00    -0.015 A 
HETATM    8  C6  UNL     1      18.805   3.595  49.443  1.00  0.00     0.011 A 
HETATM    9  C7  UNL     1      18.075   2.461  49.168  1.00  0.00     0.001 A 
HETATM   10  C8  UNL     1      18.319   1.221  49.776  1.00  0.00     0.002 A 
HETATM   11  C9  UNL     1      19.344   1.066  50.721  1.00  0.00     0.030 A 
HETATM   12  C10 UNL     1      20.153   2.144  51.084  1.00  0.00     0.044 A 
HETATM   13  N2  UNL     1      21.190   2.363  51.928  1.00  0.00    -0.324 N 
HETATM   14  N3  UNL     1      24.554   2.389  52.672  1.00  0.00    -0.352 N 
HETATM   15  C16 UNL     1      24.192   3.639  53.447  1.00  0.00     0.142 C 
HETATM   16  C17 UNL     1      23.432   4.173  52.239  1.00  0.00     0.032 A 
HETATM   17  C18 UNL     1      21.975   4.707  51.899  1.00  0.00     0.026 A 
HETATM   18  C19 UNL     1      21.152   5.267  50.990  1.00  0.00     0.075 A 
HETATM   19  C20 UNL     1      24.623   3.964  51.176  1.00  0.00    -0.019 A 
HETATM   20  C21 UNL     1      24.786   4.835  50.122  1.00  0.00     0.010 A 
HETATM   21  C22 UNL     1      25.818   4.379  49.329  1.00  0.00     0.001 A 
HETATM   22  C23 UNL     1      26.541   3.211  49.610  1.00  0.00     0.002 A 
HETATM   23  C24 UNL     1      26.297   2.404  50.700  1.00  0.00     0.030 A 
HETATM   24  C25 UNL     1      25.321   2.750  51.531  1.00  0.00     0.039 A 
HETATM   25  H1  UNL     1      22.749   6.932  52.081  1.00  0.00     0.000 HD
ENDROOT
BRANCH  13  26
HETATM   26  C11 UNL     1      21.790   1.287  52.603  1.00  0.00     0.230 C 
HETATM   27  C12 UNL     1      22.422   0.050  52.147  1.00  0.00     0.054 C 
HETATM   28  C13 UNL     1      22.280  -1.069  53.194  1.00  0.00     0.008 C 
HETATM   29  C14 UNL     1      21.337  -0.858  54.389  1.00  0.00     0.054 C 
HETATM   30  C15 UNL     1      21.110   0.534  54.572  1.00  0.00     0.225 C 
HETATM   31  O2  UNL     1      20.714   0.630  53.122  1.00  0.00    -0.342 OA
ENDBRANCH  13  26
TORSDOF 2
ENDMDL
MODEL 2
REMARK VINA RESULT:      -9.2      8.395     12.912
REMARK  2 active torsions:
REMARK  status: ('A' for Active; 'I' for Inactive)
REMARK    1  A    between atoms: N2_13  and  C11_14 
REMARK    2  A    between atoms: C15_18  and  N3_20 
ROOT
HETATM    1  O1  UNL     1      32.993   2.591  47.141  1.00  0.00    -0.288 OA
HETATM    2  C1  UNL     1      32.765   3.615  47.821  1.00  0.00     0.208 A 
HETATM    3  N1  UNL     1      32.480   5.013  48.495  1.00  0.00     0.000 N 
HETATM    4  C2  UNL     1      32.247   6.651  48.152  1.00  0.00     0.040 A 
HETATM    5  C3  UNL     1      32.417   6.643  46.725  1.00  0.00     0.019 A 
HETATM    6  C4  UNL     1      32.692   5.508  45.834  1.00  0.00     0.057 A 
HETATM    7  C5  UNL     1      32.844   5.647  44.482  1.00  0.00    -0.015 A 
HETATM    8  C6  UNL     1      33.098   4.687  43.625  1.00  0.00     0.011 A 
HETATM    9  C7  UNL     1      33.176   5.287  42.388  1.00  0.00     0.001 A 
HETATM   10  C8  UNL     1      33.002   6.664  42.186  1.00  0.00     0.002 A 
HETATM   11  C9  UNL     1      32.733   7.525  43.260  1.00  0.00     0.030 A 
HETATM   12  C10 UNL     1      32.631   7.036  44.563  1.00  0.00     0.044 A 
HETATM   13  N2  UNL     1      32.397   7.547  45.797  1.00  0.00    -0.324 N 
HETATM   14  N3  UNL     1      30.283   8.550  48.324  1.00  0.00    -0.352 N 
HETATM   15  C16 UNL     1      31.361   7.969  49.216  1.00  0.00     0.142 C 
HETATM   16  C17 UNL     1      31.379   6.700  48.374  1.00  0.00     0.032 A 
HETATM   17  C18 UNL     1      32.436   5.826  47.573  1.00  0.00     0.026 A 
HETATM   18  C19 UNL     1      32.685   4.703  46.869  1.00  0.00     0.075 A 
HETATM   19  C20 UNL     1      29.792   6.436  48.421  1.00  0.00    -0.019 A 
HETATM   20  C21 UNL     1      29.292   5.152  48.428  1.00  0.00     0.010 A 
HETATM   21  C22 UNL     1      27.914   5.215  48.386  1.00  0.00     0.001 A 
HETATM   22  C23 UNL     1      27.204   6.423  48.346  1.00  0.00     0.002 A 
HETATM   23  C24 UNL     1      27.804   7.664  48.342  1.00  0.00     0.030 A 
HETATM   24  C25 UNL     1      29.131   7.720  48.379  1.00  0.00     0.039 A 
HETATM   25  H1  UNL     1      32.574   4.324  49.391  1.00  0.00     0.000 HD
ENDROOT
BRANCH  13  26
HETATM   26  C11 UNL     1      32.038   8.896  45.946  1.00  0.00     0.230 C 
HETATM   27  C12 UNL     1      31.365   9.853  45.068  1.00  0.00     0.054 C 
HETATM   28  C13 UNL     1      31.819  11.293  45.360  1.00  0.00     0.008 C 
HETATM   29  C14 UNL     1      33.026  11.524  46.284  1.00  0.00     0.054 C 
HETATM   30  C15 UNL     1      33.231  10.371  47.090  1.00  0.00     0.225 C 
HETATM   31  O2  UNL     1      33.239   9.532  45.838  1.00  0.00    -0.342 OA
ENDBRANCH  13  26
TORSDOF 2
ENDMDL
MODEL 3
REMARK VINA RESULT:      -8.8      2.689      6.069
REMARK  2 active torsions:
REMARK  status: ('A' for Active; 'I' for Inactive)
REMARK    1  A    between atoms: N2_13  and  C11_14 
REMARK    2  A    between atoms: C15_18  and  N3_20 
ROOT
HETATM    1  O1  UNL     1      19.534   3.076  52.204  1.00  0.00    -0.288 OA
HETATM    2  C1  UNL     1      19.853   4.060  51.500  1.00  0.00     0.208 A 
HETATM    3  N1  UNL     1      20.453   5.224  50.621  1.00  0.00     0.000 N 
HETATM    4  C2  UNL     1      21.889   5.790  49.933  1.00  0.00     0.040 A 
HETATM    5  C3  UNL     1      22.811   4.794  50.407  1.00  0.00     0.019 A 
HETATM    6  C4  UNL     1      22.548   3.611  51.236  1.00  0.00     0.057 A 
HETATM    7  C5  UNL     1      23.532   2.746  51.627  1.00  0.00    -0.015 A 
HETATM    8  C6  UNL     1      23.379   1.677  52.372  1.00  0.00     0.011 A 
HETATM    9  C7  UNL     1      24.631   1.124  52.515  1.00  0.00     0.001 A 
HETATM   10  C8  UNL     1      25.786   1.671  51.938  1.00  0.00     0.002 A 
HETATM   11  C9  UNL     1      25.726   2.841  51.165  1.00  0.00     0.030 A 
HETATM   12  C10 UNL     1      24.512   3.494  50.948  1.00  0.00     0.044 A 
HETATM   13  N2  UNL     1      24.087   4.601  50.290  1.00  0.00    -0.324 N 
HETATM   14  N3  UNL     1      22.978   6.219  47.458  1.00  0.00    -0.352 N 
HETATM   15  C16 UNL     1      22.105   6.968  48.444  1.00  0.00     0.142 C 
HETATM   16  C17 UNL     1      21.675   5.649  49.073  1.00  0.00     0.032 A 
HETATM   17  C18 UNL     1      21.653   4.976  50.511  1.00  0.00     0.026 A 
HETATM   18  C19 UNL     1      21.276   3.928  51.272  1.00  0.00     0.075 A 
HETATM   19  C20 UNL     1      21.245   4.931  47.698  1.00  0.00    -0.019 A 
HETATM   20  C21 UNL     1      20.200   4.034  47.670  1.00  0.00     0.010 A 
HETATM   21  C22 UNL     1      20.100   3.512  46.397  1.00  0.00     0.001 A 
HETATM   22  C23 UNL     1      20.957   3.881  45.350  1.00  0.00     0.002 A 
HETATM   23  C24 UNL     1      21.979   4.795  45.483  1.00  0.00     0.030 A 
HETATM   24  C25 UNL     1      22.166   5.360  46.670  1.00  0.00     0.039 A 
HETATM   25  H1  UNL     1      19.370   5.540  50.740  1.00  0.00     0.000 HD
ENDROOT
BRANCH  13  26
HETATM   26  C11 UNL     1      24.975   5.321  49.475  1.00  0.00     0.230 C 
HETATM   27  C12 UNL     1      26.245   4.979  48.835  1.00  0.00     0.054 C 
HETATM   28  C13 UNL     1      27.138   6.221  48.667  1.00  0.00     0.008 C 
HETATM   29  C14 UNL     1      26.741   7.527  49.372  1.00  0.00     0.054 C 
HETATM   30  C15 UNL     1      25.354   7.494  49.684  1.00  0.00     0.225 C 
HETATM   31  O2  UNL     1      25.569   6.167  50.364  1.00  0.00    -0.342 OA
ENDBRANCH  13  26
TORSDOF 2
ENDMDL
MODEL 4
REMARK VINA RESULT:      -8.7      3.808      4.798
REMARK  2 active torsions:
REMARK  status: ('A' for Active; 'I' for Inactive)
REMARK    1  A    between atoms: N2_13  and  C11_14 
REMARK    2  A    between atoms: C15_18  and  N3_20 
ROOT
HETATM    1  O1  UNL     1      23.167   9.727  46.621  1.00  0.00    -0.288 OA
HETATM    2  C1  UNL     1      23.304   9.011  47.638  1.00  0.00     0.208 A 
HETATM    3  N1  UNL     1      23.402   7.950  48.801  1.00  0.00     0.000 N 
HETATM    4  C2  UNL     1      23.134   6.322  49.165  1.00  0.00     0.040 A 
HETATM    5  C3  UNL     1      22.614   5.859  47.908  1.00  0.00     0.019 A 
HETATM    6  C4  UNL     1      22.407   6.607  46.662  1.00  0.00     0.057 A 
HETATM    7  C5  UNL     1      21.887   6.038  45.533  1.00  0.00    -0.015 A 
HETATM    8  C6  UNL     1      21.665   6.640  44.388  1.00  0.00     0.011 A 
HETATM    9  C7  UNL     1      21.132   5.688  43.549  1.00  0.00     0.001 A 
HETATM   10  C8  UNL     1      20.908   4.358  43.936  1.00  0.00     0.002 A 
HETATM   11  C9  UNL     1      21.223   3.916  45.229  1.00  0.00     0.030 A 
HETATM   12  C10 UNL     1      21.769   4.789  46.171  1.00  0.00     0.044 A 
HETATM   13  N2  UNL     1      22.177   4.723  47.462  1.00  0.00    -0.324 N 
HETATM   14  N3  UNL     1      24.555   4.091  49.874  1.00  0.00    -0.352 N 
HETATM   15  C16 UNL     1      23.914   5.278  50.564  1.00  0.00     0.142 C 
HETATM   16  C17 UNL     1      23.992   6.078  49.270  1.00  0.00     0.032 A 
HETATM   17  C18 UNL     1      23.011   6.888  48.319  1.00  0.00     0.026 A 
HETATM   18  C19 UNL     1      22.872   7.687  47.241  1.00  0.00     0.075 A 
HETATM   19  C20 UNL     1      25.554   5.807  48.990  1.00  0.00    -0.019 A 
HETATM   20  C21 UNL     1      26.335   6.763  48.381  1.00  0.00     0.010 A 
HETATM   21  C22 UNL     1      27.599   6.243  48.190  1.00  0.00     0.001 A 
HETATM   22  C23 UNL     1      27.959   4.945  48.577  1.00  0.00     0.002 A 
HETATM   23  C24 UNL     1      27.094   4.060  49.184  1.00  0.00     0.030 A 
HETATM   24  C25 UNL     1      25.849   4.458  49.416  1.00  0.00     0.039 A 
HETATM   25  H1  UNL     1      23.710   8.911  49.319  1.00  0.00     0.000 HD
ENDROOT
BRANCH  13  26
HETATM   26  C11 UNL     1      22.223   3.487  48.126  1.00  0.00     0.230 C 
HETATM   27  C12 UNL     1      22.419   2.113  47.664  1.00  0.00     0.054 C 
HETATM   28  C13 UNL     1      21.710   1.107  48.588  1.00  0.00     0.008 C 
HETATM   29  C14 UNL     1      20.734   1.630  49.653  1.00  0.00     0.054 C 
HETATM   30  C15 UNL     1      21.009   3.001  49.915  1.00  0.00     0.225 C 
HETATM   31  O2  UNL     1      20.913   3.272  48.435  1.00  0.00    -0.342 OA
ENDBRANCH  13  26
TORSDOF 2
ENDMDL
MODEL 5
REMARK VINA RESULT:      -8.7      8.088     11.496
REMARK  2 active torsions:
REMARK  status: ('A' for Active; 'I' for Inactive)
REMARK    1  A    between atoms: N2_13  and  C11_14 
REMARK    2  A    between atoms: C15_18  and  N3_20 
ROOT
HETATM    1  O1  UNL     1      27.551  11.465  49.206  1.00  0.00    -0.288 OA
HETATM    2  C1  UNL     1      28.766  11.460  48.910  1.00  0.00     0.208 A 
HETATM    3  N1  UNL     1      30.278  11.243  48.515  1.00  0.00     0.000 N 
HETATM    4  C2  UNL     1      31.399  10.056  48.079  1.00  0.00     0.040 A 
HETATM    5  C3  UNL     1      30.575   8.881  48.157  1.00  0.00     0.019 A 
HETATM    6  C4  UNL     1      29.151   8.773  48.498  1.00  0.00     0.057 A 
HETATM    7  C5  UNL     1      28.489   7.577  48.546  1.00  0.00    -0.015 A 
HETATM    8  C6  UNL     1      27.225   7.399  48.850  1.00  0.00     0.011 A 
HETATM    9  C7  UNL     1      27.000   6.043  48.780  1.00  0.00     0.001 A 
HETATM   10  C8  UNL     1      27.994   5.113  48.441  1.00  0.00     0.002 A 
HETATM   11  C9  UNL     1      29.303   5.525  48.148  1.00  0.00     0.030 A 
HETATM   12  C10 UNL     1      29.654   6.875  48.185  1.00  0.00     0.044 A 
HETATM   13  N2  UNL     1      30.771   7.613  47.977  1.00  0.00    -0.324 N 
HETATM   14  N3  UNL     1      32.938   9.341  45.931  1.00  0.00    -0.352 N 
HETATM   15  C16 UNL     1      33.040  10.272  47.122  1.00  0.00     0.142 C 
HETATM   16  C17 UNL     1      31.521  10.310  47.227  1.00  0.00     0.032 A 
HETATM   17  C18 UNL     1      30.403  10.034  48.321  1.00  0.00     0.026 A 
HETATM   18  C19 UNL     1      29.095  10.074  48.648  1.00  0.00     0.075 A 
HETATM   19  C20 UNL     1      31.248  10.684  45.685  1.00  0.00    -0.019 A 
HETATM   20  C21 UNL     1      30.181  11.481  45.333  1.00  0.00     0.010 A 
HETATM   21  C22 UNL     1      30.134  11.573  43.958  1.00  0.00     0.001 A 
HETATM   22  C23 UNL     1      31.055  10.933  43.116  1.00  0.00     0.002 A 
HETATM   23  C24 UNL     1      32.095  10.152  43.573  1.00  0.00     0.030 A 
HETATM   24  C25 UNL     1      32.233   9.995  44.884  1.00  0.00     0.039 A 
HETATM   25  H1  UNL     1      30.241  12.353  48.742  1.00  0.00     0.000 HD
ENDROOT
BRANCH  13  26
HETATM   26  C11 UNL     1      31.935   7.006  47.480  1.00  0.00     0.230 C 
HETATM   27  C12 UNL     1      32.171   5.810  46.671  1.00  0.00     0.054 C 
HETATM   28  C13 UNL     1      33.545   5.190  46.978  1.00  0.00     0.008 C 
HETATM   29  C14 UNL     1      34.341   5.699  48.190  1.00  0.00     0.054 C 
HETATM   30  C15 UNL     1      33.874   6.993  48.552  1.00  0.00     0.225 C 
HETATM   31  O2  UNL     1      32.472   6.442  48.599  1.00  0.00    -0.342 OA
ENDBRANCH  13  26
TORSDOF 2
ENDMDL
MODEL 6
REMARK VINA RESULT:      -8.4      2.304      5.021
REMARK  2 active torsions:
REMARK  status: ('A' for Active; 'I' for Inactive)
REMARK    1  A    between atoms: N2_13  and  C11_14 
REMARK    2  A    between atoms: C15_18  and  N3_20 
ROOT
HETATM    1  O1  UNL     1      26.735   1.904  51.323  1.00  0.00    -0.288 OA
HETATM    2  C1  UNL     1      26.142   2.500  50.398  1.00  0.00     0.208 A 
HETATM    3  N1  UNL     1      25.215   3.199  49.330  1.00  0.00     0.000 N 
HETATM    4  C2  UNL     1      23.600   3.519  48.951  1.00  0.00     0.040 A 
HETATM    5  C3  UNL     1      22.943   2.850  50.041  1.00  0.00     0.019 A 
HETATM    6  C4  UNL     1      23.535   2.120  51.169  1.00  0.00     0.057 A 
HETATM    7  C5  UNL     1      22.783   1.515  52.138  1.00  0.00    -0.015 A 
HETATM    8  C6  UNL     1      23.236   0.840  53.167  1.00  0.00     0.011 A 
HETATM    9  C7  UNL     1      22.130   0.409  53.863  1.00  0.00     0.001 A 
HETATM   10  C8  UNL     1      20.813   0.689  53.467  1.00  0.00     0.002 A 
HETATM   11  C9  UNL     1      20.548   1.441  52.313  1.00  0.00     0.030 A 
HETATM   12  C10 UNL     1      21.588   1.934  51.524  1.00  0.00     0.044 A 
HETATM   13  N2  UNL     1      21.708   2.662  50.387  1.00  0.00    -0.324 N 
HETATM   14  N3  UNL     1      21.911   5.658  48.700  1.00  0.00    -0.352 N 
HETATM   15  C16 UNL     1      22.897   4.901  47.834  1.00  0.00     0.142 C 
HETATM   16  C17 UNL     1      23.618   4.407  49.081  1.00  0.00     0.032 A 
HETATM   17  C18 UNL     1      24.062   3.023  49.721  1.00  0.00     0.026 A 
HETATM   18  C19 UNL     1      24.732   2.384  50.703  1.00  0.00     0.075 A 
HETATM   19  C20 UNL     1      23.793   5.853  49.767  1.00  0.00    -0.019 A 
HETATM   20  C21 UNL     1      24.901   6.138  50.534  1.00  0.00     0.010 A 
HETATM   21  C22 UNL     1      24.757   7.404  51.063  1.00  0.00     0.001 A 
HETATM   22  C23 UNL     1      23.638   8.213  50.818  1.00  0.00     0.002 A 
HETATM   23  C24 UNL     1      22.574   7.830  50.030  1.00  0.00     0.030 A 
HETATM   24  C25 UNL     1      22.609   6.627  49.470  1.00  0.00     0.039 A 
HETATM   25  H1  UNL     1      26.249   3.337  48.885  1.00  0.00     0.000 HD
ENDROOT
BRANCH  13  26
HETATM   26  C11 UNL     1      20.573   3.234  49.792  1.00  0.00     0.230 C 
HETATM   27  C12 UNL     1      19.262   3.622  50.311  1.00  0.00     0.054 C 
HETATM   28  C13 UNL     1      18.180   3.530  49.221  1.00  0.00     0.008 C 
HETATM   29  C14 UNL     1      18.518   2.842  47.889  1.00  0.00     0.054 C 
HETATM   30  C15 UNL     1      19.929   2.822  47.712  1.00  0.00     0.225 C 
HETATM   31  O2  UNL     1      20.061   2.194  49.076  1.00  0.00    -0.342 OA
ENDBRANCH  13  26
TORSDOF 2
ENDMDL
MODEL 7
REMARK VINA RESULT:      -8.3      2.349      3.309
REMARK  2 active torsions:
REMARK  status: ('A' for Active; 'I' for Inactive)
REMARK    1  A    between atoms: N2_13  and  C11_14 
REMARK    2  A    between atoms: C15_18  and  N3_20 
ROOT
HETATM    1  O1  UNL     1      25.315   7.112  49.464  1.00  0.00    -0.288 OA
HETATM    2  C1  UNL     1      24.891   6.464  50.446  1.00  0.00     0.208 A 
HETATM    3  N1  UNL     1      24.228   5.548  51.546  1.00  0.00     0.000 N 
HETATM    4  C2  UNL     1      23.083   4.326  51.770  1.00  0.00     0.040 A 
HETATM    5  C3  UNL     1      22.599   4.176  50.425  1.00  0.00     0.019 A 
HETATM    6  C4  UNL     1      23.019   4.883  49.208  1.00  0.00     0.057 A 
HETATM    7  C5  UNL     1      22.459   4.647  47.983  1.00  0.00    -0.015 A 
HETATM    8  C6  UNL     1      22.771   5.241  46.857  1.00  0.00     0.011 A 
HETATM    9  C7  UNL     1      21.952   4.697  45.894  1.00  0.00     0.001 A 
HETATM   10  C8  UNL     1      20.999   3.704  46.164  1.00  0.00     0.002 A 
HETATM   11  C9  UNL     1      20.826   3.200  47.461  1.00  0.00     0.030 A 
HETATM   12  C10 UNL     1      21.597   3.673  48.523  1.00  0.00     0.044 A 
HETATM   13  N2  UNL     1      21.701   3.437  49.854  1.00  0.00    -0.324 N 
HETATM   14  N3  UNL     1      22.970   1.703  52.546  1.00  0.00    -0.352 N 
HETATM   15  C16 UNL     1      22.959   3.068  53.204  1.00  0.00     0.142 C 
HETATM   16  C17 UNL     1      23.651   3.665  51.985  1.00  0.00     0.032 A 
HETATM   17  C18 UNL     1      23.413   4.845  50.950  1.00  0.00     0.026 A 
HETATM   18  C19 UNL     1      23.890   5.564  49.913  1.00  0.00     0.075 A 
HETATM   19  C20 UNL     1      24.851   2.594  51.922  1.00  0.00    -0.019 A 
HETATM   20  C21 UNL     1      26.105   2.967  51.492  1.00  0.00     0.010 A 
HETATM   21  C22 UNL     1      26.911   1.848  51.458  1.00  0.00     0.001 A 
HETATM   22  C23 UNL     1      26.460   0.569  51.816  1.00  0.00     0.002 A 
HETATM   23  C24 UNL     1      25.176   0.301  52.237  1.00  0.00     0.030 A 
HETATM   24  C25 UNL     1      24.314   1.309  52.306  1.00  0.00     0.039 A 
HETATM   25  H1  UNL     1      24.914   6.210  52.160  1.00  0.00     0.000 HD
ENDROOT
BRANCH  13  26
HETATM   26  C11 UNL     1      20.979   2.387  50.442  1.00  0.00     0.230 C 
HETATM   27  C12 UNL     1      20.504   1.098  49.941  1.00  0.00     0.054 C 
HETATM   28  C13 UNL     1      19.227   0.650  50.674  1.00  0.00     0.008 C 
HETATM   29  C14 UNL     1      18.503   1.647  51.591  1.00  0.00     0.054 C 
HETATM   30  C15 UNL     1      19.405   2.678  51.974  1.00  0.00     0.225 C 
HETATM   31  O2  UNL     1      19.719   2.903  50.517  1.00  0.00    -0.342 OA
ENDBRANCH  13  26
TORSDOF 2
ENDMDL
MODEL 8
REMARK VINA RESULT:      -8.2      4.200      8.440
REMARK  2 active torsions:
REMARK  status: ('A' for Active; 'I' for Inactive)
REMARK    1  A    between atoms: N2_13  and  C11_14 
REMARK    2  A    between atoms: C15_18  and  N3_20 
ROOT
HETATM    1  O1  UNL     1      25.895   2.970  50.809  1.00  0.00    -0.288 OA
HETATM    2  C1  UNL     1      24.962   3.773  50.588  1.00  0.00     0.208 A 
HETATM    3  N1  UNL     1      23.924   4.893  50.194  1.00  0.00     0.000 N 
HETATM    4  C2  UNL     1      23.752   6.314  49.295  1.00  0.00     0.040 A 
HETATM    5  C3  UNL     1      25.087   6.459  48.784  1.00  0.00     0.019 A 
HETATM    6  C4  UNL     1      26.252   5.587  48.982  1.00  0.00     0.057 A 
HETATM    7  C5  UNL     1      27.479   5.855  48.441  1.00  0.00    -0.015 A 
HETATM    8  C6  UNL     1      28.565   5.132  48.579  1.00  0.00     0.011 A 
HETATM    9  C7  UNL     1      29.553   5.783  47.875  1.00  0.00     0.001 A 
HETATM   10  C8  UNL     1      29.340   6.981  47.177  1.00  0.00     0.002 A 
HETATM   11  C9  UNL     1      28.079   7.595  47.159  1.00  0.00     0.030 A 
HETATM   12  C10 UNL     1      26.998   7.031  47.836  1.00  0.00     0.044 A 
HETATM   13  N2  UNL     1      25.691   7.330  48.038  1.00  0.00    -0.324 N 
HETATM   14  N3  UNL     1      22.372   7.241  47.120  1.00  0.00    -0.352 N 
HETATM   15  C16 UNL     1      22.147   7.095  48.611  1.00  0.00     0.142 C 
HETATM   16  C17 UNL     1      23.197   5.994  48.666  1.00  0.00     0.032 A 
HETATM   17  C18 UNL     1      24.534   5.672  49.462  1.00  0.00     0.026 A 
HETATM   18  C19 UNL     1      25.520   4.789  49.721  1.00  0.00     0.075 A 
HETATM   19  C20 UNL     1      22.585   5.107  47.470  1.00  0.00    -0.019 A 
HETATM   20  C21 UNL     1      22.680   3.733  47.493  1.00  0.00     0.010 A 
HETATM   21  C22 UNL     1      22.153   3.235  46.319  1.00  0.00     0.001 A 
HETATM   22  C23 UNL     1      21.624   4.053  45.310  1.00  0.00     0.002 A 
HETATM   23  C24 UNL     1      21.575   5.428  45.386  1.00  0.00     0.030 A 
HETATM   24  C25 UNL     1      22.058   6.014  46.476  1.00  0.00     0.039 A 
HETATM   25  H1  UNL     1      23.328   4.250  50.913  1.00  0.00     0.000 HD
ENDROOT
BRANCH  13  26
HETATM   26  C11 UNL     1      25.100   8.407  47.358  1.00  0.00     0.230 C 
HETATM   27  C12 UNL     1      25.396   9.068  46.088  1.00  0.00     0.054 C 
HETATM   28  C13 UNL     1      24.970  10.547  46.116  1.00  0.00     0.008 C 
HETATM   29  C14 UNL     1      24.560  11.181  47.454  1.00  0.00     0.054 C 
HETATM   30  C15 UNL     1      24.193  10.157  48.370  1.00  0.00     0.225 C 
HETATM   31  O2  UNL     1      25.510   9.479  48.094  1.00  0.00    -0.342 OA
ENDBRANCH  13  26
TORSDOF 2
ENDMDL
MODEL 9
REMARK VINA RESULT:      -8.0      6.607     10.944
REMARK  2 active torsions:
REMARK  status: ('A' for Active; 'I' for Inactive)
REMARK    1  A    between atoms: N2_13  and  C11_14 
REMARK    2  A    between atoms: C15_18  and  N3_20 
ROOT
HETATM    1  O1  UNL     1      26.355   4.628  48.969  1.00  0.00    -0.288 OA
HETATM    2  C1  UNL     1      26.212   5.870  48.994  1.00  0.00     0.208 A 
HETATM    3  N1  UNL     1      26.232   7.447  48.959  1.00  0.00     0.000 N 
HETATM    4  C2  UNL     1      27.214   8.774  48.596  1.00  0.00     0.040 A 
HETATM    5  C3  UNL     1      28.430   8.103  48.229  1.00  0.00     0.019 A 
HETATM    6  C4  UNL     1      28.708   6.662  48.170  1.00  0.00     0.057 A 
HETATM    7  C5  UNL     1      29.927   6.156  47.812  1.00  0.00    -0.015 A 
HETATM    8  C6  UNL     1      30.255   4.888  47.745  1.00  0.00     0.011 A 
HETATM    9  C7  UNL     1      31.574   4.851  47.355  1.00  0.00     0.001 A 
HETATM   10  C8  UNL     1      32.336   6.001  47.101  1.00  0.00     0.002 A 
HETATM   11  C9  UNL     1      31.780   7.282  47.236  1.00  0.00     0.030 A 
HETATM   12  C10 UNL     1      30.451   7.449  47.626  1.00  0.00     0.044 A 
HETATM   13  N2  UNL     1      29.610   8.487  47.857  1.00  0.00    -0.324 N 
HETATM   14  N3  UNL     1      27.328  10.845  46.809  1.00  0.00    -0.352 N 
HETATM   15  C16 UNL     1      26.680  10.554  48.146  1.00  0.00     0.142 C 
HETATM   16  C17 UNL     1      26.769   9.059  47.870  1.00  0.00     0.032 A 
HETATM   17  C18 UNL     1      27.357   7.759  48.569  1.00  0.00     0.026 A 
HETATM   18  C19 UNL     1      27.479   6.416  48.555  1.00  0.00     0.075 A 
HETATM   19  C20 UNL     1      26.083   9.108  46.414  1.00  0.00    -0.019 A 
HETATM   20  C21 UNL     1      25.303   8.064  45.969  1.00  0.00     0.010 A 
HETATM   21  C22 UNL     1      24.913   8.328  44.672  1.00  0.00     0.001 A 
HETATM   22  C23 UNL     1      25.286   9.489  43.981  1.00  0.00     0.002 A 
HETATM   23  C24 UNL     1      26.076  10.481  44.522  1.00  0.00     0.030 A 
HETATM   24  C25 UNL     1      26.509  10.329  45.768  1.00  0.00     0.039 A 
HETATM   25  H1  UNL     1      25.205   7.225  49.385  1.00  0.00     0.000 HD
ENDROOT
BRANCH  13  26
HETATM   26  C11 UNL     1      30.012   9.800  47.561  1.00  0.00     0.230 C 
HETATM   27  C12 UNL     1      30.983  10.359  46.621  1.00  0.00     0.054 C 
HETATM   28  C13 UNL     1      31.556  11.690  47.138  1.00  0.00     0.008 C 
HETATM   29  C14 UNL     1      31.268  12.117  48.585  1.00  0.00     0.054 C 
HETATM   30  C15 UNL     1      30.120  11.425  49.062  1.00  0.00     0.225 C 
HETATM   31  O2  UNL     1      30.765  10.128  48.648  1.00  0.00    -0.342 OA
ENDBRANCH  13  26
TORSDOF 2
ENDMDL
