MODEL 1
REMARK VINA RESULT:      -9.1      0.000      0.000
REMARK  0 active torsions:
REMARK  status: ('A' for Active; 'I' for Inactive)
ROOT
HETATM    1  C1  UNL     1      21.371   7.768  50.210  1.00  0.00     0.012 C 
HETATM    2  C2  UNL     1      21.343   6.236  49.987  1.00  0.00     0.003 C 
HETATM    3  C3  UNL     1      20.120   5.710  49.402  1.00  0.00     0.124 C 
HETATM    4  N1  UNL     1      19.886   4.282  49.531  1.00  0.00    -0.392 N 
HETATM    5  C4  UNL     1      20.356   3.006  49.183  1.00  0.00     0.016 C 
HETATM    6  C5  UNL     1      20.424   2.376  50.383  1.00  0.00    -0.052 C 
HETATM    7  C6  UNL     1      19.719   3.199  51.375  1.00  0.00     0.062 C 
HETATM    8  C7  UNL     1      20.531   2.666  52.606  1.00  0.00     0.172 C 
HETATM    9  O1  UNL     1      21.885   2.644  52.333  1.00  0.00    -0.385 OA
HETATM   10  C8  UNL     1      22.315   1.587  51.555  1.00  0.00     0.129 C 
HETATM   11  C9  UNL     1      23.399   1.974  50.529  1.00  0.00     0.071 C 
HETATM   12  C10 UNL     1      22.814   2.191  49.159  1.00  0.00    -0.048 C 
HETATM   13  C11 UNL     1      22.050   1.711  48.129  1.00  0.00    -0.007 C 
HETATM   14  C12 UNL     1      20.744   2.476  47.857  1.00  0.00     0.071 C 
HETATM   15  C13 UNL     1      21.088   3.527  46.890  1.00  0.00     0.065 C 
HETATM   16  C14 UNL     1      21.952   4.610  47.409  1.00  0.00    -0.063 C 
HETATM   17  C15 UNL     1      22.647   4.753  48.594  1.00  0.00    -0.043 C 
HETATM   18  C16 UNL     1      22.642   6.042  49.167  1.00  0.00     0.045 C 
HETATM   19  C17 UNL     1      23.381   3.558  49.125  1.00  0.00    -0.019 C 
HETATM   20  C18 UNL     1      24.601   3.929  49.398  1.00  0.00    -0.042 C 
HETATM   21  C19 UNL     1      25.725   4.846  49.584  1.00  0.00     0.158 C 
HETATM   22  N2  UNL     1      26.441   4.294  50.754  1.00  0.00    -0.357 N 
HETATM   23  C20 UNL     1      26.430   2.896  50.551  1.00  0.00     0.221 C 
HETATM   24  O2  UNL     1      26.981   2.105  51.322  1.00  0.00    -0.273 OA
HETATM   25  C21 UNL     1      25.655   2.874  49.312  1.00  0.00     0.139 C 
HETATM   26  C22 UNL     1      22.161   5.767  46.494  1.00  0.00     0.042 C 
HETATM   27  C23 UNL     1      21.787   5.368  45.053  1.00  0.00     0.066 C 
HETATM   28  C24 UNL     1      20.327   5.021  45.112  1.00  0.00     0.063 A 
HETATM   29  N3  UNL     1      19.171   5.350  44.508  1.00  0.00    -0.177 NA
HETATM   30  N4  UNL     1      18.171   4.661  45.042  1.00  0.00    -0.284 N 
HETATM   31  C25 UNL     1      16.776   4.761  44.638  1.00  0.00     0.179 C 
HETATM   32  C26 UNL     1      18.613   3.841  46.028  1.00  0.00     0.121 A 
HETATM   33  C27 UNL     1      19.977   4.065  46.075  1.00  0.00    -0.005 A 
HETATM   34  C28 UNL     1      21.073   1.088  50.866  1.00  0.00     0.068 C 
HETATM   35  H7  UNL     1      19.020   3.937  50.075  1.00  0.00     0.159 HD
HETATM   36  H22 UNL     1      26.859   4.868  51.555  1.00  0.00     0.162 HD
ENDROOT
TORSDOF 0
ENDMDL
MODEL 2
REMARK VINA RESULT:      -8.6      3.245      6.115
REMARK  0 active torsions:
REMARK  status: ('A' for Active; 'I' for Inactive)
ROOT
HETATM    1  C1  UNL     1      23.042   2.096  47.102  1.00  0.00     0.012 C 
HETATM    2  C2  UNL     1      22.801   3.049  48.298  1.00  0.00     0.003 C 
HETATM    3  C3  UNL     1      21.919   2.542  49.336  1.00  0.00     0.124 C 
HETATM    4  N1  UNL     1      21.356   3.514  50.259  1.00  0.00    -0.392 N 
HETATM    5  C4  UNL     1      21.655   4.451  51.260  1.00  0.00     0.016 C 
HETATM    6  C5  UNL     1      21.016   5.566  50.824  1.00  0.00    -0.052 C 
HETATM    7  C6  UNL     1      20.118   5.181  49.726  1.00  0.00     0.062 C 
HETATM    8  C7  UNL     1      20.121   6.590  49.038  1.00  0.00     0.172 C 
HETATM    9  O1  UNL     1      21.406   7.091  48.945  1.00  0.00    -0.385 OA
HETATM   10  C8  UNL     1      21.919   7.627  50.110  1.00  0.00     0.129 C 
HETATM   11  C9  UNL     1      23.411   7.313  50.332  1.00  0.00     0.071 C 
HETATM   12  C10 UNL     1      23.601   6.160  51.281  1.00  0.00    -0.048 C 
HETATM   13  C11 UNL     1      23.330   5.598  52.499  1.00  0.00    -0.007 C 
HETATM   14  C12 UNL     1      22.500   4.304  52.466  1.00  0.00     0.071 C 
HETATM   15  C13 UNL     1      23.471   3.206  52.362  1.00  0.00     0.065 C 
HETATM   16  C14 UNL     1      24.195   3.117  51.075  1.00  0.00    -0.063 C 
HETATM   17  C15 UNL     1      24.262   3.968  49.990  1.00  0.00    -0.043 C 
HETATM   18  C16 UNL     1      24.260   3.356  48.719  1.00  0.00     0.045 C 
HETATM   19  C17 UNL     1      24.390   5.438  50.258  1.00  0.00    -0.019 C 
HETATM   20  C18 UNL     1      25.385   5.887  49.545  1.00  0.00    -0.042 C 
HETATM   21  C19 UNL     1      26.453   5.860  48.546  1.00  0.00     0.158 C 
HETATM   22  N2  UNL     1      26.400   7.205  47.934  1.00  0.00    -0.357 N 
HETATM   23  C20 UNL     1      26.192   8.083  49.022  1.00  0.00     0.221 C 
HETATM   24  O2  UNL     1      26.134   9.308  48.890  1.00  0.00    -0.273 OA
HETATM   25  C21 UNL     1      26.106   7.080  50.082  1.00  0.00     0.139 C 
HETATM   26  C22 UNL     1      25.048   1.908  50.895  1.00  0.00     0.042 C 
HETATM   27  C23 UNL     1      25.323   1.253  52.262  1.00  0.00     0.066 C 
HETATM   28  C24 UNL     1      23.971   0.850  52.778  1.00  0.00     0.063 A 
HETATM   29  N3  UNL     1      23.334  -0.241  53.238  1.00  0.00    -0.177 NA
HETATM   30  N4  UNL     1      22.081   0.065  53.548  1.00  0.00    -0.284 N 
HETATM   31  C25 UNL     1      21.097  -0.870  54.076  1.00  0.00     0.179 C 
HETATM   32  C26 UNL     1      21.823   1.374  53.308  1.00  0.00     0.121 A 
HETATM   33  C27 UNL     1      23.016   1.875  52.821  1.00  0.00    -0.005 A 
HETATM   34  C28 UNL     1      21.074   7.036  51.207  1.00  0.00     0.068 C 
HETATM   35  H7  UNL     1      20.286   3.643  50.301  1.00  0.00     0.159 HD
HETATM   36  H22 UNL     1      26.501   7.418  46.890  1.00  0.00     0.162 HD
ENDROOT
TORSDOF 0
ENDMDL
MODEL 3
REMARK VINA RESULT:      -8.6      3.010      5.729
REMARK  0 active torsions:
REMARK  status: ('A' for Active; 'I' for Inactive)
ROOT
HETATM    1  C1  UNL     1      22.383   1.816  47.421  1.00  0.00     0.012 C 
HETATM    2  C2  UNL     1      22.963   2.266  48.784  1.00  0.00     0.003 C 
HETATM    3  C3  UNL     1      23.793   3.459  48.750  1.00  0.00     0.124 C 
HETATM    4  N1  UNL     1      24.660   3.695  49.892  1.00  0.00    -0.392 N 
HETATM    5  C4  UNL     1      24.695   3.962  51.269  1.00  0.00     0.016 C 
HETATM    6  C5  UNL     1      25.539   3.008  51.736  1.00  0.00    -0.052 C 
HETATM    7  C6  UNL     1      26.207   2.382  50.586  1.00  0.00     0.062 C 
HETATM    8  C7  UNL     1      26.477   1.014  51.303  1.00  0.00     0.172 C 
HETATM    9  O1  UNL     1      25.349   0.575  51.970  1.00  0.00    -0.385 OA
HETATM   10  C8  UNL     1      25.097   1.192  53.179  1.00  0.00     0.129 C 
HETATM   11  C9  UNL     1      23.601   1.463  53.435  1.00  0.00     0.071 C 
HETATM   12  C10 UNL     1      23.232   2.887  53.115  1.00  0.00    -0.048 C 
HETATM   13  C11 UNL     1      23.475   4.222  53.294  1.00  0.00    -0.007 C 
HETATM   14  C12 UNL     1      23.961   4.983  52.049  1.00  0.00     0.071 C 
HETATM   15  C13 UNL     1      22.748   5.465  51.375  1.00  0.00     0.065 C 
HETATM   16  C14 UNL     1      21.902   4.419  50.761  1.00  0.00    -0.063 C 
HETATM   17  C15 UNL     1      21.938   3.040  50.832  1.00  0.00    -0.043 C 
HETATM   18  C16 UNL     1      21.669   2.348  49.632  1.00  0.00     0.045 C 
HETATM   19  C17 UNL     1      22.196   2.413  52.170  1.00  0.00    -0.019 C 
HETATM   20  C18 UNL     1      21.275   1.512  52.371  1.00  0.00    -0.042 C 
HETATM   21  C19 UNL     1      20.139   0.646  52.056  1.00  0.00     0.158 C 
HETATM   22  N2  UNL     1      20.457  -0.620  52.753  1.00  0.00    -0.357 N 
HETATM   23  C20 UNL     1      20.975  -0.217  54.004  1.00  0.00     0.221 C 
HETATM   24  O2  UNL     1      21.314  -1.021  54.876  1.00  0.00    -0.273 OA
HETATM   25  C21 UNL     1      20.918   1.229  53.794  1.00  0.00     0.139 C 
HETATM   26  C22 UNL     1      20.769   4.908  49.925  1.00  0.00     0.042 C 
HETATM   27  C23 UNL     1      20.479   6.385  50.253  1.00  0.00     0.066 C 
HETATM   28  C24 UNL     1      21.737   7.120  49.887  1.00  0.00     0.063 A 
HETATM   29  N3  UNL     1      22.133   8.158  49.129  1.00  0.00    -0.177 NA
HETATM   30  N4  UNL     1      23.446   8.313  49.227  1.00  0.00    -0.284 N 
HETATM   31  C25 UNL     1      24.222   9.338  48.543  1.00  0.00     0.179 C 
HETATM   32  C26 UNL     1      23.989   7.385  50.054  1.00  0.00     0.121 A 
HETATM   33  C27 UNL     1      22.911   6.628  50.474  1.00  0.00    -0.005 A 
HETATM   34  C28 UNL     1      25.876   2.479  53.122  1.00  0.00     0.068 C 
HETATM   35  H7  UNL     1      25.729   3.720  49.746  1.00  0.00     0.159 HD
HETATM   36  H22 UNL     1      20.309  -1.603  52.355  1.00  0.00     0.162 HD
ENDROOT
TORSDOF 0
ENDMDL
MODEL 4
REMARK VINA RESULT:      -8.5      6.811      9.966
REMARK  0 active torsions:
REMARK  status: ('A' for Active; 'I' for Inactive)
ROOT
HETATM    1  C1  UNL     1      27.168   8.577  44.056  1.00  0.00     0.012 C 
HETATM    2  C2  UNL     1      27.656   9.178  45.397  1.00  0.00     0.003 C 
HETATM    3  C3  UNL     1      26.612   9.501  46.355  1.00  0.00     0.124 C 
HETATM    4  N1  UNL     1      26.965  10.405  47.438  1.00  0.00    -0.392 N 
HETATM    5  C4  UNL     1      27.773  10.576  48.572  1.00  0.00     0.016 C 
HETATM    6  C5  UNL     1      28.364  11.775  48.339  1.00  0.00    -0.052 C 
HETATM    7  C6  UNL     1      27.673  12.417  47.212  1.00  0.00     0.062 C 
HETATM    8  C7  UNL     1      28.902  13.282  46.764  1.00  0.00     0.172 C 
HETATM    9  O1  UNL     1      30.055  12.521  46.729  1.00  0.00    -0.385 OA
HETATM   10  C8  UNL     1      30.640  12.272  47.954  1.00  0.00     0.129 C 
HETATM   11  C9  UNL     1      31.212  10.847  48.091  1.00  0.00     0.071 C 
HETATM   12  C10 UNL     1      30.269   9.939  48.833  1.00  0.00    -0.048 C 
HETATM   13  C11 UNL     1      29.508   9.709  49.948  1.00  0.00    -0.007 C 
HETATM   14  C12 UNL     1      27.988   9.667  49.720  1.00  0.00     0.071 C 
HETATM   15  C13 UNL     1      27.667   8.266  49.417  1.00  0.00     0.065 C 
HETATM   16  C14 UNL     1      28.167   7.765  48.118  1.00  0.00    -0.063 C 
HETATM   17  C15 UNL     1      29.028   8.308  47.186  1.00  0.00    -0.043 C 
HETATM   18  C16 UNL     1      28.688   8.107  45.831  1.00  0.00     0.045 C 
HETATM   19  C17 UNL     1      30.260   8.999  47.689  1.00  0.00    -0.019 C 
HETATM   20  C18 UNL     1      31.282   8.516  47.039  1.00  0.00    -0.042 C 
HETATM   21  C19 UNL     1      31.994   7.735  46.027  1.00  0.00     0.158 C 
HETATM   22  N2  UNL     1      33.130   8.603  45.646  1.00  0.00    -0.357 N 
HETATM   23  C20 UNL     1      33.589   9.145  46.868  1.00  0.00     0.221 C 
HETATM   24  O2  UNL     1      34.565   9.896  46.940  1.00  0.00    -0.273 OA
HETATM   25  C21 UNL     1      32.596   8.534  47.750  1.00  0.00     0.139 C 
HETATM   26  C22 UNL     1      27.697   6.406  47.723  1.00  0.00     0.042 C 
HETATM   27  C23 UNL     1      27.155   5.662  48.958  1.00  0.00     0.066 C 
HETATM   28  C24 UNL     1      25.991   6.486  49.429  1.00  0.00     0.063 A 
HETATM   29  N3  UNL     1      24.685   6.344  49.717  1.00  0.00    -0.177 NA
HETATM   30  N4  UNL     1      24.178   7.509  50.099  1.00  0.00    -0.284 N 
HETATM   31  C25 UNL     1      22.792   7.732  50.486  1.00  0.00     0.179 C 
HETATM   32  C26 UNL     1      25.121   8.483  50.083  1.00  0.00     0.121 A 
HETATM   33  C27 UNL     1      26.271   7.840  49.660  1.00  0.00    -0.005 A 
HETATM   34  C28 UNL     1      29.543  12.511  48.958  1.00  0.00     0.068 C 
HETATM   35  H7  UNL     1      26.452  11.351  47.522  1.00  0.00     0.159 HD
HETATM   36  H22 UNL     1      33.489   8.755  44.649  1.00  0.00     0.162 HD
ENDROOT
TORSDOF 0
ENDMDL
MODEL 5
REMARK VINA RESULT:      -8.2      8.019     11.103
REMARK  0 active torsions:
REMARK  status: ('A' for Active; 'I' for Inactive)
ROOT
HETATM    1  C1  UNL     1      31.735  10.465  43.874  1.00  0.00     0.012 C 
HETATM    2  C2  UNL     1      30.586   9.959  44.779  1.00  0.00     0.003 C 
HETATM    3  C3  UNL     1      30.455   8.515  44.877  1.00  0.00     0.124 C 
HETATM    4  N1  UNL     1      29.192   7.997  45.378  1.00  0.00    -0.392 N 
HETATM    5  C4  UNL     1      28.334   7.943  46.487  1.00  0.00     0.016 C 
HETATM    6  C5  UNL     1      27.144   8.330  45.961  1.00  0.00    -0.052 C 
HETATM    7  C6  UNL     1      27.264   8.325  44.497  1.00  0.00     0.062 C 
HETATM    8  C7  UNL     1      26.150   9.401  44.257  1.00  0.00     0.172 C 
HETATM    9  O1  UNL     1      26.305  10.472  45.116  1.00  0.00    -0.385 OA
HETATM   10  C8  UNL     1      25.867  10.264  46.409  1.00  0.00     0.129 C 
HETATM   11  C9  UNL     1      26.777  10.896  47.481  1.00  0.00     0.071 C 
HETATM   12  C10 UNL     1      27.710   9.881  48.086  1.00  0.00    -0.048 C 
HETATM   13  C11 UNL     1      27.872   8.670  48.703  1.00  0.00    -0.007 C 
HETATM   14  C12 UNL     1      28.637   7.609  47.896  1.00  0.00     0.071 C 
HETATM   15  C13 UNL     1      30.054   7.786  48.242  1.00  0.00     0.065 C 
HETATM   16  C14 UNL     1      30.679   9.031  47.745  1.00  0.00    -0.063 C 
HETATM   17  C15 UNL     1      30.150  10.158  47.148  1.00  0.00    -0.043 C 
HETATM   18  C16 UNL     1      30.903  10.716  46.094  1.00  0.00     0.045 C 
HETATM   19  C17 UNL     1      28.873  10.713  47.707  1.00  0.00    -0.019 C 
HETATM   20  C18 UNL     1      29.050  11.989  47.911  1.00  0.00    -0.042 C 
HETATM   21  C19 UNL     1      29.727  13.285  47.862  1.00  0.00     0.158 C 
HETATM   22  N2  UNL     1      28.629  14.248  47.630  1.00  0.00    -0.357 N 
HETATM   23  C20 UNL     1      27.580  13.800  48.464  1.00  0.00     0.221 C 
HETATM   24  O2  UNL     1      26.503  14.394  48.560  1.00  0.00    -0.273 OA
HETATM   25  C21 UNL     1      28.238  12.610  49.000  1.00  0.00     0.139 C 
HETATM   26  C22 UNL     1      32.153   9.136  47.936  1.00  0.00     0.042 C 
HETATM   27  C23 UNL     1      32.617   8.121  48.998  1.00  0.00     0.066 C 
HETATM   28  C24 UNL     1      32.272   6.776  48.426  1.00  0.00     0.063 A 
HETATM   29  N3  UNL     1      32.862   5.600  48.147  1.00  0.00    -0.177 NA
HETATM   30  N4  UNL     1      31.977   4.765  47.621  1.00  0.00    -0.284 N 
HETATM   31  C25 UNL     1      32.261   3.401  47.196  1.00  0.00     0.179 C 
HETATM   32  C26 UNL     1      30.754   5.343  47.524  1.00  0.00     0.121 A 
HETATM   33  C27 UNL     1      30.936   6.616  48.033  1.00  0.00    -0.005 A 
HETATM   34  C28 UNL     1      25.816   8.767  46.560  1.00  0.00     0.068 C 
HETATM   35  H7  UNL     1      28.589   7.370  44.739  1.00  0.00     0.159 HD
HETATM   36  H22 UNL     1      28.667  15.087  46.966  1.00  0.00     0.162 HD
ENDROOT
TORSDOF 0
ENDMDL
MODEL 6
REMARK VINA RESULT:      -8.2      8.120     12.063
REMARK  0 active torsions:
REMARK  status: ('A' for Active; 'I' for Inactive)
ROOT
HETATM    1  C1  UNL     1      30.834   8.808  43.415  1.00  0.00     0.012 C 
HETATM    2  C2  UNL     1      30.447   8.831  44.914  1.00  0.00     0.003 C 
HETATM    3  C3  UNL     1      30.839   7.659  45.680  1.00  0.00     0.124 C 
HETATM    4  N1  UNL     1      30.178   7.453  46.958  1.00  0.00    -0.392 N 
HETATM    5  C4  UNL     1      29.982   7.975  48.246  1.00  0.00     0.016 C 
HETATM    6  C5  UNL     1      28.631   7.985  48.361  1.00  0.00    -0.052 C 
HETATM    7  C6  UNL     1      28.068   7.202  47.253  1.00  0.00     0.062 C 
HETATM    8  C7  UNL     1      26.691   7.950  47.232  1.00  0.00     0.172 C 
HETATM    9  O1  UNL     1      26.871   9.319  47.296  1.00  0.00    -0.385 OA
HETATM   10  C8  UNL     1      27.158   9.821  48.549  1.00  0.00     0.129 C 
HETATM   11  C9  UNL     1      28.203  10.955  48.538  1.00  0.00     0.071 C 
HETATM   12  C10 UNL     1      29.575  10.448  48.893  1.00  0.00    -0.048 C 
HETATM   13  C11 UNL     1      30.373   9.760  49.768  1.00  0.00    -0.007 C 
HETATM   14  C12 UNL     1      30.980   8.455  49.228  1.00  0.00     0.071 C 
HETATM   15  C13 UNL     1      32.261   8.831  48.616  1.00  0.00     0.065 C 
HETATM   16  C14 UNL     1      32.164   9.635  47.378  1.00  0.00    -0.063 C 
HETATM   17  C15 UNL     1      31.096  10.253  46.758  1.00  0.00    -0.043 C 
HETATM   18  C16 UNL     1      31.068  10.182  45.349  1.00  0.00     0.045 C 
HETATM   19  C17 UNL     1      30.110  10.983  47.621  1.00  0.00    -0.019 C 
HETATM   20  C18 UNL     1      29.946  12.174  47.117  1.00  0.00    -0.042 C 
HETATM   21  C19 UNL     1      30.078  13.263  46.148  1.00  0.00     0.158 C 
HETATM   22  N2  UNL     1      28.753  13.920  46.173  1.00  0.00    -0.357 N 
HETATM   23  C20 UNL     1      28.400  13.956  47.541  1.00  0.00     0.221 C 
HETATM   24  O2  UNL     1      27.358  14.478  47.947  1.00  0.00    -0.273 OA
HETATM   25  C21 UNL     1      29.568  13.257  48.074  1.00  0.00     0.139 C 
HETATM   26  C22 UNL     1      33.445   9.870  46.655  1.00  0.00     0.042 C 
HETATM   27  C23 UNL     1      34.634   9.594  47.595  1.00  0.00     0.066 C 
HETATM   28  C24 UNL     1      34.513   8.141  47.959  1.00  0.00     0.063 A 
HETATM   29  N3  UNL     1      35.249   7.017  47.942  1.00  0.00    -0.177 NA
HETATM   30  N4  UNL     1      34.537   6.004  48.417  1.00  0.00    -0.284 N 
HETATM   31  C25 UNL     1      35.012   4.633  48.546  1.00  0.00     0.179 C 
HETATM   32  C26 UNL     1      33.292   6.405  48.773  1.00  0.00     0.121 A 
HETATM   33  C27 UNL     1      33.272   7.757  48.485  1.00  0.00    -0.005 A 
HETATM   34  C28 UNL     1      27.657   8.636  49.332  1.00  0.00     0.068 C 
HETATM   35  H7  UNL     1      29.584   6.564  47.106  1.00  0.00     0.159 HD
HETATM   36  H22 UNL     1      28.219  14.274  45.316  1.00  0.00     0.162 HD
ENDROOT
TORSDOF 0
ENDMDL
MODEL 7
REMARK VINA RESULT:      -8.0      8.521     11.246
REMARK  0 active torsions:
REMARK  status: ('A' for Active; 'I' for Inactive)
ROOT
HETATM    1  C1  UNL     1      27.988   8.795  43.772  1.00  0.00     0.012 C 
HETATM    2  C2  UNL     1      28.898   9.417  44.859  1.00  0.00     0.003 C 
HETATM    3  C3  UNL     1      28.723  10.843  45.082  1.00  0.00     0.124 C 
HETATM    4  N1  UNL     1      29.789  11.538  45.785  1.00  0.00    -0.392 N 
HETATM    5  C4  UNL     1      30.483  11.643  47.000  1.00  0.00     0.016 C 
HETATM    6  C5  UNL     1      31.779  11.544  46.612  1.00  0.00    -0.052 C 
HETATM    7  C6  UNL     1      31.833  11.673  45.149  1.00  0.00     0.062 C 
HETATM    8  C7  UNL     1      33.161  10.857  44.982  1.00  0.00     0.172 C 
HETATM    9  O1  UNL     1      33.125   9.695  45.729  1.00  0.00    -0.385 OA
HETATM   10  C8  UNL     1      33.357   9.852  47.081  1.00  0.00     0.129 C 
HETATM   11  C9  UNL     1      32.474   8.955  47.970  1.00  0.00     0.071 C 
HETATM   12  C10 UNL     1      31.292   9.708  48.519  1.00  0.00    -0.048 C 
HETATM   13  C11 UNL     1      30.819  10.799  49.198  1.00  0.00    -0.007 C 
HETATM   14  C12 UNL     1      29.956  11.771  48.377  1.00  0.00     0.071 C 
HETATM   15  C13 UNL     1      28.573  11.294  48.515  1.00  0.00     0.065 C 
HETATM   16  C14 UNL     1      28.273  10.009  47.846  1.00  0.00    -0.063 C 
HETATM   17  C15 UNL     1      29.085   9.068  47.243  1.00  0.00    -0.043 C 
HETATM   18  C16 UNL     1      28.588   8.486  46.058  1.00  0.00     0.045 C 
HETATM   19  C17 UNL     1      30.372   8.713  47.925  1.00  0.00    -0.019 C 
HETATM   20  C18 UNL     1      30.433   7.412  48.007  1.00  0.00    -0.042 C 
HETATM   21  C19 UNL     1      30.041   6.023  47.770  1.00  0.00     0.158 C 
HETATM   22  N2  UNL     1      31.330   5.314  47.616  1.00  0.00    -0.357 N 
HETATM   23  C20 UNL     1      32.162   5.868  48.615  1.00  0.00     0.221 C 
HETATM   24  O2  UNL     1      33.318   5.482  48.810  1.00  0.00    -0.273 OA
HETATM   25  C21 UNL     1      31.220   6.851  49.146  1.00  0.00     0.139 C 
HETATM   26  C22 UNL     1      26.838   9.607  47.829  1.00  0.00     0.042 C 
HETATM   27  C23 UNL     1      26.059  10.404  48.892  1.00  0.00     0.066 C 
HETATM   28  C24 UNL     1      26.191  11.841  48.475  1.00  0.00     0.063 A 
HETATM   29  N3  UNL     1      25.413  12.905  48.208  1.00  0.00    -0.177 NA
HETATM   30  N4  UNL     1      26.168  13.942  47.870  1.00  0.00    -0.284 N 
HETATM   31  C25 UNL     1      25.667  15.262  47.514  1.00  0.00     0.179 C 
HETATM   32  C26 UNL     1      27.485  13.618  47.895  1.00  0.00     0.121 A 
HETATM   33  C27 UNL     1      27.504  12.290  48.278  1.00  0.00    -0.005 A 
HETATM   34  C28 UNL     1      33.089  11.309  47.349  1.00  0.00     0.068 C 
HETATM   35  H7  UNL     1      30.324  12.329  45.282  1.00  0.00     0.159 HD
HETATM   36  H22 UNL     1      31.539   4.554  46.892  1.00  0.00     0.162 HD
ENDROOT
TORSDOF 0
ENDMDL
MODEL 8
REMARK VINA RESULT:      -8.0      1.866      2.314
REMARK  0 active torsions:
REMARK  status: ('A' for Active; 'I' for Inactive)
ROOT
HETATM    1  C1  UNL     1      19.399   7.991  49.504  1.00  0.00     0.012 C 
HETATM    2  C2  UNL     1      19.881   6.558  49.175  1.00  0.00     0.003 C 
HETATM    3  C3  UNL     1      19.427   6.020  47.903  1.00  0.00     0.124 C 
HETATM    4  N1  UNL     1      19.516   4.581  47.723  1.00  0.00    -0.392 N 
HETATM    5  C4  UNL     1      20.393   3.488  47.637  1.00  0.00     0.016 C 
HETATM    6  C5  UNL     1      19.878   2.621  48.544  1.00  0.00    -0.052 C 
HETATM    7  C6  UNL     1      18.546   3.102  48.936  1.00  0.00     0.062 C 
HETATM    8  C7  UNL     1      18.556   2.419  50.348  1.00  0.00     0.172 C 
HETATM    9  O1  UNL     1      19.759   2.636  50.992  1.00  0.00    -0.385 OA
HETATM   10  C8  UNL     1      20.810   1.845  50.570  1.00  0.00     0.129 C 
HETATM   11  C9  UNL     1      22.157   2.590  50.502  1.00  0.00     0.071 C 
HETATM   12  C10 UNL     1      22.479   3.028  49.099  1.00  0.00    -0.048 C 
HETATM   13  C11 UNL     1      22.630   2.695  47.779  1.00  0.00    -0.007 C 
HETATM   14  C12 UNL     1      21.612   3.322  46.814  1.00  0.00     0.071 C 
HETATM   15  C13 UNL     1      22.199   4.599  46.385  1.00  0.00     0.065 C 
HETATM   16  C14 UNL     1      22.285   5.642  47.429  1.00  0.00    -0.063 C 
HETATM   17  C15 UNL     1      22.070   5.607  48.793  1.00  0.00    -0.043 C 
HETATM   18  C16 UNL     1      21.412   6.724  49.348  1.00  0.00     0.045 C 
HETATM   19  C17 UNL     1      22.602   4.431  49.556  1.00  0.00    -0.019 C 
HETATM   20  C18 UNL     1      23.279   4.889  50.572  1.00  0.00    -0.042 C 
HETATM   21  C19 UNL     1      23.804   5.881  51.511  1.00  0.00     0.158 C 
HETATM   22  N2  UNL     1      23.782   5.180  52.813  1.00  0.00    -0.357 N 
HETATM   23  C20 UNL     1      24.234   3.873  52.522  1.00  0.00     0.221 C 
HETATM   24  O2  UNL     1      24.384   3.010  53.391  1.00  0.00    -0.273 OA
HETATM   25  C21 UNL     1      24.390   4.027  51.077  1.00  0.00     0.139 C 
HETATM   26  C22 UNL     1      22.713   6.992  46.963  1.00  0.00     0.042 C 
HETATM   27  C23 UNL     1      23.388   6.878  45.583  1.00  0.00     0.066 C 
HETATM   28  C24 UNL     1      22.322   6.339  44.672  1.00  0.00     0.063 A 
HETATM   29  N3  UNL     1      21.723   6.639  43.507  1.00  0.00    -0.177 NA
HETATM   30  N4  UNL     1      20.806   5.723  43.222  1.00  0.00    -0.284 N 
HETATM   31  C25 UNL     1      19.960   5.726  42.037  1.00  0.00     0.179 C 
HETATM   32  C26 UNL     1      20.751   4.769  44.184  1.00  0.00     0.121 A 
HETATM   33  C27 UNL     1      21.709   5.154  45.104  1.00  0.00    -0.005 A 
HETATM   34  C28 UNL     1      20.396   1.354  49.208  1.00  0.00     0.068 C 
HETATM   35  H7  UNL     1      18.613   4.013  47.561  1.00  0.00     0.159 HD
HETATM   36  H22 UNL     1      23.482   5.611  53.746  1.00  0.00     0.162 HD
ENDROOT
TORSDOF 0
ENDMDL
MODEL 9
REMARK VINA RESULT:      -7.9      2.822      5.527
REMARK  0 active torsions:
REMARK  status: ('A' for Active; 'I' for Inactive)
ROOT
HETATM    1  C1  UNL     1      22.293   3.084  46.182  1.00  0.00     0.012 C 
HETATM    2  C2  UNL     1      22.024   3.967  47.425  1.00  0.00     0.003 C 
HETATM    3  C3  UNL     1      20.881   3.580  48.234  1.00  0.00     0.124 C 
HETATM    4  N1  UNL     1      20.359   4.572  49.159  1.00  0.00    -0.392 N 
HETATM    5  C4  UNL     1      20.644   5.339  50.300  1.00  0.00     0.016 C 
HETATM    6  C5  UNL     1      20.331   6.597  49.898  1.00  0.00    -0.052 C 
HETATM    7  C6  UNL     1      19.597   6.506  48.629  1.00  0.00     0.062 C 
HETATM    8  C7  UNL     1      20.009   7.931  48.122  1.00  0.00     0.172 C 
HETATM    9  O1  UNL     1      21.361   8.149  48.305  1.00  0.00    -0.385 OA
HETATM   10  C8  UNL     1      21.742   8.465  49.594  1.00  0.00     0.129 C 
HETATM   11  C9  UNL     1      23.074   7.819  50.023  1.00  0.00     0.071 C 
HETATM   12  C10 UNL     1      22.850   6.580  50.847  1.00  0.00    -0.048 C 
HETATM   13  C11 UNL     1      22.250   5.992  51.928  1.00  0.00    -0.007 C 
HETATM   14  C12 UNL     1      21.201   4.915  51.603  1.00  0.00     0.071 C 
HETATM   15  C13 UNL     1      21.938   3.646  51.534  1.00  0.00     0.065 C 
HETATM   16  C14 UNL     1      22.858   3.507  50.384  1.00  0.00    -0.063 C 
HETATM   17  C15 UNL     1      23.295   4.408  49.433  1.00  0.00    -0.043 C 
HETATM   18  C16 UNL     1      23.410   3.916  48.116  1.00  0.00     0.045 C 
HETATM   19  C17 UNL     1      23.658   5.789  49.891  1.00  0.00    -0.019 C 
HETATM   20  C18 UNL     1      24.838   6.069  49.412  1.00  0.00    -0.042 C 
HETATM   21  C19 UNL     1      26.048   5.893  48.609  1.00  0.00     0.158 C 
HETATM   22  N2  UNL     1      26.378   7.263  48.161  1.00  0.00    -0.357 N 
HETATM   23  C20 UNL     1      26.148   8.074  49.296  1.00  0.00     0.221 C 
HETATM   24  O2  UNL     1      26.359   9.289  49.301  1.00  0.00    -0.273 OA
HETATM   25  C21 UNL     1      25.667   7.030  50.200  1.00  0.00     0.139 C 
HETATM   26  C22 UNL     1      23.473   2.161  50.206  1.00  0.00     0.042 C 
HETATM   27  C23 UNL     1      23.351   1.353  51.512  1.00  0.00     0.066 C 
HETATM   28  C24 UNL     1      21.873   1.212  51.744  1.00  0.00     0.063 A 
HETATM   29  N3  UNL     1      20.959   0.250  51.960  1.00  0.00    -0.177 NA
HETATM   30  N4  UNL     1      19.756   0.793  52.091  1.00  0.00    -0.284 N 
HETATM   31  C25 UNL     1      18.524   0.054  52.333  1.00  0.00     0.179 C 
HETATM   32  C26 UNL     1      19.811   2.143  51.968  1.00  0.00     0.121 A 
HETATM   33  C27 UNL     1      21.150   2.412  51.749  1.00  0.00    -0.005 A 
HETATM   34  C28 UNL     1      20.606   7.984  50.457  1.00  0.00     0.068 C 
HETATM   35  H7  UNL     1      19.346   4.926  49.037  1.00  0.00     0.159 HD
HETATM   36  H22 UNL     1      26.713   7.533  47.181  1.00  0.00     0.162 HD
ENDROOT
TORSDOF 0
ENDMDL
