MODEL 1
REMARK VINA RESULT:      -7.0      0.000      0.000
REMARK  6 active torsions:
REMARK  status: ('A' for Active; 'I' for Inactive)
REMARK    1  A    between atoms: C2_2  and  C3_3 
REMARK    2  A    between atoms: C4_4  and  C5_5 
REMARK    3  A    between atoms: C6_6  and  N1_7 
REMARK    4  A    between atoms: N1_7  and  N2_8 
REMARK    5  A    between atoms: C12_16  and  C13_17 
REMARK    6  A    between atoms: C14_19  and  O1_20 
ROOT
HETATM    1  N2  UNL     1      21.798  -0.075  54.058  1.00  0.00    -0.171 N 
HETATM    2  N3  UNL     1      21.970  -1.014  55.089  1.00  0.00    -0.145 NA
HETATM    3  C7  UNL     1      23.152  -1.460  55.422  1.00  0.00     0.257 A 
HETATM    4  N4  UNL     1      24.324  -1.013  54.752  1.00  0.00    -0.239 NA
HETATM    5  C8  UNL     1      24.311  -0.157  53.791  1.00  0.00     0.099 A 
HETATM    6  C9  UNL     1      22.995   0.346  53.413  1.00  0.00     0.104 A 
HETATM    7  C10 UNL     1      22.899   1.231  52.432  1.00  0.00     0.036 A 
HETATM    8  C11 UNL     1      24.062   1.732  51.703  1.00  0.00     0.010 A 
HETATM    9  C12 UNL     1      25.236   1.250  52.077  1.00  0.00    -0.017 A 
HETATM   10  C14 UNL     1      25.571   0.265  53.137  1.00  0.00     0.206 A 
ENDROOT
BRANCH   1  11
HETATM   11  N1  UNL     1      20.538   0.413  53.690  1.00  0.00    -0.289 N 
HETATM   12  H8  UNL     1      20.135   1.372  53.508  1.00  0.00     0.188 HD
BRANCH  11  13
HETATM   13  C6  UNL     1      19.808  -0.826  53.599  1.00  0.00     0.109 C 
HETATM   14  C5  UNL     1      18.568  -0.714  53.193  1.00  0.00     0.019 C 
BRANCH  14  15
HETATM   15  C4  UNL     1      17.642  -1.825  53.024  1.00  0.00     0.001 C 
HETATM   16  C3  UNL     1      17.652  -3.033  53.577  1.00  0.00    -0.001 C 
BRANCH  16  17
HETATM   17  C2  UNL     1      16.641  -4.047  53.302  1.00  0.00    -0.010 C 
HETATM   18  C1  UNL     1      16.389  -4.909  54.298  1.00  0.00     0.011 C 
ENDBRANCH  16  17
ENDBRANCH  14  15
ENDBRANCH  11  13
ENDBRANCH   1  11
BRANCH  10  19
HETATM   19  O1  UNL     1      26.173  -0.830  52.518  1.00  0.00    -0.380 OA
HETATM   20  C15 UNL     1      27.424  -1.066  53.040  1.00  0.00     0.202 C 
ENDBRANCH  10  19
BRANCH   9  21
HETATM   21  C13 UNL     1      26.449   1.732  51.361  1.00  0.00     0.259 C 
HETATM   22  F1  UNL     1      27.372   2.221  52.255  1.00  0.00    -0.251 F 
ENDBRANCH   9  21
TORSDOF 6
ENDMDL
MODEL 2
REMARK VINA RESULT:      -6.6      5.122      7.038
REMARK  6 active torsions:
REMARK  status: ('A' for Active; 'I' for Inactive)
REMARK    1  A    between atoms: C2_2  and  C3_3 
REMARK    2  A    between atoms: C4_4  and  C5_5 
REMARK    3  A    between atoms: C6_6  and  N1_7 
REMARK    4  A    between atoms: N1_7  and  N2_8 
REMARK    5  A    between atoms: C12_16  and  C13_17 
REMARK    6  A    between atoms: C14_19  and  O1_20 
ROOT
HETATM    1  N2  UNL     1      24.807   3.884  50.743  1.00  0.00    -0.171 N 
HETATM    2  N3  UNL     1      23.704   4.499  51.359  1.00  0.00    -0.145 NA
HETATM    3  C7  UNL     1      23.478   5.781  51.243  1.00  0.00     0.257 A 
HETATM    4  N4  UNL     1      24.344   6.616  50.484  1.00  0.00    -0.239 NA
HETATM    5  C8  UNL     1      25.390   6.184  49.868  1.00  0.00     0.099 A 
HETATM    6  C9  UNL     1      25.647   4.754  49.993  1.00  0.00     0.104 A 
HETATM    7  C10 UNL     1      26.705   4.234  49.387  1.00  0.00     0.036 A 
HETATM    8  C11 UNL     1      27.633   5.035  48.592  1.00  0.00     0.010 A 
HETATM    9  C12 UNL     1      27.362   6.327  48.506  1.00  0.00    -0.017 A 
HETATM   10  C14 UNL     1      26.247   7.110  49.095  1.00  0.00     0.206 A 
ENDROOT
BRANCH   1  11
HETATM   11  N1  UNL     1      25.061   2.512  50.857  1.00  0.00    -0.289 N 
HETATM   12  H8  UNL     1      25.810   1.861  50.495  1.00  0.00     0.188 HD
BRANCH  11  13
HETATM   13  C6  UNL     1      23.942   2.119  51.676  1.00  0.00     0.109 C 
HETATM   14  C5  UNL     1      24.141   1.060  52.420  1.00  0.00     0.019 C 
BRANCH  14  15
HETATM   15  C4  UNL     1      23.160   0.480  53.326  1.00  0.00     0.001 C 
HETATM   16  C3  UNL     1      23.203  -0.655  54.014  1.00  0.00    -0.001 C 
BRANCH  16  17
HETATM   17  C2  UNL     1      22.126  -1.102  54.889  1.00  0.00    -0.010 C 
HETATM   18  C1  UNL     1      21.042  -1.603  54.276  1.00  0.00     0.011 C 
ENDBRANCH  16  17
ENDBRANCH  14  15
ENDBRANCH  11  13
ENDBRANCH   1  11
BRANCH  10  19
HETATM   19  O1  UNL     1      26.807   8.061  49.948  1.00  0.00    -0.380 OA
HETATM   20  C15 UNL     1      26.287   9.312  49.702  1.00  0.00     0.202 C 
ENDBRANCH  10  19
BRANCH   9  21
HETATM   21  C13 UNL     1      28.283   7.180  47.706  1.00  0.00     0.259 C 
HETATM   22  F1  UNL     1      29.318   6.430  47.202  1.00  0.00    -0.251 F 
ENDBRANCH   9  21
TORSDOF 6
ENDMDL
MODEL 3
REMARK VINA RESULT:      -6.6      1.885      2.608
REMARK  6 active torsions:
REMARK  status: ('A' for Active; 'I' for Inactive)
REMARK    1  A    between atoms: C2_2  and  C3_3 
REMARK    2  A    between atoms: C4_4  and  C5_5 
REMARK    3  A    between atoms: C6_6  and  N1_7 
REMARK    4  A    between atoms: N1_7  and  N2_8 
REMARK    5  A    between atoms: C12_16  and  C13_17 
REMARK    6  A    between atoms: C14_19  and  O1_20 
ROOT
HETATM    1  N2  UNL     1      23.811   0.185  53.372  1.00  0.00    -0.171 N 
HETATM    2  N3  UNL     1      23.393  -0.786  54.298  1.00  0.00    -0.145 NA
HETATM    3  C7  UNL     1      24.204  -1.268  55.202  1.00  0.00     0.257 A 
HETATM    4  N4  UNL     1      25.555  -0.829  55.290  1.00  0.00    -0.239 NA
HETATM    5  C8  UNL     1      26.068   0.054  54.505  1.00  0.00     0.099 A 
HETATM    6  C9  UNL     1      25.168   0.596  53.494  1.00  0.00     0.104 A 
HETATM    7  C10 UNL     1      25.623   1.510  52.649  1.00  0.00     0.036 A 
HETATM    8  C11 UNL     1      26.998   2.004  52.685  1.00  0.00     0.010 A 
HETATM    9  C12 UNL     1      27.780   1.486  53.617  1.00  0.00    -0.017 A 
HETATM   10  C14 UNL     1      27.483   0.464  54.653  1.00  0.00     0.206 A 
ENDROOT
BRANCH   1  11
HETATM   11  N1  UNL     1      22.954   0.711  52.398  1.00  0.00    -0.289 N 
HETATM   12  H8  UNL     1      23.042   1.450  51.650  1.00  0.00     0.188 HD
BRANCH  11  13
HETATM   13  C6  UNL     1      21.769  -0.066  52.663  1.00  0.00     0.109 C 
HETATM   14  C5  UNL     1      20.658   0.430  52.182  1.00  0.00     0.019 C 
BRANCH  14  15
HETATM   15  C4  UNL     1      19.342  -0.178  52.324  1.00  0.00     0.001 C 
HETATM   16  C3  UNL     1      18.874  -0.981  53.272  1.00  0.00    -0.001 C 
BRANCH  16  17
HETATM   17  C2  UNL     1      17.516  -1.513  53.271  1.00  0.00    -0.010 C 
HETATM   18  C1  UNL     1      16.661  -0.938  52.411  1.00  0.00     0.011 C 
ENDBRANCH  16  17
ENDBRANCH  14  15
ENDBRANCH  11  13
ENDBRANCH   1  11
BRANCH  10  19
HETATM   19  O1  UNL     1      28.320  -0.626  54.420  1.00  0.00    -0.380 OA
HETATM   20  C15 UNL     1      28.077  -1.179  53.184  1.00  0.00     0.202 C 
ENDBRANCH  10  19
BRANCH   9  21
HETATM   21  C13 UNL     1      29.189   1.961  53.689  1.00  0.00     0.259 C 
HETATM   22  F1  UNL     1      29.547   2.206  54.993  1.00  0.00    -0.251 F 
ENDBRANCH   9  21
TORSDOF 6
ENDMDL
MODEL 4
REMARK VINA RESULT:      -6.5      4.139      8.795
REMARK  6 active torsions:
REMARK  status: ('A' for Active; 'I' for Inactive)
REMARK    1  A    between atoms: C2_2  and  C3_3 
REMARK    2  A    between atoms: C4_4  and  C5_5 
REMARK    3  A    between atoms: C6_6  and  N1_7 
REMARK    4  A    between atoms: N1_7  and  N2_8 
REMARK    5  A    between atoms: C12_16  and  C13_17 
REMARK    6  A    between atoms: C14_19  and  O1_20 
ROOT
HETATM    1  N2  UNL     1      24.307   2.575  50.981  1.00  0.00    -0.171 N 
HETATM    2  N3  UNL     1      23.508   3.467  50.247  1.00  0.00    -0.145 NA
HETATM    3  C7  UNL     1      22.205   3.472  50.356  1.00  0.00     0.257 A 
HETATM    4  N4  UNL     1      21.535   2.569  51.228  1.00  0.00    -0.239 NA
HETATM    5  C8  UNL     1      22.145   1.700  51.957  1.00  0.00     0.099 A 
HETATM    6  C9  UNL     1      23.599   1.690  51.841  1.00  0.00     0.104 A 
HETATM    7  C10 UNL     1      24.298   0.824  52.561  1.00  0.00     0.036 A 
HETATM    8  C11 UNL     1      23.672  -0.129  53.475  1.00  0.00     0.010 A 
HETATM    9  C12 UNL     1      22.352  -0.086  53.550  1.00  0.00    -0.017 A 
HETATM   10  C14 UNL     1      21.384   0.791  52.843  1.00  0.00     0.206 A 
ENDROOT
BRANCH   1  11
HETATM   11  N1  UNL     1      25.703   2.559  50.876  1.00  0.00    -0.289 N 
HETATM   12  H8  UNL     1      26.461   1.867  51.127  1.00  0.00     0.188 HD
BRANCH  11  13
HETATM   13  C6  UNL     1      25.923   3.851  50.276  1.00  0.00     0.109 C 
HETATM   14  C5  UNL     1      26.891   3.900  49.396  1.00  0.00     0.019 C 
BRANCH  14  15
HETATM   15  C4  UNL     1      27.293   5.092  48.663  1.00  0.00     0.001 C 
HETATM   16  C3  UNL     1      28.508   5.526  48.345  1.00  0.00    -0.001 C 
BRANCH  16  17
HETATM   17  C2  UNL     1      28.748   6.755  47.598  1.00  0.00    -0.010 C 
HETATM   18  C1  UNL     1      27.678   7.540  47.401  1.00  0.00     0.011 C 
ENDBRANCH  16  17
ENDBRANCH  14  15
ENDBRANCH  11  13
ENDBRANCH   1  11
BRANCH  10  19
HETATM   19  O1  UNL     1      20.554  -0.030  52.080  1.00  0.00    -0.380 OA
HETATM   20  C15 UNL     1      19.228   0.264  52.305  1.00  0.00     0.202 C 
ENDBRANCH  10  19
BRANCH   9  21
HETATM   21  C13 UNL     1      21.674  -1.040  54.469  1.00  0.00     0.259 C 
HETATM   22  F1  UNL     1      21.672  -2.305  53.932  1.00  0.00    -0.251 F 
ENDBRANCH   9  21
TORSDOF 6
ENDMDL
MODEL 5
REMARK VINA RESULT:      -6.4      2.602      3.666
REMARK  6 active torsions:
REMARK  status: ('A' for Active; 'I' for Inactive)
REMARK    1  A    between atoms: C2_2  and  C3_3 
REMARK    2  A    between atoms: C4_4  and  C5_5 
REMARK    3  A    between atoms: C6_6  and  N1_7 
REMARK    4  A    between atoms: N1_7  and  N2_8 
REMARK    5  A    between atoms: C12_16  and  C13_17 
REMARK    6  A    between atoms: C14_19  and  O1_20 
ROOT
HETATM    1  N2  UNL     1      23.514   0.508  53.055  1.00  0.00    -0.171 N 
HETATM    2  N3  UNL     1      23.193   1.862  52.865  1.00  0.00    -0.145 NA
HETATM    3  C7  UNL     1      24.117   2.778  52.745  1.00  0.00     0.257 A 
HETATM    4  N4  UNL     1      25.499   2.443  52.803  1.00  0.00    -0.239 NA
HETATM    5  C8  UNL     1      25.933   1.243  52.973  1.00  0.00     0.099 A 
HETATM    6  C9  UNL     1      24.906   0.215  53.106  1.00  0.00     0.104 A 
HETATM    7  C10 UNL     1      25.274  -1.046  53.283  1.00  0.00     0.036 A 
HETATM    8  C11 UNL     1      26.674  -1.457  53.351  1.00  0.00     0.010 A 
HETATM    9  C12 UNL     1      27.572  -0.494  53.226  1.00  0.00    -0.017 A 
HETATM   10  C14 UNL     1      27.386   0.965  53.023  1.00  0.00     0.206 A 
ENDROOT
BRANCH   1  11
HETATM   11  N1  UNL     1      22.535  -0.485  53.183  1.00  0.00    -0.289 N 
HETATM   12  H8  UNL     1      22.443  -1.371  53.749  1.00  0.00     0.188 HD
BRANCH  11  13
HETATM   13  C6  UNL     1      21.548   0.019  52.261  1.00  0.00     0.109 C 
HETATM   14  C5  UNL     1      20.305  -0.248  52.574  1.00  0.00     0.019 C 
BRANCH  14  15
HETATM   15  C4  UNL     1      19.143   0.157  51.796  1.00  0.00     0.001 C 
HETATM   16  C3  UNL     1      17.913  -0.343  51.781  1.00  0.00    -0.001 C 
BRANCH  16  17
HETATM   17  C2  UNL     1      16.847   0.181  50.935  1.00  0.00    -0.010 C 
HETATM   18  C1  UNL     1      16.770  -0.338  49.700  1.00  0.00     0.011 C 
ENDBRANCH  16  17
ENDBRANCH  14  15
ENDBRANCH  11  13
ENDBRANCH   1  11
BRANCH  10  19
HETATM   19  O1  UNL     1      27.956   1.617  54.115  1.00  0.00    -0.380 OA
HETATM   20  C15 UNL     1      28.885   2.546  53.706  1.00  0.00     0.202 C 
ENDBRANCH  10  19
BRANCH   9  21
HETATM   21  C13 UNL     1      29.011  -0.869  53.289  1.00  0.00     0.259 C 
HETATM   22  F1  UNL     1      29.162  -2.225  53.121  1.00  0.00    -0.251 F 
ENDBRANCH   9  21
TORSDOF 6
ENDMDL
MODEL 6
REMARK VINA RESULT:      -6.2      4.925      9.093
REMARK  6 active torsions:
REMARK  status: ('A' for Active; 'I' for Inactive)
REMARK    1  A    between atoms: C2_2  and  C3_3 
REMARK    2  A    between atoms: C4_4  and  C5_5 
REMARK    3  A    between atoms: C6_6  and  N1_7 
REMARK    4  A    between atoms: N1_7  and  N2_8 
REMARK    5  A    between atoms: C12_16  and  C13_17 
REMARK    6  A    between atoms: C14_19  and  O1_20 
ROOT
HETATM    1  N2  UNL     1      25.830   3.803  50.558  1.00  0.00    -0.171 N 
HETATM    2  N3  UNL     1      24.747   4.697  50.603  1.00  0.00    -0.145 NA
HETATM    3  C7  UNL     1      23.696   4.466  51.344  1.00  0.00     0.257 A 
HETATM    4  N4  UNL     1      23.601   3.293  52.143  1.00  0.00    -0.239 NA
HETATM    5  C8  UNL     1      24.518   2.391  52.195  1.00  0.00     0.099 A 
HETATM    6  C9  UNL     1      25.695   2.642  51.370  1.00  0.00     0.104 A 
HETATM    7  C10 UNL     1      26.684   1.760  51.371  1.00  0.00     0.036 A 
HETATM    8  C11 UNL     1      26.649   0.536  52.168  1.00  0.00     0.010 A 
HETATM    9  C12 UNL     1      25.564   0.347  52.901  1.00  0.00    -0.017 A 
HETATM   10  C14 UNL     1      24.353   1.193  53.049  1.00  0.00     0.206 A 
ENDROOT
BRANCH   1  11
HETATM   11  N1  UNL     1      26.963   4.037  49.769  1.00  0.00    -0.289 N 
HETATM   12  H8  UNL     1      27.907   3.574  49.667  1.00  0.00     0.188 HD
BRANCH  11  13
HETATM   13  C6  UNL     1      26.518   5.191  49.029  1.00  0.00     0.109 C 
HETATM   14  C5  UNL     1      27.471   5.914  48.498  1.00  0.00     0.019 C 
BRANCH  14  15
HETATM   15  C4  UNL     1      27.262   7.120  47.710  1.00  0.00     0.001 C 
HETATM   16  C3  UNL     1      26.133   7.744  47.391  1.00  0.00    -0.001 C 
BRANCH  16  17
HETATM   17  C2  UNL     1      26.090   8.957  46.583  1.00  0.00    -0.010 C 
HETATM   18  C1  UNL     1      26.884   8.970  45.502  1.00  0.00     0.011 C 
ENDBRANCH  16  17
ENDBRANCH  14  15
ENDBRANCH  11  13
ENDBRANCH   1  11
BRANCH  10  19
HETATM   19  O1  UNL     1      23.261   0.445  52.609  1.00  0.00    -0.380 OA
HETATM   20  C15 UNL     1      22.249   0.454  53.542  1.00  0.00     0.202 C 
ENDBRANCH  10  19
BRANCH   9  21
HETATM   21  C13 UNL     1      25.487  -0.888  53.727  1.00  0.00     0.259 C 
HETATM   22  F1  UNL     1      25.303  -0.569  55.052  1.00  0.00    -0.251 F 
ENDBRANCH   9  21
TORSDOF 6
ENDMDL
MODEL 7
REMARK VINA RESULT:      -6.1      5.073      6.955
REMARK  6 active torsions:
REMARK  status: ('A' for Active; 'I' for Inactive)
REMARK    1  A    between atoms: C2_2  and  C3_3 
REMARK    2  A    between atoms: C4_4  and  C5_5 
REMARK    3  A    between atoms: C6_6  and  N1_7 
REMARK    4  A    between atoms: N1_7  and  N2_8 
REMARK    5  A    between atoms: C12_16  and  C13_17 
REMARK    6  A    between atoms: C14_19  and  O1_20 
ROOT
HETATM    1  N2  UNL     1      24.364   2.709  50.383  1.00  0.00    -0.171 N 
HETATM    2  N3  UNL     1      25.260   3.470  49.615  1.00  0.00    -0.145 NA
HETATM    3  C7  UNL     1      26.529   3.549  49.917  1.00  0.00     0.257 A 
HETATM    4  N4  UNL     1      27.062   2.864  51.045  1.00  0.00    -0.239 NA
HETATM    5  C8  UNL     1      26.354   2.133  51.833  1.00  0.00     0.099 A 
HETATM    6  C9  UNL     1      24.937   2.040  51.501  1.00  0.00     0.104 A 
HETATM    7  C10 UNL     1      24.141   1.305  52.265  1.00  0.00     0.036 A 
HETATM    8  C11 UNL     1      24.624   0.576  53.436  1.00  0.00     0.010 A 
HETATM    9  C12 UNL     1      25.916   0.688  53.701  1.00  0.00    -0.017 A 
HETATM   10  C14 UNL     1      26.974   1.447  52.988  1.00  0.00     0.206 A 
ENDROOT
BRANCH   1  11
HETATM   11  N1  UNL     1      23.002   2.614  50.071  1.00  0.00    -0.289 N 
HETATM   12  H8  UNL     1      22.140   2.292  50.589  1.00  0.00     0.188 HD
BRANCH  11  13
HETATM   13  C6  UNL     1      23.021   3.112  48.718  1.00  0.00     0.109 C 
HETATM   14  C5  UNL     1      21.899   2.978  48.059  1.00  0.00     0.019 C 
BRANCH  14  15
HETATM   15  C4  UNL     1      21.682   3.406  46.684  1.00  0.00     0.001 C 
HETATM   16  C3  UNL     1      21.843   4.603  46.131  1.00  0.00    -0.001 C 
BRANCH  16  17
HETATM   17  C2  UNL     1      21.580   4.875  44.722  1.00  0.00    -0.010 C 
HETATM   18  C1  UNL     1      20.782   3.998  44.095  1.00  0.00     0.011 C 
ENDBRANCH  16  17
ENDBRANCH  14  15
ENDBRANCH  11  13
ENDBRANCH   1  11
BRANCH  10  19
HETATM   19  O1  UNL     1      27.487   2.389  53.879  1.00  0.00    -0.380 OA
HETATM   20  C15 UNL     1      28.863   2.402  53.847  1.00  0.00     0.202 C 
ENDBRANCH  10  19
BRANCH   9  21
HETATM   21  C13 UNL     1      26.450  -0.038  54.885  1.00  0.00     0.259 C 
HETATM   22  F1  UNL     1      25.435  -0.683  55.551  1.00  0.00    -0.251 F 
ENDBRANCH   9  21
TORSDOF 6
ENDMDL
MODEL 8
REMARK VINA RESULT:      -6.0      6.956      9.045
REMARK  6 active torsions:
REMARK  status: ('A' for Active; 'I' for Inactive)
REMARK    1  A    between atoms: C2_2  and  C3_3 
REMARK    2  A    between atoms: C4_4  and  C5_5 
REMARK    3  A    between atoms: C6_6  and  N1_7 
REMARK    4  A    between atoms: N1_7  and  N2_8 
REMARK    5  A    between atoms: C12_16  and  C13_17 
REMARK    6  A    between atoms: C14_19  and  O1_20 
ROOT
HETATM    1  N2  UNL     1      25.226   4.410  50.236  1.00  0.00    -0.171 N 
HETATM    2  N3  UNL     1      24.205   5.068  50.942  1.00  0.00    -0.145 NA
HETATM    3  C7  UNL     1      24.122   6.372  50.974  1.00  0.00     0.257 A 
HETATM    4  N4  UNL     1      25.067   7.188  50.293  1.00  0.00    -0.239 NA
HETATM    5  C8  UNL     1      26.051   6.717  49.609  1.00  0.00     0.099 A 
HETATM    6  C9  UNL     1      26.150   5.263  49.568  1.00  0.00     0.104 A 
HETATM    7  C10 UNL     1      27.137   4.702  48.884  1.00  0.00     0.036 A 
HETATM    8  C11 UNL     1      28.140   5.482  48.162  1.00  0.00     0.010 A 
HETATM    9  C12 UNL     1      28.013   6.797  48.226  1.00  0.00    -0.017 A 
HETATM   10  C14 UNL     1      26.998   7.626  48.925  1.00  0.00     0.206 A 
ENDROOT
BRANCH   1  11
HETATM   11  N1  UNL     1      25.328   3.015  50.191  1.00  0.00    -0.289 N 
HETATM   12  H8  UNL     1      24.917   2.257  49.580  1.00  0.00     0.188 HD
BRANCH  11  13
HETATM   13  C6  UNL     1      26.229   2.795  51.294  1.00  0.00     0.109 C 
HETATM   14  C5  UNL     1      26.518   1.542  51.538  1.00  0.00     0.019 C 
BRANCH  14  15
HETATM   15  C4  UNL     1      27.403   1.080  52.598  1.00  0.00     0.001 C 
HETATM   16  C3  UNL     1      28.232   1.768  53.374  1.00  0.00    -0.001 C 
BRANCH  16  17
HETATM   17  C2  UNL     1      29.062   1.151  54.403  1.00  0.00    -0.010 C 
HETATM   18  C1  UNL     1      29.211  -0.179  54.316  1.00  0.00     0.011 C 
ENDBRANCH  16  17
ENDBRANCH  14  15
ENDBRANCH  11  13
ENDBRANCH   1  11
BRANCH  10  19
HETATM   19  O1  UNL     1      27.669   8.408  49.864  1.00  0.00    -0.380 OA
HETATM   20  C15 UNL     1      27.317   9.733  49.745  1.00  0.00     0.202 C 
ENDBRANCH  10  19
BRANCH   9  21
HETATM   21  C13 UNL     1      29.014   7.630  47.505  1.00  0.00     0.259 C 
HETATM   22  F1  UNL     1      30.228   7.584  48.146  1.00  0.00    -0.251 F 
ENDBRANCH   9  21
TORSDOF 6
ENDMDL
MODEL 9
REMARK VINA RESULT:      -5.9      4.438      7.776
REMARK  6 active torsions:
REMARK  status: ('A' for Active; 'I' for Inactive)
REMARK    1  A    between atoms: C2_2  and  C3_3 
REMARK    2  A    between atoms: C4_4  and  C5_5 
REMARK    3  A    between atoms: C6_6  and  N1_7 
REMARK    4  A    between atoms: N1_7  and  N2_8 
REMARK    5  A    between atoms: C12_16  and  C13_17 
REMARK    6  A    between atoms: C14_19  and  O1_20 
ROOT
HETATM    1  N2  UNL     1      25.051   3.029  51.950  1.00  0.00    -0.171 N 
HETATM    2  N3  UNL     1      25.686   3.590  50.830  1.00  0.00    -0.145 NA
HETATM    3  C7  UNL     1      25.075   3.708  49.681  1.00  0.00     0.257 A 
HETATM    4  N4  UNL     1      23.732   3.270  49.512  1.00  0.00    -0.239 NA
HETATM    5  C8  UNL     1      23.034   2.737  50.453  1.00  0.00     0.099 A 
HETATM    6  C9  UNL     1      23.709   2.603  51.739  1.00  0.00     0.104 A 
HETATM    7  C10 UNL     1      23.055   2.065  52.758  1.00  0.00     0.036 A 
HETATM    8  C11 UNL     1      21.676   1.595  52.652  1.00  0.00     0.010 A 
HETATM    9  C12 UNL     1      21.101   1.735  51.468  1.00  0.00    -0.017 A 
HETATM   10  C14 UNL     1      21.640   2.303  50.207  1.00  0.00     0.206 A 
ENDROOT
BRANCH   1  11
HETATM   11  N1  UNL     1      25.691   2.897  53.188  1.00  0.00    -0.289 N 
HETATM   12  H8  UNL     1      25.581   3.350  54.136  1.00  0.00     0.188 HD
BRANCH  11  13
HETATM   13  C6  UNL     1      26.661   1.882  52.860  1.00  0.00     0.109 C 
HETATM   14  C5  UNL     1      26.961   1.062  53.835  1.00  0.00     0.019 C 
BRANCH  14  15
HETATM   15  C4  UNL     1      27.910  -0.038  53.738  1.00  0.00     0.001 C 
HETATM   16  C3  UNL     1      29.234  -0.030  53.835  1.00  0.00    -0.001 C 
BRANCH  16  17
HETATM   17  C2  UNL     1      30.053  -1.231  53.712  1.00  0.00    -0.010 C 
HETATM   18  C1  UNL     1      29.416  -2.335  53.293  1.00  0.00     0.011 C 
ENDBRANCH  16  17
ENDBRANCH  14  15
ENDBRANCH  11  13
ENDBRANCH   1  11
BRANCH  10  19
HETATM   19  O1  UNL     1      21.621   1.290  49.248  1.00  0.00    -0.380 OA
HETATM   20  C15 UNL     1      21.142   1.758  48.046  1.00  0.00     0.202 C 
ENDBRANCH  10  19
BRANCH   9  21
HETATM   21  C13 UNL     1      19.696   1.269  51.315  1.00  0.00     0.259 C 
HETATM   22  F1  UNL     1      19.636  -0.103  51.377  1.00  0.00    -0.251 F 
ENDBRANCH   9  21
TORSDOF 6
ENDMDL
