MODEL 1
REMARK VINA RESULT:      -9.4      0.000      0.000
REMARK  4 active torsions:
REMARK  status: ('A' for Active; 'I' for Inactive)
REMARK    1  A    between atoms: O1_2  and  C2_3 
REMARK    2  A    between atoms: C5_6  and  N1_7 
REMARK    3  A    between atoms: C7_9  and  C8_10 
REMARK    4  A    between atoms: C21_26  and  O2_27 
ROOT
HETATM    1  N1  UNL     1      24.468   0.148  52.796  1.00  0.00    -0.354 N 
HETATM    2  C6  UNL     1      24.548   1.355  52.054  1.00  0.00     0.105 A 
HETATM    3  C7  UNL     1      25.715   1.661  51.518  1.00  0.00     0.015 A 
HETATM    4  C15 UNL     1      26.865   0.799  51.681  1.00  0.00     0.013 A 
HETATM    5  C16 UNL     1      26.805  -0.324  52.369  1.00  0.00    -0.006 A 
HETATM    6  C17 UNL     1      25.558  -0.797  53.029  1.00  0.00     0.155 A 
ENDROOT
BRANCH   1   7
HETATM    7  C5  UNL     1      23.264  -0.279  53.417  1.00  0.00     0.043 A 
HETATM    8  C4  UNL     1      22.116  -0.047  52.807  1.00  0.00     0.006 A 
HETATM    9  C3  UNL     1      21.737   0.589  51.553  1.00  0.00     0.054 A 
HETATM   10  C20 UNL     1      20.927  -0.513  53.505  1.00  0.00     0.029 A 
HETATM   11  C2  UNL     1      20.405   0.483  51.553  1.00  0.00     0.103 A 
HETATM   12  C21 UNL     1      19.900  -0.190  52.743  1.00  0.00     0.114 A 
HETATM   13  C19 UNL     1      21.164  -1.172  54.781  1.00  0.00     0.126 A 
HETATM   14  N3  UNL     1      22.296  -1.382  55.346  1.00  0.00    -0.295 NA
HETATM   15  C18 UNL     1      23.516  -0.948  54.714  1.00  0.00     0.206 A 
BRANCH  11  16
HETATM   16  O1  UNL     1      19.583   0.960  50.533  1.00  0.00    -0.353 OA
HETATM   17  C1  UNL     1      20.207   1.499  49.383  1.00  0.00     0.210 C 
ENDBRANCH  11  16
BRANCH  12  18
HETATM   18  O2  UNL     1      18.586  -0.466  53.064  1.00  0.00    -0.352 OA
HETATM   19  C22 UNL     1      18.103  -1.794  53.128  1.00  0.00     0.210 C 
ENDBRANCH  12  18
ENDBRANCH   1   7
BRANCH   3  20
HETATM   20  C8  UNL     1      25.889   2.884  50.737  1.00  0.00     0.110 A 
HETATM   21  N2  UNL     1      26.901   3.302  50.066  1.00  0.00    -0.240 NA
HETATM   22  C9  UNL     1      26.831   4.454  49.428  1.00  0.00     0.075 A 
HETATM   23  C10 UNL     1      27.835   5.024  48.672  1.00  0.00     0.033 A 
HETATM   24  C14 UNL     1      25.640   5.224  49.491  1.00  0.00     0.035 A 
HETATM   25  C11 UNL     1      27.642   6.221  48.063  1.00  0.00     0.002 A 
HETATM   26  C12 UNL     1      26.500   6.973  48.114  1.00  0.00     0.002 A 
HETATM   27  C13 UNL     1      25.428   6.509  48.838  1.00  0.00     0.021 A 
HETATM   28  S1  UNL     1      24.611   4.104  50.575  1.00  0.00    -0.067 SA
ENDBRANCH   3  20
TORSDOF 4
ENDMDL
MODEL 2
REMARK VINA RESULT:      -9.1      3.288      6.231
REMARK  4 active torsions:
REMARK  status: ('A' for Active; 'I' for Inactive)
REMARK    1  A    between atoms: O1_2  and  C2_3 
REMARK    2  A    between atoms: C5_6  and  N1_7 
REMARK    3  A    between atoms: C7_9  and  C8_10 
REMARK    4  A    between atoms: C21_26  and  O2_27 
ROOT
HETATM    1  N1  UNL     1      21.698   1.229  52.969  1.00  0.00    -0.354 N 
HETATM    2  C6  UNL     1      23.116   1.181  52.917  1.00  0.00     0.105 A 
HETATM    3  C7  UNL     1      23.711   0.179  53.540  1.00  0.00     0.015 A 
HETATM    4  C15 UNL     1      22.947  -0.826  54.246  1.00  0.00     0.013 A 
HETATM    5  C16 UNL     1      21.631  -0.792  54.302  1.00  0.00    -0.006 A 
HETATM    6  C17 UNL     1      20.825   0.275  53.647  1.00  0.00     0.155 A 
ENDROOT
BRANCH   1   7
HETATM    7  C5  UNL     1      20.954   2.260  52.335  1.00  0.00     0.043 A 
HETATM    8  C4  UNL     1      21.557   3.403  52.060  1.00  0.00     0.006 A 
HETATM    9  C3  UNL     1      22.903   3.920  52.257  1.00  0.00     0.054 A 
HETATM   10  C20 UNL     1      20.730   4.410  51.412  1.00  0.00     0.029 A 
HETATM   11  C2  UNL     1      22.830   5.152  51.745  1.00  0.00     0.103 A 
HETATM   12  C21 UNL     1      21.504   5.462  51.226  1.00  0.00     0.114 A 
HETATM   13  C19 UNL     1      19.350   4.021  51.155  1.00  0.00     0.126 A 
HETATM   14  N3  UNL     1      18.797   2.899  51.436  1.00  0.00    -0.295 NA
HETATM   15  C18 UNL     1      19.553   1.855  52.078  1.00  0.00     0.206 A 
BRANCH  11  16
HETATM   16  O1  UNL     1      23.898   6.048  51.708  1.00  0.00    -0.353 OA
HETATM   17  C1  UNL     1      24.657   6.119  50.515  1.00  0.00     0.210 C 
ENDBRANCH  11  16
BRANCH  12  18
HETATM   18  O2  UNL     1      21.081   6.634  50.632  1.00  0.00    -0.352 OA
HETATM   19  C22 UNL     1      21.160   6.826  49.233  1.00  0.00     0.210 C 
ENDBRANCH  12  18
ENDBRANCH   1   7
BRANCH   3  20
HETATM   20  C8  UNL     1      25.166   0.050  53.539  1.00  0.00     0.110 A 
HETATM   21  N2  UNL     1      25.907  -0.971  53.296  1.00  0.00    -0.240 NA
HETATM   22  C9  UNL     1      27.220  -0.853  53.354  1.00  0.00     0.075 A 
HETATM   23  C10 UNL     1      28.134  -1.860  53.118  1.00  0.00     0.033 A 
HETATM   24  C14 UNL     1      27.802   0.397  53.685  1.00  0.00     0.035 A 
HETATM   25  C11 UNL     1      29.465  -1.615  53.210  1.00  0.00     0.002 A 
HETATM   26  C12 UNL     1      30.040  -0.415  53.527  1.00  0.00     0.002 A 
HETATM   27  C13 UNL     1      29.230   0.666  53.784  1.00  0.00     0.021 A 
HETATM   28  S1  UNL     1      26.247   1.408  53.907  1.00  0.00    -0.067 SA
ENDBRANCH   3  20
TORSDOF 4
ENDMDL
MODEL 3
REMARK VINA RESULT:      -8.9      2.945      5.597
REMARK  4 active torsions:
REMARK  status: ('A' for Active; 'I' for Inactive)
REMARK    1  A    between atoms: O1_2  and  C2_3 
REMARK    2  A    between atoms: C5_6  and  N1_7 
REMARK    3  A    between atoms: C7_9  and  C8_10 
REMARK    4  A    between atoms: C21_26  and  O2_27 
ROOT
HETATM    1  N1  UNL     1      21.513  -0.182  52.800  1.00  0.00    -0.354 N 
HETATM    2  C6  UNL     1      22.915  -0.001  52.677  1.00  0.00     0.105 A 
HETATM    3  C7  UNL     1      23.671  -0.432  53.672  1.00  0.00     0.015 A 
HETATM    4  C15 UNL     1      23.091  -1.062  54.837  1.00  0.00     0.013 A 
HETATM    5  C16 UNL     1      21.790  -1.236  54.962  1.00  0.00    -0.006 A 
HETATM    6  C17 UNL     1      20.816  -0.802  53.924  1.00  0.00     0.155 A 
ENDROOT
BRANCH   1   7
HETATM    7  C5  UNL     1      20.606   0.243  51.792  1.00  0.00     0.043 A 
HETATM    8  C4  UNL     1      21.071   0.931  50.765  1.00  0.00     0.006 A 
HETATM    9  C3  UNL     1      22.389   1.406  50.368  1.00  0.00     0.054 A 
HETATM   10  C20 UNL     1      20.082   1.331  49.775  1.00  0.00     0.029 A 
HETATM   11  C2  UNL     1      22.146   2.038  49.216  1.00  0.00     0.103 A 
HETATM   12  C21 UNL     1      20.737   1.998  48.845  1.00  0.00     0.114 A 
HETATM   13  C19 UNL     1      18.713   0.919  50.052  1.00  0.00     0.126 A 
HETATM   14  N3  UNL     1      18.295   0.249  51.062  1.00  0.00    -0.295 NA
HETATM   15  C18 UNL     1      19.217  -0.181  52.082  1.00  0.00     0.206 A 
BRANCH  11  16
HETATM   16  O1  UNL     1      23.125   2.668  48.448  1.00  0.00    -0.353 OA
HETATM   17  C1  UNL     1      23.603   3.924  48.893  1.00  0.00     0.210 C 
ENDBRANCH  11  16
BRANCH  12  18
HETATM   18  O2  UNL     1      20.142   2.546  47.726  1.00  0.00    -0.352 OA
HETATM   19  C22 UNL     1      19.453   3.780  47.783  1.00  0.00     0.210 C 
ENDBRANCH  12  18
ENDBRANCH   1   7
BRANCH   3  20
HETATM   20  C8  UNL     1      25.124  -0.286  53.631  1.00  0.00     0.110 A 
HETATM   21  N2  UNL     1      26.040  -1.171  53.467  1.00  0.00    -0.240 NA
HETATM   22  C9  UNL     1      27.308  -0.806  53.464  1.00  0.00     0.075 A 
HETATM   23  C10 UNL     1      28.392  -1.645  53.300  1.00  0.00     0.033 A 
HETATM   24  C14 UNL     1      27.649   0.559  53.643  1.00  0.00     0.035 A 
HETATM   25  C11 UNL     1      29.654  -1.147  53.317  1.00  0.00     0.002 A 
HETATM   26  C12 UNL     1      29.997   0.166  53.488  1.00  0.00     0.002 A 
HETATM   27  C13 UNL     1      29.002   1.098  53.662  1.00  0.00     0.021 A 
HETATM   28  S1  UNL     1      25.934   1.281  53.817  1.00  0.00    -0.067 SA
ENDBRANCH   3  20
TORSDOF 4
ENDMDL
MODEL 4
REMARK VINA RESULT:      -8.8      2.512      4.159
REMARK  4 active torsions:
REMARK  status: ('A' for Active; 'I' for Inactive)
REMARK    1  A    between atoms: O1_2  and  C2_3 
REMARK    2  A    between atoms: C5_6  and  N1_7 
REMARK    3  A    between atoms: C7_9  and  C8_10 
REMARK    4  A    between atoms: C21_26  and  O2_27 
ROOT
HETATM    1  N1  UNL     1      22.615   1.283  51.220  1.00  0.00    -0.354 N 
HETATM    2  C6  UNL     1      23.614   2.261  50.978  1.00  0.00     0.105 A 
HETATM    3  C7  UNL     1      23.644   2.812  49.778  1.00  0.00     0.015 A 
HETATM    4  C15 UNL     1      22.696   2.433  48.754  1.00  0.00     0.013 A 
HETATM    5  C16 UNL     1      21.764   1.525  48.966  1.00  0.00    -0.006 A 
HETATM    6  C17 UNL     1      21.608   0.821  50.268  1.00  0.00     0.155 A 
ENDROOT
BRANCH   1   7
HETATM    7  C5  UNL     1      22.490   0.625  52.473  1.00  0.00     0.043 A 
HETATM    8  C4  UNL     1      23.573   0.125  53.041  1.00  0.00     0.006 A 
HETATM    9  C3  UNL     1      24.982   0.071  52.678  1.00  0.00     0.054 A 
HETATM   10  C20 UNL     1      23.365  -0.534  54.322  1.00  0.00     0.029 A 
HETATM   11  C2  UNL     1      25.531  -0.585  53.706  1.00  0.00     0.103 A 
HETATM   12  C21 UNL     1      24.550  -0.959  54.715  1.00  0.00     0.114 A 
HETATM   13  C19 UNL     1      21.992  -0.552  54.804  1.00  0.00     0.126 A 
HETATM   14  N3  UNL     1      20.961  -0.055  54.226  1.00  0.00    -0.295 NA
HETATM   15  C18 UNL     1      21.090   0.612  52.956  1.00  0.00     0.206 A 
BRANCH  11  16
HETATM   16  O1  UNL     1      26.890  -0.882  53.807  1.00  0.00    -0.353 OA
HETATM   17  C1  UNL     1      27.793  -0.101  53.046  1.00  0.00     0.210 C 
ENDBRANCH  11  16
BRANCH  12  18
HETATM   18  O2  UNL     1      24.770  -1.639  55.897  1.00  0.00    -0.352 OA
HETATM   19  C22 UNL     1      25.170  -0.967  57.075  1.00  0.00     0.210 C 
ENDBRANCH  12  18
ENDBRANCH   1   7
BRANCH   3  20
HETATM   20  C8  UNL     1      24.638   3.828  49.440  1.00  0.00     0.110 A 
HETATM   21  N2  UNL     1      25.889   3.707  49.176  1.00  0.00    -0.240 NA
HETATM   22  C9  UNL     1      26.604   4.779  48.894  1.00  0.00     0.075 A 
HETATM   23  C10 UNL     1      27.951   4.798  48.593  1.00  0.00     0.033 A 
HETATM   24  C14 UNL     1      25.986   6.056  48.884  1.00  0.00     0.035 A 
HETATM   25  C11 UNL     1      28.577   5.971  48.319  1.00  0.00     0.002 A 
HETATM   26  C12 UNL     1      27.994   7.208  48.305  1.00  0.00     0.002 A 
HETATM   27  C13 UNL     1      26.654   7.317  48.590  1.00  0.00     0.021 A 
HETATM   28  S1  UNL     1      24.243   5.554  49.329  1.00  0.00    -0.067 SA
ENDBRANCH   3  20
TORSDOF 4
ENDMDL
MODEL 5
REMARK VINA RESULT:      -8.5      3.921      7.234
REMARK  4 active torsions:
REMARK  status: ('A' for Active; 'I' for Inactive)
REMARK    1  A    between atoms: O1_2  and  C2_3 
REMARK    2  A    between atoms: C5_6  and  N1_7 
REMARK    3  A    between atoms: C7_9  and  C8_10 
REMARK    4  A    between atoms: C21_26  and  O2_27 
ROOT
HETATM    1  N1  UNL     1      26.632   5.880  48.687  1.00  0.00    -0.354 N 
HETATM    2  C6  UNL     1      27.900   5.256  48.553  1.00  0.00     0.105 A 
HETATM    3  C7  UNL     1      28.917   6.021  48.199  1.00  0.00     0.015 A 
HETATM    4  C15 UNL     1      28.744   7.436  47.957  1.00  0.00     0.013 A 
HETATM    5  C16 UNL     1      27.572   8.027  48.077  1.00  0.00    -0.006 A 
HETATM    6  C17 UNL     1      26.337   7.294  48.470  1.00  0.00     0.155 A 
ENDROOT
BRANCH   1   7
HETATM    7  C5  UNL     1      25.470   5.154  49.062  1.00  0.00     0.043 A 
HETATM    8  C4  UNL     1      25.605   4.084  49.825  1.00  0.00     0.006 A 
HETATM    9  C3  UNL     1      26.738   3.400  50.431  1.00  0.00     0.054 A 
HETATM   10  C20 UNL     1      24.370   3.395  50.166  1.00  0.00     0.029 A 
HETATM   11  C2  UNL     1      26.163   2.381  51.077  1.00  0.00     0.103 A 
HETATM   12  C21 UNL     1      24.715   2.369  50.920  1.00  0.00     0.114 A 
HETATM   13  C19 UNL     1      23.152   3.978  49.621  1.00  0.00     0.126 A 
HETATM   14  N3  UNL     1      23.057   5.021  48.882  1.00  0.00    -0.295 NA
HETATM   15  C18 UNL     1      24.237   5.755  48.503  1.00  0.00     0.206 A 
BRANCH  11  16
HETATM   16  O1  UNL     1      26.864   1.431  51.819  1.00  0.00    -0.353 OA
HETATM   17  C1  UNL     1      27.683   1.894  52.876  1.00  0.00     0.210 C 
ENDBRANCH  11  16
BRANCH  12  18
HETATM   18  O2  UNL     1      23.814   1.465  51.450  1.00  0.00    -0.352 OA
HETATM   19  C22 UNL     1      23.233   1.660  52.724  1.00  0.00     0.210 C 
ENDBRANCH  12  18
ENDBRANCH   1   7
BRANCH   3  20
HETATM   20  C8  UNL     1      30.258   5.464  48.037  1.00  0.00     0.110 A 
HETATM   21  N2  UNL     1      30.648   4.409  47.415  1.00  0.00    -0.240 NA
HETATM   22  C9  UNL     1      31.928   4.095  47.401  1.00  0.00     0.075 A 
HETATM   23  C10 UNL     1      32.487   2.998  46.777  1.00  0.00     0.033 A 
HETATM   24  C14 UNL     1      32.865   4.923  48.073  1.00  0.00     0.035 A 
HETATM   25  C11 UNL     1      33.825   2.782  46.835  1.00  0.00     0.002 A 
HETATM   26  C12 UNL     1      34.739   3.571  47.477  1.00  0.00     0.002 A 
HETATM   27  C13 UNL     1      34.302   4.695  48.137  1.00  0.00     0.021 A 
HETATM   28  S1  UNL     1      31.700   6.223  48.738  1.00  0.00    -0.067 SA
ENDBRANCH   3  20
TORSDOF 4
ENDMDL
MODEL 6
REMARK VINA RESULT:      -8.5      4.439      9.949
REMARK  4 active torsions:
REMARK  status: ('A' for Active; 'I' for Inactive)
REMARK    1  A    between atoms: O1_2  and  C2_3 
REMARK    2  A    between atoms: C5_6  and  N1_7 
REMARK    3  A    between atoms: C7_9  and  C8_10 
REMARK    4  A    between atoms: C21_26  and  O2_27 
ROOT
HETATM    1  N1  UNL     1      25.480   6.417  49.229  1.00  0.00    -0.354 N 
HETATM    2  C6  UNL     1      25.640   5.294  50.081  1.00  0.00     0.105 A 
HETATM    3  C7  UNL     1      24.762   4.314  49.963  1.00  0.00     0.015 A 
HETATM    4  C15 UNL     1      23.682   4.385  49.004  1.00  0.00     0.013 A 
HETATM    5  C16 UNL     1      23.522   5.423  48.208  1.00  0.00    -0.006 A 
HETATM    6  C17 UNL     1      24.432   6.600  48.227  1.00  0.00     0.155 A 
ENDROOT
BRANCH   1   7
HETATM    7  C5  UNL     1      26.364   7.528  49.269  1.00  0.00     0.043 A 
HETATM    8  C4  UNL     1      27.592   7.383  48.804  1.00  0.00     0.006 A 
HETATM    9  C3  UNL     1      28.333   6.280  48.208  1.00  0.00     0.054 A 
HETATM   10  C20 UNL     1      28.437   8.565  48.880  1.00  0.00     0.029 A 
HETATM   11  C2  UNL     1      29.531   6.821  47.965  1.00  0.00     0.103 A 
HETATM   12  C21 UNL     1      29.605   8.217  48.373  1.00  0.00     0.114 A 
HETATM   13  C19 UNL     1      27.816   9.747  49.460  1.00  0.00     0.126 A 
HETATM   14  N3  UNL     1      26.618   9.854  49.903  1.00  0.00    -0.295 NA
HETATM   15  C18 UNL     1      25.723   8.726  49.860  1.00  0.00     0.206 A 
BRANCH  11  16
HETATM   16  O1  UNL     1      30.596   6.131  47.387  1.00  0.00    -0.353 OA
HETATM   17  C1  UNL     1      31.629   5.679  48.243  1.00  0.00     0.210 C 
ENDBRANCH  11  16
BRANCH  12  18
HETATM   18  O2  UNL     1      30.684   9.073  48.268  1.00  0.00    -0.352 OA
HETATM   19  C22 UNL     1      30.854   9.914  47.145  1.00  0.00     0.210 C 
ENDBRANCH  12  18
ENDBRANCH   1   7
BRANCH   3  20
HETATM   20  C8  UNL     1      24.850   3.119  50.799  1.00  0.00     0.110 A 
HETATM   21  N2  UNL     1      23.923   2.433  51.364  1.00  0.00    -0.240 NA
HETATM   22  C9  UNL     1      24.240   1.374  52.084  1.00  0.00     0.075 A 
HETATM   23  C10 UNL     1      23.353   0.548  52.744  1.00  0.00     0.033 A 
HETATM   24  C14 UNL     1      25.602   1.002  52.229  1.00  0.00     0.035 A 
HETATM   25  C11 UNL     1      23.804  -0.515  53.456  1.00  0.00     0.002 A 
HETATM   26  C12 UNL     1      25.112  -0.886  53.604  1.00  0.00     0.002 A 
HETATM   27  C13 UNL     1      26.090  -0.139  52.991  1.00  0.00     0.021 A 
HETATM   28  S1  UNL     1      26.396   2.349  51.208  1.00  0.00    -0.067 SA
ENDBRANCH   3  20
TORSDOF 4
ENDMDL
MODEL 7
REMARK VINA RESULT:      -8.5      3.013      4.906
REMARK  4 active torsions:
REMARK  status: ('A' for Active; 'I' for Inactive)
REMARK    1  A    between atoms: O1_2  and  C2_3 
REMARK    2  A    between atoms: C5_6  and  N1_7 
REMARK    3  A    between atoms: C7_9  and  C8_10 
REMARK    4  A    between atoms: C21_26  and  O2_27 
ROOT
HETATM    1  N1  UNL     1      23.390   3.581  51.499  1.00  0.00    -0.354 N 
HETATM    2  C6  UNL     1      24.483   4.029  50.712  1.00  0.00     0.105 A 
HETATM    3  C7  UNL     1      24.455   5.282  50.294  1.00  0.00     0.015 A 
HETATM    4  C15 UNL     1      23.355   6.160  50.624  1.00  0.00     0.013 A 
HETATM    5  C16 UNL     1      22.333   5.756  51.353  1.00  0.00    -0.006 A 
HETATM    6  C17 UNL     1      22.228   4.373  51.894  1.00  0.00     0.155 A 
ENDROOT
BRANCH   1   7
HETATM    7  C5  UNL     1      23.315   2.255  52.001  1.00  0.00     0.043 A 
HETATM    8  C4  UNL     1      24.293   1.808  52.770  1.00  0.00     0.006 A 
HETATM    9  C3  UNL     1      25.533   2.377  53.276  1.00  0.00     0.054 A 
HETATM   10  C20 UNL     1      24.144   0.441  53.245  1.00  0.00     0.029 A 
HETATM   11  C2  UNL     1      26.050   1.377  53.997  1.00  0.00     0.103 A 
HETATM   12  C21 UNL     1      25.208   0.189  53.983  1.00  0.00     0.114 A 
HETATM   13  C19 UNL     1      22.939  -0.250  52.810  1.00  0.00     0.126 A 
HETATM   14  N3  UNL     1      22.007   0.215  52.062  1.00  0.00    -0.295 NA
HETATM   15  C18 UNL     1      22.086   1.561  51.553  1.00  0.00     0.206 A 
BRANCH  11  16
HETATM   16  O1  UNL     1      27.260   1.455  54.686  1.00  0.00    -0.353 OA
HETATM   17  C1  UNL     1      28.405   0.895  54.071  1.00  0.00     0.210 C 
ENDBRANCH  11  16
BRANCH  12  18
HETATM   18  O2  UNL     1      25.437  -1.017  54.618  1.00  0.00    -0.352 OA
HETATM   19  C22 UNL     1      24.752  -1.371  55.803  1.00  0.00     0.210 C 
ENDBRANCH  12  18
ENDBRANCH   1   7
BRANCH   3  20
HETATM   20  C8  UNL     1      25.539   5.828  49.479  1.00  0.00     0.110 A 
HETATM   21  N2  UNL     1      26.731   5.391  49.286  1.00  0.00    -0.240 NA
HETATM   22  C9  UNL     1      27.551   6.058  48.497  1.00  0.00     0.075 A 
HETATM   23  C10 UNL     1      28.853   5.708  48.200  1.00  0.00     0.033 A 
HETATM   24  C14 UNL     1      27.111   7.252  47.870  1.00  0.00     0.035 A 
HETATM   25  C11 UNL     1      29.600   6.480  47.371  1.00  0.00     0.002 A 
HETATM   26  C12 UNL     1      29.188   7.632  46.759  1.00  0.00     0.002 A 
HETATM   27  C13 UNL     1      27.908   8.083  46.979  1.00  0.00     0.021 A 
HETATM   28  S1  UNL     1      25.368   7.322  48.537  1.00  0.00    -0.067 SA
ENDBRANCH   3  20
TORSDOF 4
ENDMDL
MODEL 8
REMARK VINA RESULT:      -8.4      3.542      8.624
REMARK  4 active torsions:
REMARK  status: ('A' for Active; 'I' for Inactive)
REMARK    1  A    between atoms: O1_2  and  C2_3 
REMARK    2  A    between atoms: C5_6  and  N1_7 
REMARK    3  A    between atoms: C7_9  and  C8_10 
REMARK    4  A    between atoms: C21_26  and  O2_27 
ROOT
HETATM    1  N1  UNL     1      22.707   3.130  51.269  1.00  0.00    -0.354 N 
HETATM    2  C6  UNL     1      21.936   1.982  51.591  1.00  0.00     0.105 A 
HETATM    3  C7  UNL     1      20.649   2.164  51.829  1.00  0.00     0.015 A 
HETATM    4  C15 UNL     1      20.052   3.480  51.762  1.00  0.00     0.013 A 
HETATM    5  C16 UNL     1      20.757   4.553  51.465  1.00  0.00    -0.006 A 
HETATM    6  C17 UNL     1      22.216   4.502  51.173  1.00  0.00     0.155 A 
ENDROOT
BRANCH   1   7
HETATM    7  C5  UNL     1      24.099   3.052  50.996  1.00  0.00     0.043 A 
HETATM    8  C4  UNL     1      24.908   2.598  51.937  1.00  0.00     0.006 A 
HETATM    9  C3  UNL     1      24.721   2.116  53.298  1.00  0.00     0.054 A 
HETATM   10  C20 UNL     1      26.318   2.548  51.582  1.00  0.00     0.029 A 
HETATM   11  C2  UNL     1      25.965   1.813  53.682  1.00  0.00     0.103 A 
HETATM   12  C21 UNL     1      26.949   2.074  52.640  1.00  0.00     0.114 A 
HETATM   13  C19 UNL     1      26.647   3.005  50.240  1.00  0.00     0.126 A 
HETATM   14  N3  UNL     1      25.833   3.441  49.349  1.00  0.00    -0.295 NA
HETATM   15  C18 UNL     1      24.423   3.519  49.628  1.00  0.00     0.206 A 
BRANCH  11  16
HETATM   16  O1  UNL     1      26.293   1.304  54.938  1.00  0.00    -0.353 OA
HETATM   17  C1  UNL     1      26.552  -0.084  55.039  1.00  0.00     0.210 C 
ENDBRANCH  11  16
BRANCH  12  18
HETATM   18  O2  UNL     1      28.315   1.876  52.697  1.00  0.00    -0.352 OA
HETATM   19  C22 UNL     1      29.108   2.479  53.701  1.00  0.00     0.210 C 
ENDBRANCH  12  18
ENDBRANCH   1   7
BRANCH   3  20
HETATM   20  C8  UNL     1      19.780   1.040  52.167  1.00  0.00     0.110 A 
HETATM   21  N2  UNL     1      18.608   0.740  51.736  1.00  0.00    -0.240 NA
HETATM   22  C9  UNL     1      18.002  -0.341  52.189  1.00  0.00     0.075 A 
HETATM   23  C10 UNL     1      16.748  -0.783  51.816  1.00  0.00     0.033 A 
HETATM   24  C14 UNL     1      18.648  -1.162  53.148  1.00  0.00     0.035 A 
HETATM   25  C11 UNL     1      16.231  -1.915  52.357  1.00  0.00     0.002 A 
HETATM   26  C12 UNL     1      16.843  -2.716  53.281  1.00  0.00     0.002 A 
HETATM   27  C13 UNL     1      18.097  -2.378  53.730  1.00  0.00     0.021 A 
HETATM   28  S1  UNL     1      20.244  -0.210  53.338  1.00  0.00    -0.067 SA
ENDBRANCH   3  20
TORSDOF 4
ENDMDL
MODEL 9
REMARK VINA RESULT:      -8.4      3.639      7.082
REMARK  4 active torsions:
REMARK  status: ('A' for Active; 'I' for Inactive)
REMARK    1  A    between atoms: O1_2  and  C2_3 
REMARK    2  A    between atoms: C5_6  and  N1_7 
REMARK    3  A    between atoms: C7_9  and  C8_10 
REMARK    4  A    between atoms: C21_26  and  O2_27 
ROOT
HETATM    1  N1  UNL     1      22.816   2.286  50.855  1.00  0.00    -0.354 N 
HETATM    2  C6  UNL     1      24.141   1.853  51.120  1.00  0.00     0.105 A 
HETATM    3  C7  UNL     1      24.333   1.115  52.199  1.00  0.00     0.015 A 
HETATM    4  C15 UNL     1      23.236   0.763  53.073  1.00  0.00     0.013 A 
HETATM    5  C16 UNL     1      22.001   1.160  52.838  1.00  0.00    -0.006 A 
HETATM    6  C17 UNL     1      21.634   1.995  51.662  1.00  0.00     0.155 A 
ENDROOT
BRANCH   1   7
HETATM    7  C5  UNL     1      22.494   3.084  49.725  1.00  0.00     0.043 A 
HETATM    8  C4  UNL     1      22.691   4.389  49.789  1.00  0.00     0.006 A 
HETATM    9  C3  UNL     1      23.197   5.295  50.810  1.00  0.00     0.054 A 
HETATM   10  C20 UNL     1      22.338   5.138  48.592  1.00  0.00     0.029 A 
HETATM   11  C2  UNL     1      23.128   6.488  50.212  1.00  0.00     0.103 A 
HETATM   12  C21 UNL     1      22.604   6.403  48.856  1.00  0.00     0.114 A 
HETATM   13  C19 UNL     1      21.815   4.348  47.487  1.00  0.00     0.126 A 
HETATM   14  N3  UNL     1      21.637   3.078  47.458  1.00  0.00    -0.295 NA
HETATM   15  C18 UNL     1      21.964   2.272  48.605  1.00  0.00     0.206 A 
BRANCH  11  16
HETATM   16  O1  UNL     1      23.513   7.687  50.813  1.00  0.00    -0.353 OA
HETATM   17  C1  UNL     1      24.714   8.290  50.368  1.00  0.00     0.210 C 
ENDBRANCH  11  16
BRANCH  12  18
HETATM   18  O2  UNL     1      22.402   7.434  47.960  1.00  0.00    -0.352 OA
HETATM   19  C22 UNL     1      21.279   8.288  48.055  1.00  0.00     0.210 C 
ENDBRANCH  12  18
ENDBRANCH   1   7
BRANCH   3  20
HETATM   20  C8  UNL     1      25.664   0.626  52.550  1.00  0.00     0.110 A 
HETATM   21  N2  UNL     1      26.135  -0.569  52.546  1.00  0.00    -0.240 NA
HETATM   22  C9  UNL     1      27.386  -0.779  52.906  1.00  0.00     0.075 A 
HETATM   23  C10 UNL     1      28.022  -2.004  52.950  1.00  0.00     0.033 A 
HETATM   24  C14 UNL     1      28.201   0.315  53.296  1.00  0.00     0.035 A 
HETATM   25  C11 UNL     1      29.319  -2.091  53.340  1.00  0.00     0.002 A 
HETATM   26  C12 UNL     1      30.115  -1.046  53.718  1.00  0.00     0.002 A 
HETATM   27  C13 UNL     1      29.593   0.226  53.715  1.00  0.00     0.021 A 
HETATM   28  S1  UNL     1      26.968   1.702  53.088  1.00  0.00    -0.067 SA
ENDBRANCH   3  20
TORSDOF 4
ENDMDL
