MODEL 1
REMARK VINA RESULT:      -7.9      0.000      0.000
REMARK  7 active torsions:
REMARK  status: ('A' for Active; 'I' for Inactive)
REMARK    1  A    between atoms: C2_2  and  C3_3 
REMARK    2  A    between atoms: C4_4  and  O1_5 
REMARK    3  A    between atoms: O1_5  and  C5_6 
REMARK    4  A    between atoms: C5_6  and  C6_7 
REMARK    5  A    between atoms: C6_7  and  C7_8 
REMARK    6  A    between atoms: C7_8  and  N1_9 
REMARK    7  A    between atoms: C15_17  and  C16_18 
ROOT
HETATM    1  C3  UNL     1      22.474   0.330  52.914  1.00  0.00    -0.028 C 
HETATM    2  C4  UNL     1      23.225   1.244  52.257  1.00  0.00     0.056 C 
HETATM    3  C13 UNL     1      22.996   2.263  51.174  1.00  0.00     0.094 C 
HETATM    4  C14 UNL     1      21.633   2.078  50.637  1.00  0.00     0.015 C 
HETATM    5  C15 UNL     1      20.469   1.908  50.086  1.00  0.00     0.078 C 
HETATM    6  O2  UNL     1      19.212   1.870  50.672  1.00  0.00    -0.312 OA
HETATM    7  C17 UNL     1      19.059   0.810  51.595  1.00  0.00     0.085 A 
HETATM    8  C18 UNL     1      17.776   0.654  51.411  1.00  0.00     0.056 A 
HETATM    9  C19 UNL     1      17.025  -0.354  52.136  1.00  0.00     0.113 A 
HETATM   10  N2  UNL     1      17.656  -1.078  52.959  1.00  0.00    -0.297 NA
HETATM   11  C20 UNL     1      19.010  -1.078  53.307  1.00  0.00     0.189 A 
HETATM   12  C21 UNL     1      19.782  -0.050  52.560  1.00  0.00    -0.004 A 
HETATM   13  C22 UNL     1      21.059  -0.057  52.901  1.00  0.00     0.021 C 
ENDROOT
BRANCH   2  14
HETATM   14  O1  UNL     1      24.535   1.347  52.576  1.00  0.00    -0.354 OA
BRANCH  14  15
HETATM   15  C5  UNL     1      25.522   2.017  51.819  1.00  0.00     0.177 C 
BRANCH  15  16
HETATM   16  C6  UNL     1      26.902   1.454  52.140  1.00  0.00     0.057 C 
BRANCH  16  17
HETATM   17  C7  UNL     1      26.954   1.258  53.640  1.00  0.00     0.274 C 
BRANCH  17  18
HETATM   18  N1  UNL     1      27.364  -0.077  53.970  1.00  0.00     0.088 N 
HETATM   19  C8  UNL     1      28.678  -0.062  54.589  1.00  0.00     0.272 C 
HETATM   20  C9  UNL     1      29.744  -0.539  53.642  1.00  0.00     0.030 C 
HETATM   21  C10 UNL     1      29.529  -1.980  53.285  1.00  0.00     0.003 C 
HETATM   22  C11 UNL     1      28.051  -2.247  53.067  1.00  0.00     0.030 C 
HETATM   23  C12 UNL     1      27.318  -0.935  52.808  1.00  0.00     0.272 C 
ENDBRANCH  17  18
ENDBRANCH  16  17
ENDBRANCH  15  16
ENDBRANCH  14  15
ENDBRANCH   2  14
BRANCH   1  24
HETATM   24  C2  UNL     1      23.351  -0.385  53.892  1.00  0.00     0.036 C 
HETATM   25  C1  UNL     1      22.509  -1.208  54.856  1.00  0.00     0.010 C 
ENDBRANCH   1  24
BRANCH   5  26
HETATM   26  C16 UNL     1      20.629   1.736  48.646  1.00  0.00     0.286 C 
HETATM   27  F1  UNL     1      21.514   0.691  48.400  1.00  0.00    -0.248 F 
ENDBRANCH   5  26
TORSDOF 7
ENDMDL
MODEL 2
REMARK VINA RESULT:      -7.4      2.391      7.340
REMARK  7 active torsions:
REMARK  status: ('A' for Active; 'I' for Inactive)
REMARK    1  A    between atoms: C2_2  and  C3_3 
REMARK    2  A    between atoms: C4_4  and  O1_5 
REMARK    3  A    between atoms: O1_5  and  C5_6 
REMARK    4  A    between atoms: C5_6  and  C6_7 
REMARK    5  A    between atoms: C6_7  and  C7_8 
REMARK    6  A    between atoms: C7_8  and  N1_9 
REMARK    7  A    between atoms: C15_17  and  C16_18 
ROOT
HETATM    1  C3  UNL     1      22.473  -0.144  52.840  1.00  0.00    -0.028 C 
HETATM    2  C4  UNL     1      21.867   0.400  51.760  1.00  0.00     0.056 C 
HETATM    3  C13 UNL     1      22.266   1.316  50.636  1.00  0.00     0.094 C 
HETATM    4  C14 UNL     1      23.624   1.829  50.909  1.00  0.00     0.015 C 
HETATM    5  C15 UNL     1      24.787   2.360  51.142  1.00  0.00     0.078 C 
HETATM    6  O2  UNL     1      26.000   1.744  51.415  1.00  0.00    -0.312 OA
HETATM    7  C17 UNL     1      25.982   0.978  52.603  1.00  0.00     0.085 A 
HETATM    8  C18 UNL     1      27.246   1.140  52.887  1.00  0.00     0.056 A 
HETATM    9  C19 UNL     1      27.838   0.543  54.070  1.00  0.00     0.113 A 
HETATM   10  N2  UNL     1      27.086  -0.145  54.820  1.00  0.00    -0.297 NA
HETATM   11  C20 UNL     1      25.725  -0.445  54.702  1.00  0.00     0.189 A 
HETATM   12  C21 UNL     1      25.117   0.172  53.494  1.00  0.00    -0.004 A 
HETATM   13  C22 UNL     1      23.832  -0.122  53.392  1.00  0.00     0.021 C 
ENDROOT
BRANCH   2  14
HETATM   14  O1  UNL     1      20.563   0.113  51.542  1.00  0.00    -0.354 OA
BRANCH  14  15
HETATM   15  C5  UNL     1      19.605   0.986  50.981  1.00  0.00     0.177 C 
BRANCH  15  16
HETATM   16  C6  UNL     1      19.279   2.107  51.962  1.00  0.00     0.057 C 
BRANCH  16  17
HETATM   17  C7  UNL     1      18.380   3.078  51.228  1.00  0.00     0.274 C 
BRANCH  17  18
HETATM   18  N1  UNL     1      19.092   4.275  50.878  1.00  0.00     0.088 N 
HETATM   19  C8  UNL     1      19.163   4.414  49.434  1.00  0.00     0.272 C 
HETATM   20  C9  UNL     1      20.533   4.082  48.911  1.00  0.00     0.030 C 
HETATM   21  C10 UNL     1      21.547   5.064  49.421  1.00  0.00     0.003 C 
HETATM   22  C11 UNL     1      21.274   5.384  50.879  1.00  0.00     0.030 C 
HETATM   23  C12 UNL     1      20.398   4.298  51.495  1.00  0.00     0.272 C 
ENDBRANCH  17  18
ENDBRANCH  16  17
ENDBRANCH  15  16
ENDBRANCH  14  15
ENDBRANCH   2  14
BRANCH   1  24
HETATM   24  C2  UNL     1      21.471  -0.978  53.572  1.00  0.00     0.036 C 
HETATM   25  C1  UNL     1      21.993  -1.344  54.954  1.00  0.00     0.010 C 
ENDBRANCH   1  24
BRANCH   5  26
HETATM   26  C16 UNL     1      24.681   3.814  51.091  1.00  0.00     0.286 C 
HETATM   27  F1  UNL     1      24.076   4.275  52.257  1.00  0.00    -0.248 F 
ENDBRANCH   5  26
TORSDOF 7
ENDMDL
MODEL 3
REMARK VINA RESULT:      -7.4      4.516      6.905
REMARK  7 active torsions:
REMARK  status: ('A' for Active; 'I' for Inactive)
REMARK    1  A    between atoms: C2_2  and  C3_3 
REMARK    2  A    between atoms: C4_4  and  O1_5 
REMARK    3  A    between atoms: O1_5  and  C5_6 
REMARK    4  A    between atoms: C5_6  and  C6_7 
REMARK    5  A    between atoms: C6_7  and  C7_8 
REMARK    6  A    between atoms: C7_8  and  N1_9 
REMARK    7  A    between atoms: C15_17  and  C16_18 
ROOT
HETATM    1  C3  UNL     1      23.821   2.758  51.433  1.00  0.00    -0.028 C 
HETATM    2  C4  UNL     1      25.136   2.713  51.114  1.00  0.00     0.056 C 
HETATM    3  C13 UNL     1      26.309   1.838  51.463  1.00  0.00     0.094 C 
HETATM    4  C14 UNL     1      25.895   0.902  52.528  1.00  0.00     0.015 C 
HETATM    5  C15 UNL     1      25.598   0.106  53.511  1.00  0.00     0.078 C 
HETATM    6  O2  UNL     1      24.556  -0.803  53.627  1.00  0.00    -0.312 OA
HETATM    7  C17 UNL     1      23.279  -0.197  53.577  1.00  0.00     0.085 A 
HETATM    8  C18 UNL     1      22.682  -1.078  54.333  1.00  0.00     0.056 A 
HETATM    9  C19 UNL     1      21.270  -0.969  54.652  1.00  0.00     0.113 A 
HETATM   10  N2  UNL     1      20.633   0.012  54.169  1.00  0.00    -0.297 NA
HETATM   11  C20 UNL     1      21.071   1.053  53.345  1.00  0.00     0.189 A 
HETATM   12  C21 UNL     1      22.518   0.946  53.024  1.00  0.00    -0.004 A 
HETATM   13  C22 UNL     1      22.917   1.934  52.242  1.00  0.00     0.021 C 
ENDROOT
BRANCH   2  14
HETATM   14  O1  UNL     1      25.627   3.654  50.276  1.00  0.00    -0.354 OA
BRANCH  14  15
HETATM   15  C5  UNL     1      26.745   3.504  49.427  1.00  0.00     0.177 C 
BRANCH  15  16
HETATM   16  C6  UNL     1      27.139   4.853  48.834  1.00  0.00     0.057 C 
BRANCH  16  17
HETATM   17  C7  UNL     1      26.135   5.863  49.347  1.00  0.00     0.274 C 
BRANCH  17  18
HETATM   18  N1  UNL     1      26.571   7.204  49.078  1.00  0.00     0.088 N 
HETATM   19  C8  UNL     1      25.556   7.922  48.328  1.00  0.00     0.272 C 
HETATM   20  C9  UNL     1      25.939   8.075  46.881  1.00  0.00     0.030 C 
HETATM   21  C10 UNL     1      27.163   8.931  46.745  1.00  0.00     0.003 C 
HETATM   22  C11 UNL     1      28.164   8.584  47.832  1.00  0.00     0.030 C 
HETATM   23  C12 UNL     1      27.851   7.207  48.407  1.00  0.00     0.272 C 
ENDBRANCH  17  18
ENDBRANCH  16  17
ENDBRANCH  15  16
ENDBRANCH  14  15
ENDBRANCH   2  14
BRANCH   1  24
HETATM   24  C2  UNL     1      23.207   3.926  50.728  1.00  0.00     0.036 C 
HETATM   25  C1  UNL     1      22.550   4.864  51.731  1.00  0.00     0.010 C 
ENDBRANCH   1  24
BRANCH   5  26
HETATM   26  C16 UNL     1      26.558   0.286  54.594  1.00  0.00     0.286 C 
HETATM   27  F1  UNL     1      26.015  -0.200  55.779  1.00  0.00    -0.248 F 
ENDBRANCH   5  26
TORSDOF 7
ENDMDL
MODEL 4
REMARK VINA RESULT:      -7.3      2.181      8.456
REMARK  7 active torsions:
REMARK  status: ('A' for Active; 'I' for Inactive)
REMARK    1  A    between atoms: C2_2  and  C3_3 
REMARK    2  A    between atoms: C4_4  and  O1_5 
REMARK    3  A    between atoms: O1_5  and  C5_6 
REMARK    4  A    between atoms: C5_6  and  C6_7 
REMARK    5  A    between atoms: C6_7  and  C7_8 
REMARK    6  A    between atoms: C7_8  and  N1_9 
REMARK    7  A    between atoms: C15_17  and  C16_18 
ROOT
HETATM    1  C3  UNL     1      22.928  -0.063  53.136  1.00  0.00    -0.028 C 
HETATM    2  C4  UNL     1      22.120   0.370  52.140  1.00  0.00     0.056 C 
HETATM    3  C13 UNL     1      22.227   1.346  51.001  1.00  0.00     0.094 C 
HETATM    4  C14 UNL     1      23.497   2.088  51.136  1.00  0.00     0.015 C 
HETATM    5  C15 UNL     1      24.568   2.813  51.253  1.00  0.00     0.078 C 
HETATM    6  O2  UNL     1      25.893   2.419  51.379  1.00  0.00    -0.312 OA
HETATM    7  C17 UNL     1      26.140   1.658  52.544  1.00  0.00     0.085 A 
HETATM    8  C18 UNL     1      27.380   2.038  52.693  1.00  0.00     0.056 A 
HETATM    9  C19 UNL     1      28.194   1.550  53.791  1.00  0.00     0.113 A 
HETATM   10  N2  UNL     1      27.661   0.738  54.602  1.00  0.00    -0.297 NA
HETATM   11  C20 UNL     1      26.369   0.205  54.626  1.00  0.00     0.189 A 
HETATM   12  C21 UNL     1      25.532   0.710  53.506  1.00  0.00    -0.004 A 
HETATM   13  C22 UNL     1      24.315   0.195  53.537  1.00  0.00     0.021 C 
ENDROOT
BRANCH   2  14
HETATM   14  O1  UNL     1      20.870  -0.140  52.060  1.00  0.00    -0.354 OA
BRANCH  14  15
HETATM   15  C5  UNL     1      19.707   0.572  51.694  1.00  0.00     0.177 C 
BRANCH  15  16
HETATM   16  C6  UNL     1      18.467  -0.278  51.953  1.00  0.00     0.057 C 
BRANCH  16  17
HETATM   17  C7  UNL     1      17.578  -0.132  50.737  1.00  0.00     0.274 C 
BRANCH  17  18
HETATM   18  N1  UNL     1      16.203   0.018  51.121  1.00  0.00     0.088 N 
HETATM   19  C8  UNL     1      15.703   1.318  50.708  1.00  0.00     0.272 C 
HETATM   20  C9  UNL     1      15.578   2.260  51.873  1.00  0.00     0.030 C 
HETATM   21  C10 UNL     1      14.545   1.766  52.844  1.00  0.00     0.003 C 
HETATM   22  C11 UNL     1      14.661   0.262  53.006  1.00  0.00     0.030 C 
HETATM   23  C12 UNL     1      16.034  -0.208  52.538  1.00  0.00     0.272 C 
ENDBRANCH  17  18
ENDBRANCH  16  17
ENDBRANCH  15  16
ENDBRANCH  14  15
ENDBRANCH   2  14
BRANCH   1  24
HETATM   24  C2  UNL     1      22.173  -1.062  53.954  1.00  0.00     0.036 C 
HETATM   25  C1  UNL     1      22.863  -1.281  55.292  1.00  0.00     0.010 C 
ENDBRANCH   1  24
BRANCH   5  26
HETATM   26  C16 UNL     1      24.206   4.226  51.247  1.00  0.00     0.286 C 
HETATM   27  F1  UNL     1      23.687   4.576  52.490  1.00  0.00    -0.248 F 
ENDBRANCH   5  26
TORSDOF 7
ENDMDL
MODEL 5
REMARK VINA RESULT:      -7.2      4.912      6.936
REMARK  7 active torsions:
REMARK  status: ('A' for Active; 'I' for Inactive)
REMARK    1  A    between atoms: C2_2  and  C3_3 
REMARK    2  A    between atoms: C4_4  and  O1_5 
REMARK    3  A    between atoms: O1_5  and  C5_6 
REMARK    4  A    between atoms: C5_6  and  C6_7 
REMARK    5  A    between atoms: C6_7  and  C7_8 
REMARK    6  A    between atoms: C7_8  and  N1_9 
REMARK    7  A    between atoms: C15_17  and  C16_18 
ROOT
HETATM    1  C3  UNL     1      24.135   3.347  51.028  1.00  0.00    -0.028 C 
HETATM    2  C4  UNL     1      25.439   3.327  50.667  1.00  0.00     0.056 C 
HETATM    3  C13 UNL     1      26.626   2.444  50.934  1.00  0.00     0.094 C 
HETATM    4  C14 UNL     1      26.252   1.451  51.961  1.00  0.00     0.015 C 
HETATM    5  C15 UNL     1      25.989   0.605  52.911  1.00  0.00     0.078 C 
HETATM    6  O2  UNL     1      24.957  -0.316  53.013  1.00  0.00    -0.312 OA
HETATM    7  C17 UNL     1      23.676   0.282  53.034  1.00  0.00     0.085 A 
HETATM    8  C18 UNL     1      23.107  -0.640  53.762  1.00  0.00     0.056 A 
HETATM    9  C19 UNL     1      21.706  -0.557  54.130  1.00  0.00     0.113 A 
HETATM   10  N2  UNL     1      21.049   0.442  53.718  1.00  0.00    -0.297 NA
HETATM   11  C20 UNL     1      21.454   1.527  52.936  1.00  0.00     0.189 A 
HETATM   12  C21 UNL     1      22.891   1.447  52.564  1.00  0.00    -0.004 A 
HETATM   13  C22 UNL     1      23.261   2.476  51.821  1.00  0.00     0.021 C 
ENDROOT
BRANCH   2  14
HETATM   14  O1  UNL     1      25.898   4.313  49.863  1.00  0.00    -0.354 OA
BRANCH  14  15
HETATM   15  C5  UNL     1      27.070   4.262  49.077  1.00  0.00     0.177 C 
BRANCH  15  16
HETATM   16  C6  UNL     1      27.447   5.662  48.605  1.00  0.00     0.057 C 
BRANCH  16  17
HETATM   17  C7  UNL     1      28.914   5.617  48.239  1.00  0.00     0.274 C 
BRANCH  17  18
HETATM   18  N1  UNL     1      29.406   6.928  47.920  1.00  0.00     0.088 N 
HETATM   19  C8  UNL     1      30.849   6.976  48.075  1.00  0.00     0.272 C 
HETATM   20  C9  UNL     1      31.249   7.710  49.325  1.00  0.00     0.030 C 
HETATM   21  C10 UNL     1      30.845   9.153  49.244  1.00  0.00     0.003 C 
HETATM   22  C11 UNL     1      29.466   9.273  48.620  1.00  0.00     0.030 C 
HETATM   23  C12 UNL     1      28.737   7.937  48.710  1.00  0.00     0.272 C 
ENDBRANCH  17  18
ENDBRANCH  16  17
ENDBRANCH  15  16
ENDBRANCH  14  15
ENDBRANCH   2  14
BRANCH   1  24
HETATM   24  C2  UNL     1      23.492   4.545  50.404  1.00  0.00     0.036 C 
HETATM   25  C1  UNL     1      22.554   5.219  51.394  1.00  0.00     0.010 C 
ENDBRANCH   1  24
BRANCH   5  26
HETATM   26  C16 UNL     1      26.983   0.736  53.972  1.00  0.00     0.286 C 
HETATM   27  F1  UNL     1      26.442   0.281  55.171  1.00  0.00    -0.248 F 
ENDBRANCH   5  26
TORSDOF 7
ENDMDL
MODEL 6
REMARK VINA RESULT:      -7.1      4.194      7.325
REMARK  7 active torsions:
REMARK  status: ('A' for Active; 'I' for Inactive)
REMARK    1  A    between atoms: C2_2  and  C3_3 
REMARK    2  A    between atoms: C4_4  and  O1_5 
REMARK    3  A    between atoms: O1_5  and  C5_6 
REMARK    4  A    between atoms: C5_6  and  C6_7 
REMARK    5  A    between atoms: C6_7  and  C7_8 
REMARK    6  A    between atoms: C7_8  and  N1_9 
REMARK    7  A    between atoms: C15_17  and  C16_18 
ROOT
HETATM    1  C3  UNL     1      24.476   3.537  50.731  1.00  0.00    -0.028 C 
HETATM    2  C4  UNL     1      23.244   4.077  50.879  1.00  0.00     0.056 C 
HETATM    3  C13 UNL     1      21.982   3.718  51.615  1.00  0.00     0.094 C 
HETATM    4  C14 UNL     1      22.138   2.364  52.183  1.00  0.00     0.015 C 
HETATM    5  C15 UNL     1      22.204   1.150  52.641  1.00  0.00     0.078 C 
HETATM    6  O2  UNL     1      23.156   0.568  53.466  1.00  0.00    -0.312 OA
HETATM    7  C17 UNL     1      24.450   0.547  52.896  1.00  0.00     0.085 A 
HETATM    8  C18 UNL     1      24.847  -0.538  53.503  1.00  0.00     0.056 A 
HETATM    9  C19 UNL     1      26.178  -1.078  53.294  1.00  0.00     0.113 A 
HETATM   10  N2  UNL     1      26.945  -0.458  52.501  1.00  0.00    -0.297 NA
HETATM   11  C20 UNL     1      26.726   0.706  51.760  1.00  0.00     0.189 A 
HETATM   12  C21 UNL     1      25.361   1.257  51.969  1.00  0.00    -0.004 A 
HETATM   13  C22 UNL     1      25.168   2.360  51.267  1.00  0.00     0.021 C 
ENDROOT
BRANCH   2  14
HETATM   14  O1  UNL     1      22.969   5.236  50.239  1.00  0.00    -0.354 OA
BRANCH  14  15
HETATM   15  C5  UNL     1      22.045   6.217  50.662  1.00  0.00     0.177 C 
BRANCH  15  16
HETATM   16  C6  UNL     1      22.559   7.609  50.311  1.00  0.00     0.057 C 
BRANCH  16  17
HETATM   17  C7  UNL     1      23.961   7.708  50.870  1.00  0.00     0.274 C 
BRANCH  17  18
HETATM   18  N1  UNL     1      24.833   8.389  49.954  1.00  0.00     0.088 N 
HETATM   19  C8  UNL     1      24.333   8.266  48.596  1.00  0.00     0.272 C 
HETATM   20  C9  UNL     1      25.136   7.278  47.796  1.00  0.00     0.030 C 
HETATM   21  C10 UNL     1      26.546   7.762  47.620  1.00  0.00     0.003 C 
HETATM   22  C11 UNL     1      27.047   8.382  48.911  1.00  0.00     0.030 C 
HETATM   23  C12 UNL     1      26.191   7.912  50.082  1.00  0.00     0.272 C 
ENDBRANCH  17  18
ENDBRANCH  16  17
ENDBRANCH  15  16
ENDBRANCH  14  15
ENDBRANCH   2  14
BRANCH   1  24
HETATM   24  C2  UNL     1      25.273   4.424  49.828  1.00  0.00     0.036 C 
HETATM   25  C1  UNL     1      26.609   3.777  49.495  1.00  0.00     0.010 C 
ENDBRANCH   1  24
BRANCH   5  26
HETATM   26  C16 UNL     1      21.068   0.379  52.149  1.00  0.00     0.286 C 
HETATM   27  F1  UNL     1      21.241   0.116  50.793  1.00  0.00    -0.248 F 
ENDBRANCH   5  26
TORSDOF 7
ENDMDL
MODEL 7
REMARK VINA RESULT:      -7.1      4.973      8.494
REMARK  7 active torsions:
REMARK  status: ('A' for Active; 'I' for Inactive)
REMARK    1  A    between atoms: C2_2  and  C3_3 
REMARK    2  A    between atoms: C4_4  and  O1_5 
REMARK    3  A    between atoms: O1_5  and  C5_6 
REMARK    4  A    between atoms: C5_6  and  C6_7 
REMARK    5  A    between atoms: C6_7  and  C7_8 
REMARK    6  A    between atoms: C7_8  and  N1_9 
REMARK    7  A    between atoms: C15_17  and  C16_18 
ROOT
HETATM    1  C3  UNL     1      26.074   3.858  49.417  1.00  0.00    -0.028 C 
HETATM    2  C4  UNL     1      24.729   4.004  49.458  1.00  0.00     0.056 C 
HETATM    3  C13 UNL     1      23.742   5.081  49.103  1.00  0.00     0.094 C 
HETATM    4  C14 UNL     1      24.488   6.309  48.765  1.00  0.00     0.015 C 
HETATM    5  C15 UNL     1      25.099   7.431  48.528  1.00  0.00     0.078 C 
HETATM    6  O2  UNL     1      26.117   7.709  47.627  1.00  0.00    -0.312 OA
HETATM    7  C17 UNL     1      27.303   6.984  47.884  1.00  0.00     0.085 A 
HETATM    8  C18 UNL     1      28.118   7.884  47.406  1.00  0.00     0.056 A 
HETATM    9  C19 UNL     1      29.555   7.678  47.402  1.00  0.00     0.113 A 
HETATM   10  N2  UNL     1      29.994   6.590  47.877  1.00  0.00    -0.297 NA
HETATM   11  C20 UNL     1      29.306   5.505  48.428  1.00  0.00     0.189 A 
HETATM   12  C21 UNL     1      27.835   5.718  48.439  1.00  0.00    -0.004 A 
HETATM   13  C22 UNL     1      27.197   4.684  48.958  1.00  0.00     0.021 C 
ENDROOT
BRANCH   2  14
HETATM   14  O1  UNL     1      23.986   2.975  49.926  1.00  0.00    -0.354 OA
BRANCH  14  15
HETATM   15  C5  UNL     1      22.731   2.565  49.425  1.00  0.00     0.177 C 
BRANCH  15  16
HETATM   16  C6  UNL     1      21.990   1.743  50.474  1.00  0.00     0.057 C 
BRANCH  16  17
HETATM   17  C7  UNL     1      23.009   1.358  51.524  1.00  0.00     0.274 C 
BRANCH  17  18
HETATM   18  N1  UNL     1      22.592   0.187  52.241  1.00  0.00     0.088 N 
HETATM   19  C8  UNL     1      21.161   0.231  52.489  1.00  0.00     0.272 C 
HETATM   20  C9  UNL     1      20.857   0.567  53.923  1.00  0.00     0.030 C 
HETATM   21  C10 UNL     1      21.349  -0.516  54.837  1.00  0.00     0.003 C 
HETATM   22  C11 UNL     1      22.708  -1.008  54.374  1.00  0.00     0.030 C 
HETATM   23  C12 UNL     1      23.353   0.027  53.459  1.00  0.00     0.272 C 
ENDBRANCH  17  18
ENDBRANCH  16  17
ENDBRANCH  15  16
ENDBRANCH  14  15
ENDBRANCH   2  14
BRANCH   1  24
HETATM   24  C2  UNL     1      26.417   2.501  49.944  1.00  0.00     0.036 C 
HETATM   25  C1  UNL     1      26.794   2.584  51.416  1.00  0.00     0.010 C 
ENDBRANCH   1  24
BRANCH   5  26
HETATM   26  C16 UNL     1      24.561   8.474  49.394  1.00  0.00     0.286 C 
HETATM   27  F1  UNL     1      24.467   7.991  50.696  1.00  0.00    -0.248 F 
ENDBRANCH   5  26
TORSDOF 7
ENDMDL
MODEL 8
REMARK VINA RESULT:      -7.0      3.875      6.753
REMARK  7 active torsions:
REMARK  status: ('A' for Active; 'I' for Inactive)
REMARK    1  A    between atoms: C2_2  and  C3_3 
REMARK    2  A    between atoms: C4_4  and  O1_5 
REMARK    3  A    between atoms: O1_5  and  C5_6 
REMARK    4  A    between atoms: C5_6  and  C6_7 
REMARK    5  A    between atoms: C6_7  and  C7_8 
REMARK    6  A    between atoms: C7_8  and  N1_9 
REMARK    7  A    between atoms: C15_17  and  C16_18 
ROOT
HETATM    1  C3  UNL     1      23.965   2.372  50.768  1.00  0.00    -0.028 C 
HETATM    2  C4  UNL     1      25.304   2.434  50.578  1.00  0.00     0.056 C 
HETATM    3  C13 UNL     1      26.521   1.814  51.207  1.00  0.00     0.094 C 
HETATM    4  C14 UNL     1      26.101   1.076  52.414  1.00  0.00     0.015 C 
HETATM    5  C15 UNL     1      25.787   0.472  53.521  1.00  0.00     0.078 C 
HETATM    6  O2  UNL     1      24.847  -0.523  53.749  1.00  0.00    -0.312 OA
HETATM    7  C17 UNL     1      23.524  -0.115  53.461  1.00  0.00     0.085 A 
HETATM    8  C18 UNL     1      22.949  -0.889  54.341  1.00  0.00     0.056 A 
HETATM    9  C19 UNL     1      21.508  -0.903  54.511  1.00  0.00     0.113 A 
HETATM   10  N2  UNL     1      20.822  -0.138  53.772  1.00  0.00    -0.297 NA
HETATM   11  C20 UNL     1      21.229   0.756  52.777  1.00  0.00     0.189 A 
HETATM   12  C21 UNL     1      22.705   0.776  52.608  1.00  0.00    -0.004 A 
HETATM   13  C22 UNL     1      23.075   1.622  51.662  1.00  0.00     0.021 C 
ENDROOT
BRANCH   2  14
HETATM   14  O1  UNL     1      25.776   3.235  49.595  1.00  0.00    -0.354 OA
BRANCH  14  15
HETATM   15  C5  UNL     1      26.607   4.363  49.774  1.00  0.00     0.177 C 
BRANCH  15  16
HETATM   16  C6  UNL     1      26.329   5.397  48.688  1.00  0.00     0.057 C 
BRANCH  16  17
HETATM   17  C7  UNL     1      26.445   6.756  49.344  1.00  0.00     0.274 C 
BRANCH  17  18
HETATM   18  N1  UNL     1      25.173   7.420  49.381  1.00  0.00     0.088 N 
HETATM   19  C8  UNL     1      24.728   7.581  50.754  1.00  0.00     0.272 C 
HETATM   20  C9  UNL     1      23.634   6.610  51.101  1.00  0.00     0.030 C 
HETATM   21  C10 UNL     1      22.404   6.886  50.287  1.00  0.00     0.003 C 
HETATM   22  C11 UNL     1      22.790   7.221  48.858  1.00  0.00     0.030 C 
HETATM   23  C12 UNL     1      24.201   6.722  48.570  1.00  0.00     0.272 C 
ENDBRANCH  17  18
ENDBRANCH  16  17
ENDBRANCH  15  16
ENDBRANCH  14  15
ENDBRANCH   2  14
BRANCH   1  24
HETATM   24  C2  UNL     1      23.305   3.274  49.775  1.00  0.00     0.036 C 
HETATM   25  C1  UNL     1      22.506   2.459  48.769  1.00  0.00     0.010 C 
ENDBRANCH   1  24
BRANCH   5  26
HETATM   26  C16 UNL     1      26.598   0.999  54.613  1.00  0.00     0.286 C 
HETATM   27  F1  UNL     1      27.285  -0.045  55.226  1.00  0.00    -0.248 F 
ENDBRANCH   5  26
TORSDOF 7
ENDMDL
MODEL 9
REMARK VINA RESULT:      -7.0      1.833      7.885
REMARK  7 active torsions:
REMARK  status: ('A' for Active; 'I' for Inactive)
REMARK    1  A    between atoms: C2_2  and  C3_3 
REMARK    2  A    between atoms: C4_4  and  O1_5 
REMARK    3  A    between atoms: O1_5  and  C5_6 
REMARK    4  A    between atoms: C5_6  and  C6_7 
REMARK    5  A    between atoms: C6_7  and  C7_8 
REMARK    6  A    between atoms: C7_8  and  N1_9 
REMARK    7  A    between atoms: C15_17  and  C16_18 
ROOT
HETATM    1  C3  UNL     1      22.341  -0.044  52.961  1.00  0.00    -0.028 C 
HETATM    2  C4  UNL     1      21.703   0.551  51.926  1.00  0.00     0.056 C 
HETATM    3  C13 UNL     1      22.089   1.450  50.784  1.00  0.00     0.094 C 
HETATM    4  C14 UNL     1      23.493   1.869  50.971  1.00  0.00     0.015 C 
HETATM    5  C15 UNL     1      24.702   2.318  51.130  1.00  0.00     0.078 C 
HETATM    6  O2  UNL     1      25.886   1.620  51.319  1.00  0.00    -0.312 OA
HETATM    7  C17 UNL     1      25.894   0.845  52.501  1.00  0.00     0.085 A 
HETATM    8  C18 UNL     1      27.182   0.919  52.702  1.00  0.00     0.056 A 
HETATM    9  C19 UNL     1      27.808   0.271  53.840  1.00  0.00     0.113 A 
HETATM   10  N2  UNL     1      27.062  -0.373  54.633  1.00  0.00    -0.297 NA
HETATM   11  C20 UNL     1      25.680  -0.580  54.603  1.00  0.00     0.189 A 
HETATM   12  C21 UNL     1      25.037   0.089  53.442  1.00  0.00    -0.004 A 
HETATM   13  C22 UNL     1      23.731  -0.118  53.423  1.00  0.00     0.021 C 
ENDROOT
BRANCH   2  14
HETATM   14  O1  UNL     1      20.372   0.353  51.793  1.00  0.00    -0.354 OA
BRANCH  14  15
HETATM   15  C5  UNL     1      19.389   1.364  51.706  1.00  0.00     0.177 C 
BRANCH  15  16
HETATM   16  C6  UNL     1      18.149   0.831  50.996  1.00  0.00     0.057 C 
BRANCH  16  17
HETATM   17  C7  UNL     1      17.266   0.222  52.063  1.00  0.00     0.274 C 
BRANCH  17  18
HETATM   18  N1  UNL     1      17.353  -1.211  52.046  1.00  0.00     0.088 N 
HETATM   19  C8  UNL     1      16.156  -1.782  51.455  1.00  0.00     0.272 C 
HETATM   20  C9  UNL     1      15.252  -2.380  52.497  1.00  0.00     0.030 C 
HETATM   21  C10 UNL     1      15.916  -3.546  53.167  1.00  0.00     0.003 C 
HETATM   22  C11 UNL     1      17.379  -3.235  53.423  1.00  0.00     0.030 C 
HETATM   23  C12 UNL     1      17.608  -1.728  53.372  1.00  0.00     0.272 C 
ENDBRANCH  17  18
ENDBRANCH  16  17
ENDBRANCH  15  16
ENDBRANCH  14  15
ENDBRANCH   2  14
BRANCH   1  24
HETATM   24  C2  UNL     1      21.334  -0.818  53.752  1.00  0.00     0.036 C 
HETATM   25  C1  UNL     1      22.008  -1.524  54.920  1.00  0.00     0.010 C 
ENDBRANCH   1  24
BRANCH   5  26
HETATM   26  C16 UNL     1      24.690   3.777  51.096  1.00  0.00     0.286 C 
HETATM   27  F1  UNL     1      24.530   4.207  49.782  1.00  0.00    -0.248 F 
ENDBRANCH   5  26
TORSDOF 7
ENDMDL
