MODEL 1
REMARK VINA RESULT:      -7.8      0.000      0.000
REMARK  6 active torsions:
REMARK  status: ('A' for Active; 'I' for Inactive)
REMARK    1  A    between atoms: O1_2  and  C2_3 
REMARK    2  A    between atoms: C5_6  and  N1_7 
REMARK       I    between atoms: N1_7  and  C6_8 
REMARK       I    between atoms: C6_8  and  N2_10 
REMARK    3  A    between atoms: N2_10  and  C7_11 
REMARK    4  A    between atoms: C10_14  and  C11_15 
REMARK    5  A    between atoms: C15_21  and  C16_22 
REMARK    6  A    between atoms: C16_22  and  N5_23 
ROOT
HETATM    1  C7  UNL     1      23.518   3.693  50.963  1.00  0.00     0.036 A 
HETATM    2  C8  UNL     1      23.276   3.363  52.279  1.00  0.00     0.030 A 
HETATM    3  C9  UNL     1      24.168   2.630  53.006  1.00  0.00     0.016 A 
HETATM    4  C10 UNL     1      25.358   2.152  52.556  1.00  0.00    -0.007 A 
HETATM    5  C19 UNL     1      25.585   2.491  51.235  1.00  0.00     0.016 A 
HETATM    6  C20 UNL     1      24.709   3.226  50.471  1.00  0.00     0.030 A 
ENDROOT
BRANCH   1   7
HETATM    7  N2  UNL     1      22.539   4.455  50.285  1.00  0.00    -0.309 N 
HETATM    8  C6  UNL     1      22.396   5.848  50.245  1.00  0.00     0.325 C 
HETATM    9  N1  UNL     1      21.385   6.498  49.540  1.00  0.00    -0.309 N 
HETATM   10  O2  UNL     1      23.197   6.561  50.859  1.00  0.00    -0.247 OA
HETATM   11  H6  UNL     1      20.717   5.851  49.026  1.00  0.00     0.170 HD
HETATM   12  H7  UNL     1      21.809   3.935  49.732  1.00  0.00     0.170 HD
BRANCH   9  13
HETATM   13  C5  UNL     1      21.134   7.882  49.422  1.00  0.00     0.036 A 
HETATM   14  C4  UNL     1      21.828   8.823  48.746  1.00  0.00     0.032 A 
HETATM   15  C3  UNL     1      21.522  10.164  48.672  1.00  0.00     0.039 A 
HETATM   16  C2  UNL     1      20.417  10.633  49.332  1.00  0.00     0.068 A 
HETATM   17  C22 UNL     1      19.673   9.728  50.035  1.00  0.00     0.039 A 
HETATM   18  C21 UNL     1      20.018   8.413  50.076  1.00  0.00     0.032 A 
BRANCH  16  19
HETATM   19  O1  UNL     1      20.106  11.982  49.262  1.00  0.00    -0.356 OA
HETATM   20  C1  UNL     1      20.910  12.818  48.440  1.00  0.00     0.210 C 
ENDBRANCH  16  19
ENDBRANCH   9  13
ENDBRANCH   1   7
BRANCH   4  21
HETATM   21  C11 UNL     1      26.455   1.440  53.175  1.00  0.00     0.074 C 
HETATM   22  N3  UNL     1      27.273   2.204  53.864  1.00  0.00    -0.241 NA
HETATM   23  C12 UNL     1      28.448   2.108  54.642  1.00  0.00     0.233 C 
HETATM   24  N4  UNL     1      29.444   1.281  54.505  1.00  0.00    -0.254 NA
HETATM   25  C13 UNL     1      29.731   0.221  53.591  1.00  0.00     0.118 C 
HETATM   26  C14 UNL     1      29.002  -0.688  52.917  1.00  0.00     0.028 C 
HETATM   27  C15 UNL     1      27.527  -0.874  52.931  1.00  0.00    -0.021 C 
HETATM   28  C17 UNL     1      26.523  -0.010  53.037  1.00  0.00    -0.024 C 
HETATM   29  C18 UNL     1      25.192  -0.647  53.091  1.00  0.00     0.051 C 
BRANCH  27  30
HETATM   30  C16 UNL     1      27.173  -2.284  52.792  1.00  0.00     0.305 C 
BRANCH  30  31
HETATM   31  N5  UNL     1      28.292  -3.171  53.082  1.00  0.00     0.082 N 
HETATM   32  H15 UNL     1      27.893  -4.129  53.092  1.00  0.00     0.313 HD
HETATM   33  H16 UNL     1      28.991  -3.128  52.320  1.00  0.00     0.313 HD
ENDBRANCH  30  31
ENDBRANCH  27  30
ENDBRANCH   4  21
TORSDOF 6
ENDMDL
MODEL 2
REMARK VINA RESULT:      -7.8      5.246      7.491
REMARK  6 active torsions:
REMARK  status: ('A' for Active; 'I' for Inactive)
REMARK    1  A    between atoms: O1_2  and  C2_3 
REMARK    2  A    between atoms: C5_6  and  N1_7 
REMARK       I    between atoms: N1_7  and  C6_8 
REMARK       I    between atoms: C6_8  and  N2_10 
REMARK    3  A    between atoms: N2_10  and  C7_11 
REMARK    4  A    between atoms: C10_14  and  C11_15 
REMARK    5  A    between atoms: C15_21  and  C16_22 
REMARK    6  A    between atoms: C16_22  and  N5_23 
ROOT
HETATM    1  C7  UNL     1      24.763   4.425  49.869  1.00  0.00     0.036 A 
HETATM    2  C8  UNL     1      24.591   4.511  51.233  1.00  0.00     0.030 A 
HETATM    3  C9  UNL     1      23.875   3.575  51.922  1.00  0.00     0.016 A 
HETATM    4  C10 UNL     1      23.265   2.486  51.384  1.00  0.00    -0.007 A 
HETATM    5  C19 UNL     1      23.446   2.416  50.015  1.00  0.00     0.016 A 
HETATM    6  C20 UNL     1      24.160   3.340  49.288  1.00  0.00     0.030 A 
ENDROOT
BRANCH   1   7
HETATM    7  N2  UNL     1      25.520   5.438  49.237  1.00  0.00    -0.309 N 
HETATM    8  C6  UNL     1      26.858   5.393  48.824  1.00  0.00     0.325 C 
HETATM    9  N1  UNL     1      27.510   6.458  48.206  1.00  0.00    -0.309 N 
HETATM   10  O2  UNL     1      27.518   4.364  49.006  1.00  0.00    -0.247 OA
HETATM   11  H6  UNL     1      26.909   7.325  48.069  1.00  0.00     0.170 HD
HETATM   12  H7  UNL     1      25.043   6.356  49.039  1.00  0.00     0.170 HD
BRANCH   9  13
HETATM   13  C5  UNL     1      28.842   6.540  47.748  1.00  0.00     0.036 A 
HETATM   14  C4  UNL     1      29.907   5.775  48.072  1.00  0.00     0.032 A 
HETATM   15  C3  UNL     1      31.187   5.911  47.583  1.00  0.00     0.039 A 
HETATM   16  C2  UNL     1      31.452   6.904  46.677  1.00  0.00     0.068 A 
HETATM   17  C22 UNL     1      30.413   7.712  46.308  1.00  0.00     0.039 A 
HETATM   18  C21 UNL     1      29.167   7.536  46.822  1.00  0.00     0.032 A 
BRANCH  16  19
HETATM   19  O1  UNL     1      32.738   7.046  46.181  1.00  0.00    -0.356 OA
HETATM   20  C1  UNL     1      33.691   6.034  46.479  1.00  0.00     0.210 C 
ENDBRANCH  16  19
ENDBRANCH   9  13
ENDBRANCH   1   7
BRANCH   4  21
HETATM   21  C11 UNL     1      22.542   1.361  51.938  1.00  0.00     0.074 C 
HETATM   22  N3  UNL     1      21.324   1.219  51.465  1.00  0.00    -0.241 NA
HETATM   23  C12 UNL     1      20.201   0.373  51.605  1.00  0.00     0.233 C 
HETATM   24  N4  UNL     1      19.792  -0.262  52.665  1.00  0.00    -0.254 NA
HETATM   25  C13 UNL     1      20.273  -0.357  54.007  1.00  0.00     0.118 C 
HETATM   26  C14 UNL     1      21.483  -0.338  54.596  1.00  0.00     0.028 C 
HETATM   27  C15 UNL     1      22.815  -0.198  53.951  1.00  0.00    -0.021 C 
HETATM   28  C17 UNL     1      23.220   0.486  52.886  1.00  0.00    -0.024 C 
HETATM   29  C18 UNL     1      24.640   0.271  52.544  1.00  0.00     0.051 C 
BRANCH  27  30
HETATM   30  C16 UNL     1      23.830  -0.969  54.667  1.00  0.00     0.305 C 
BRANCH  30  31
HETATM   31  N5  UNL     1      23.290  -1.653  55.834  1.00  0.00     0.082 N 
HETATM   32  H15 UNL     1      22.670  -0.964  56.299  1.00  0.00     0.313 HD
HETATM   33  H16 UNL     1      22.706  -2.456  55.541  1.00  0.00     0.313 HD
ENDBRANCH  30  31
ENDBRANCH  27  30
ENDBRANCH   4  21
TORSDOF 6
ENDMDL
MODEL 3
REMARK VINA RESULT:      -7.7      4.354      5.714
REMARK  6 active torsions:
REMARK  status: ('A' for Active; 'I' for Inactive)
REMARK    1  A    between atoms: O1_2  and  C2_3 
REMARK    2  A    between atoms: C5_6  and  N1_7 
REMARK       I    between atoms: N1_7  and  C6_8 
REMARK       I    between atoms: C6_8  and  N2_10 
REMARK    3  A    between atoms: N2_10  and  C7_11 
REMARK    4  A    between atoms: C10_14  and  C11_15 
REMARK    5  A    between atoms: C15_21  and  C16_22 
REMARK    6  A    between atoms: C16_22  and  N5_23 
ROOT
HETATM    1  C7  UNL     1      23.557   5.450  51.744  1.00  0.00     0.036 A 
HETATM    2  C8  UNL     1      23.006   4.675  50.747  1.00  0.00     0.030 A 
HETATM    3  C9  UNL     1      22.686   3.364  50.956  1.00  0.00     0.016 A 
HETATM    4  C10 UNL     1      22.858   2.680  52.118  1.00  0.00    -0.007 A 
HETATM    5  C19 UNL     1      23.414   3.472  53.107  1.00  0.00     0.016 A 
HETATM    6  C20 UNL     1      23.750   4.794  52.932  1.00  0.00     0.030 A 
ENDROOT
BRANCH   1   7
HETATM    7  N2  UNL     1      23.856   6.797  51.439  1.00  0.00    -0.309 N 
HETATM    8  C6  UNL     1      24.912   7.301  50.669  1.00  0.00     0.325 C 
HETATM    9  N1  UNL     1      25.114   8.659  50.431  1.00  0.00    -0.309 N 
HETATM   10  O2  UNL     1      25.722   6.518  50.160  1.00  0.00    -0.247 OA
HETATM   11  H6  UNL     1      24.397   9.299  50.886  1.00  0.00     0.170 HD
HETATM   12  H7  UNL     1      23.221   7.541  51.829  1.00  0.00     0.170 HD
BRANCH   9  13
HETATM   13  C5  UNL     1      26.129   9.288  49.681  1.00  0.00     0.036 A 
HETATM   14  C4  UNL     1      26.049   9.910  48.484  1.00  0.00     0.032 A 
HETATM   15  C3  UNL     1      27.087  10.507  47.805  1.00  0.00     0.039 A 
HETATM   16  C2  UNL     1      28.340  10.494  48.358  1.00  0.00     0.068 A 
HETATM   17  C22 UNL     1      28.486   9.880  49.570  1.00  0.00     0.039 A 
HETATM   18  C21 UNL     1      27.428   9.304  50.200  1.00  0.00     0.032 A 
BRANCH  16  19
HETATM   19  O1  UNL     1      29.389  11.094  47.679  1.00  0.00    -0.356 OA
HETATM   20  C1  UNL     1      30.716  10.812  48.103  1.00  0.00     0.210 C 
ENDBRANCH  16  19
ENDBRANCH   9  13
ENDBRANCH   1   7
BRANCH   4  21
HETATM   21  C11 UNL     1      22.521   1.344  52.558  1.00  0.00     0.074 C 
HETATM   22  N3  UNL     1      21.270   1.005  52.342  1.00  0.00    -0.241 NA
HETATM   23  C12 UNL     1      20.394  -0.087  52.536  1.00  0.00     0.233 C 
HETATM   24  N4  UNL     1      20.396  -0.966  53.495  1.00  0.00    -0.254 NA
HETATM   25  C13 UNL     1      21.215  -1.170  54.648  1.00  0.00     0.118 C 
HETATM   26  C14 UNL     1      22.512  -0.971  54.950  1.00  0.00     0.028 C 
HETATM   27  C15 UNL     1      23.584  -0.424  54.077  1.00  0.00    -0.021 C 
HETATM   28  C17 UNL     1      23.569   0.502  53.124  1.00  0.00    -0.024 C 
HETATM   29  C18 UNL     1      24.867   0.679  52.444  1.00  0.00     0.051 C 
BRANCH  27  30
HETATM   30  C16 UNL     1      24.872  -1.048  54.372  1.00  0.00     0.305 C 
BRANCH  30  31
HETATM   31  N5  UNL     1      25.006  -1.415  55.775  1.00  0.00     0.082 N 
HETATM   32  H15 UNL     1      25.711  -0.764  56.167  1.00  0.00     0.313 HD
HETATM   33  H16 UNL     1      24.114  -1.254  56.275  1.00  0.00     0.313 HD
ENDBRANCH  30  31
ENDBRANCH  27  30
ENDBRANCH   4  21
TORSDOF 6
ENDMDL
MODEL 4
REMARK VINA RESULT:      -7.7      6.536      9.091
REMARK  6 active torsions:
REMARK  status: ('A' for Active; 'I' for Inactive)
REMARK    1  A    between atoms: O1_2  and  C2_3 
REMARK    2  A    between atoms: C5_6  and  N1_7 
REMARK       I    between atoms: N1_7  and  C6_8 
REMARK       I    between atoms: C6_8  and  N2_10 
REMARK    3  A    between atoms: N2_10  and  C7_11 
REMARK    4  A    between atoms: C10_14  and  C11_15 
REMARK    5  A    between atoms: C15_21  and  C16_22 
REMARK    6  A    between atoms: C16_22  and  N5_23 
ROOT
HETATM    1  C7  UNL     1      26.811   5.594  48.909  1.00  0.00     0.036 A 
HETATM    2  C8  UNL     1      27.046   6.944  48.768  1.00  0.00     0.030 A 
HETATM    3  C9  UNL     1      28.240   7.416  48.304  1.00  0.00     0.016 A 
HETATM    4  C10 UNL     1      29.305   6.657  47.934  1.00  0.00    -0.007 A 
HETATM    5  C19 UNL     1      29.053   5.305  48.084  1.00  0.00     0.016 A 
HETATM    6  C20 UNL     1      27.864   4.794  48.549  1.00  0.00     0.030 A 
ENDROOT
BRANCH   1   7
HETATM    7  N2  UNL     1      25.546   5.194  49.397  1.00  0.00    -0.309 N 
HETATM    8  C6  UNL     1      25.217   4.040  50.119  1.00  0.00     0.325 C 
HETATM    9  N1  UNL     1      23.927   3.743  50.553  1.00  0.00    -0.309 N 
HETATM   10  O2  UNL     1      26.103   3.224  50.399  1.00  0.00    -0.247 OA
HETATM   11  H6  UNL     1      23.195   4.469  50.291  1.00  0.00     0.170 HD
HETATM   12  H7  UNL     1      24.725   5.827  49.207  1.00  0.00     0.170 HD
BRANCH   9  13
HETATM   13  C5  UNL     1      23.470   2.624  51.280  1.00  0.00     0.036 A 
HETATM   14  C4  UNL     1      23.833   2.195  52.508  1.00  0.00     0.032 A 
HETATM   15  C3  UNL     1      23.342   1.087  53.162  1.00  0.00     0.039 A 
HETATM   16  C2  UNL     1      22.390   0.317  52.546  1.00  0.00     0.068 A 
HETATM   17  C22 UNL     1      21.980   0.701  51.301  1.00  0.00     0.039 A 
HETATM   18  C21 UNL     1      22.498   1.804  50.698  1.00  0.00     0.032 A 
BRANCH  16  19
HETATM   19  O1  UNL     1      21.892  -0.799  53.200  1.00  0.00    -0.356 OA
HETATM   20  C1  UNL     1      21.590  -0.691  54.584  1.00  0.00     0.210 C 
ENDBRANCH  16  19
ENDBRANCH   9  13
ENDBRANCH   1   7
BRANCH   4  21
HETATM   21  C11 UNL     1      30.599   6.951  47.357  1.00  0.00     0.074 C 
HETATM   22  N3  UNL     1      30.543   7.571  46.199  1.00  0.00    -0.241 NA
HETATM   23  C12 UNL     1      31.404   8.089  45.205  1.00  0.00     0.233 C 
HETATM   24  N4  UNL     1      32.574   7.653  44.840  1.00  0.00    -0.254 NA
HETATM   25  C13 UNL     1      33.399   6.564  45.259  1.00  0.00     0.118 C 
HETATM   26  C14 UNL     1      33.623   5.923  46.422  1.00  0.00     0.028 C 
HETATM   27  C15 UNL     1      33.013   6.192  47.751  1.00  0.00    -0.021 C 
HETATM   28  C17 UNL     1      31.801   6.605  48.105  1.00  0.00    -0.024 C 
HETATM   29  C18 UNL     1      31.647   6.824  49.557  1.00  0.00     0.051 C 
BRANCH  27  30
HETATM   30  C16 UNL     1      33.964   5.930  48.829  1.00  0.00     0.305 C 
BRANCH  30  31
HETATM   31  N5  UNL     1      34.664   4.665  48.658  1.00  0.00     0.082 N 
HETATM   32  H15 UNL     1      33.939   3.980  48.375  1.00  0.00     0.313 HD
HETATM   33  H16 UNL     1      35.351   4.736  47.887  1.00  0.00     0.313 HD
ENDBRANCH  30  31
ENDBRANCH  27  30
ENDBRANCH   4  21
TORSDOF 6
ENDMDL
MODEL 5
REMARK VINA RESULT:      -7.4      7.709     11.877
REMARK  6 active torsions:
REMARK  status: ('A' for Active; 'I' for Inactive)
REMARK    1  A    between atoms: O1_2  and  C2_3 
REMARK    2  A    between atoms: C5_6  and  N1_7 
REMARK       I    between atoms: N1_7  and  C6_8 
REMARK       I    between atoms: C6_8  and  N2_10 
REMARK    3  A    between atoms: N2_10  and  C7_11 
REMARK    4  A    between atoms: C10_14  and  C11_15 
REMARK    5  A    between atoms: C15_21  and  C16_22 
REMARK    6  A    between atoms: C16_22  and  N5_23 
ROOT
HETATM    1  C7  UNL     1      19.977   0.109  52.457  1.00  0.00     0.036 A 
HETATM    2  C8  UNL     1      19.170   0.289  51.354  1.00  0.00     0.030 A 
HETATM    3  C9  UNL     1      17.932  -0.279  51.276  1.00  0.00     0.016 A 
HETATM    4  C10 UNL     1      17.353  -1.059  52.227  1.00  0.00    -0.007 A 
HETATM    5  C19 UNL     1      18.176  -1.230  53.325  1.00  0.00     0.016 A 
HETATM    6  C20 UNL     1      19.430  -0.675  53.439  1.00  0.00     0.030 A 
ENDROOT
BRANCH   1   7
HETATM    7  N2  UNL     1      21.245   0.735  52.453  1.00  0.00    -0.309 N 
HETATM    8  C6  UNL     1      22.490   0.178  52.771  1.00  0.00     0.325 C 
HETATM    9  N1  UNL     1      23.685   0.892  52.734  1.00  0.00    -0.309 N 
HETATM   10  O2  UNL     1      22.559  -1.010  53.104  1.00  0.00    -0.247 OA
HETATM   11  H6  UNL     1      23.584   1.910  52.443  1.00  0.00     0.170 HD
HETATM   12  H7  UNL     1      21.289   1.752  52.181  1.00  0.00     0.170 HD
BRANCH   9  13
HETATM   13  C5  UNL     1      24.993   0.451  53.029  1.00  0.00     0.036 A 
HETATM   14  C4  UNL     1      25.954   0.003  52.192  1.00  0.00     0.032 A 
HETATM   15  C3  UNL     1      27.217  -0.413  52.551  1.00  0.00     0.039 A 
HETATM   16  C2  UNL     1      27.577  -0.386  53.873  1.00  0.00     0.068 A 
HETATM   17  C22 UNL     1      26.647   0.059  54.769  1.00  0.00     0.039 A 
HETATM   18  C21 UNL     1      25.412   0.458  54.363  1.00  0.00     0.032 A 
BRANCH  16  19
HETATM   19  O1  UNL     1      28.847  -0.804  54.239  1.00  0.00    -0.356 OA
HETATM   20  C1  UNL     1      29.961  -0.278  53.530  1.00  0.00     0.210 C 
ENDBRANCH  16  19
ENDBRANCH   9  13
ENDBRANCH   1   7
BRANCH   4  21
HETATM   21  C11 UNL     1      16.052  -1.676  52.368  1.00  0.00     0.074 C 
HETATM   22  N3  UNL     1      16.093  -2.952  52.680  1.00  0.00    -0.241 NA
HETATM   23  C12 UNL     1      15.219  -4.033  52.934  1.00  0.00     0.233 C 
HETATM   24  N4  UNL     1      14.046  -4.264  52.419  1.00  0.00    -0.254 NA
HETATM   25  C13 UNL     1      13.230  -3.578  51.468  1.00  0.00     0.118 C 
HETATM   26  C14 UNL     1      13.022  -2.290  51.136  1.00  0.00     0.028 C 
HETATM   27  C15 UNL     1      13.646  -1.077  51.728  1.00  0.00    -0.021 C 
HETATM   28  C17 UNL     1      14.860  -0.850  52.217  1.00  0.00    -0.024 C 
HETATM   29  C18 UNL     1      15.029   0.499  52.790  1.00  0.00     0.051 C 
BRANCH  27  30
HETATM   30  C16 UNL     1      12.708   0.043  51.741  1.00  0.00     0.305 C 
BRANCH  30  31
HETATM   31  N5  UNL     1      11.449  -0.290  52.393  1.00  0.00     0.082 N 
HETATM   32  H15 UNL     1      10.706  -0.008  51.727  1.00  0.00     0.313 HD
HETATM   33  H16 UNL     1      11.377  -1.314  52.532  1.00  0.00     0.313 HD
ENDBRANCH  30  31
ENDBRANCH  27  30
ENDBRANCH   4  21
TORSDOF 6
ENDMDL
MODEL 6
REMARK VINA RESULT:      -7.4      6.442      9.452
REMARK  6 active torsions:
REMARK  status: ('A' for Active; 'I' for Inactive)
REMARK    1  A    between atoms: O1_2  and  C2_3 
REMARK    2  A    between atoms: C5_6  and  N1_7 
REMARK       I    between atoms: N1_7  and  C6_8 
REMARK       I    between atoms: C6_8  and  N2_10 
REMARK    3  A    between atoms: N2_10  and  C7_11 
REMARK    4  A    between atoms: C10_14  and  C11_15 
REMARK    5  A    between atoms: C15_21  and  C16_22 
REMARK    6  A    between atoms: C16_22  and  N5_23 
ROOT
HETATM    1  C7  UNL     1      27.570   5.711  48.360  1.00  0.00     0.036 A 
HETATM    2  C8  UNL     1      26.416   6.443  48.535  1.00  0.00     0.030 A 
HETATM    3  C9  UNL     1      25.299   5.892  49.092  1.00  0.00     0.016 A 
HETATM    4  C10 UNL     1      25.178   4.610  49.530  1.00  0.00    -0.007 A 
HETATM    5  C19 UNL     1      26.344   3.890  49.346  1.00  0.00     0.016 A 
HETATM    6  C20 UNL     1      27.488   4.411  48.787  1.00  0.00     0.030 A 
ENDROOT
BRANCH   1   7
HETATM    7  N2  UNL     1      28.680   6.363  47.776  1.00  0.00    -0.309 N 
HETATM    8  C6  UNL     1      30.016   6.352  48.197  1.00  0.00     0.325 C 
HETATM    9  N1  UNL     1      31.037   7.036  47.541  1.00  0.00    -0.309 N 
HETATM   10  O2  UNL     1      30.332   5.707  49.203  1.00  0.00    -0.247 OA
HETATM   11  H6  UNL     1      30.724   7.579  46.682  1.00  0.00     0.170 HD
HETATM   12  H7  UNL     1      28.510   6.939  46.911  1.00  0.00     0.170 HD
BRANCH   9  13
HETATM   13  C5  UNL     1      32.409   7.105  47.862  1.00  0.00     0.036 A 
HETATM   14  C4  UNL     1      33.134   8.158  48.298  1.00  0.00     0.032 A 
HETATM   15  C3  UNL     1      34.479   8.154  48.594  1.00  0.00     0.039 A 
HETATM   16  C2  UNL     1      35.191   6.992  48.446  1.00  0.00     0.068 A 
HETATM   17  C22 UNL     1      34.511   5.891  48.007  1.00  0.00     0.039 A 
HETATM   18  C21 UNL     1      33.182   5.947  47.728  1.00  0.00     0.032 A 
BRANCH  16  19
HETATM   19  O1  UNL     1      36.544   6.983  48.742  1.00  0.00    -0.356 OA
HETATM   20  C1  UNL     1      36.992   6.180  49.826  1.00  0.00     0.210 C 
ENDBRANCH  16  19
ENDBRANCH   9  13
ENDBRANCH   1   7
BRANCH   4  21
HETATM   21  C11 UNL     1      24.133   3.872  50.205  1.00  0.00     0.074 C 
HETATM   22  N3  UNL     1      24.176   3.954  51.516  1.00  0.00    -0.241 NA
HETATM   23  C12 UNL     1      23.481   3.486  52.653  1.00  0.00     0.233 C 
HETATM   24  N4  UNL     1      22.854   2.357  52.812  1.00  0.00    -0.254 NA
HETATM   25  C13 UNL     1      22.630   1.224  51.970  1.00  0.00     0.118 C 
HETATM   26  C14 UNL     1      22.460   1.029  50.649  1.00  0.00     0.028 C 
HETATM   27  C15 UNL     1      22.454   2.047  49.565  1.00  0.00    -0.021 C 
HETATM   28  C17 UNL     1      23.129   3.179  49.405  1.00  0.00    -0.024 C 
HETATM   29  C18 UNL     1      22.746   3.937  48.198  1.00  0.00     0.051 C 
BRANCH  27  30
HETATM   30  C16 UNL     1      21.521   1.678  48.502  1.00  0.00     0.305 C 
BRANCH  30  31
HETATM   31  N5  UNL     1      20.207   1.315  49.015  1.00  0.00     0.082 N 
HETATM   32  H15 UNL     1      19.970   2.042  49.715  1.00  0.00     0.313 HD
HETATM   33  H16 UNL     1      19.501   1.362  48.259  1.00  0.00     0.313 HD
ENDBRANCH  30  31
ENDBRANCH  27  30
ENDBRANCH   4  21
TORSDOF 6
ENDMDL
MODEL 7
REMARK VINA RESULT:      -7.4      6.466      9.762
REMARK  6 active torsions:
REMARK  status: ('A' for Active; 'I' for Inactive)
REMARK    1  A    between atoms: O1_2  and  C2_3 
REMARK    2  A    between atoms: C5_6  and  N1_7 
REMARK       I    between atoms: N1_7  and  C6_8 
REMARK       I    between atoms: C6_8  and  N2_10 
REMARK    3  A    between atoms: N2_10  and  C7_11 
REMARK    4  A    between atoms: C10_14  and  C11_15 
REMARK    5  A    between atoms: C15_21  and  C16_22 
REMARK    6  A    between atoms: C16_22  and  N5_23 
ROOT
HETATM    1  C7  UNL     1      26.389   5.312  48.991  1.00  0.00     0.036 A 
HETATM    2  C8  UNL     1      26.424   6.689  48.946  1.00  0.00     0.030 A 
HETATM    3  C9  UNL     1      27.551   7.362  48.572  1.00  0.00     0.016 A 
HETATM    4  C10 UNL     1      28.732   6.795  48.210  1.00  0.00    -0.007 A 
HETATM    5  C19 UNL     1      28.680   5.414  48.263  1.00  0.00     0.016 A 
HETATM    6  C20 UNL     1      27.564   4.702  48.635  1.00  0.00     0.030 A 
ENDROOT
BRANCH   1   7
HETATM    7  N2  UNL     1      25.179   4.698  49.389  1.00  0.00    -0.309 N 
HETATM    8  C6  UNL     1      25.001   3.602  50.243  1.00  0.00     0.325 C 
HETATM    9  N1  UNL     1      23.753   3.075  50.569  1.00  0.00    -0.309 N 
HETATM   10  O2  UNL     1      25.988   3.056  50.749  1.00  0.00    -0.247 OA
HETATM   11  H6  UNL     1      22.930   3.571  50.114  1.00  0.00     0.170 HD
HETATM   12  H7  UNL     1      24.280   5.094  49.009  1.00  0.00     0.170 HD
BRANCH   9  13
HETATM   13  C5  UNL     1      23.441   1.984  51.408  1.00  0.00     0.036 A 
HETATM   14  C4  UNL     1      24.117   1.505  52.476  1.00  0.00     0.032 A 
HETATM   15  C3  UNL     1      23.751   0.429  53.254  1.00  0.00     0.039 A 
HETATM   16  C2  UNL     1      22.600  -0.250  52.956  1.00  0.00     0.068 A 
HETATM   17  C22 UNL     1      21.871   0.189  51.886  1.00  0.00     0.039 A 
HETATM   18  C21 UNL     1      22.276   1.256  51.147  1.00  0.00     0.032 A 
BRANCH  16  19
HETATM   19  O1  UNL     1      22.227  -1.333  53.736  1.00  0.00    -0.356 OA
HETATM   20  C1  UNL     1      22.574  -1.321  55.115  1.00  0.00     0.210 C 
ENDBRANCH  16  19
ENDBRANCH   9  13
ENDBRANCH   1   7
BRANCH   4  21
HETATM   21  C11 UNL     1      29.989   7.316  47.718  1.00  0.00     0.074 C 
HETATM   22  N3  UNL     1      31.050   6.776  48.273  1.00  0.00    -0.241 NA
HETATM   23  C12 UNL     1      32.460   6.859  48.222  1.00  0.00     0.233 C 
HETATM   24  N4  UNL     1      33.202   7.898  47.973  1.00  0.00    -0.254 NA
HETATM   25  C13 UNL     1      32.918   9.267  47.675  1.00  0.00     0.118 C 
HETATM   26  C14 UNL     1      31.938   9.924  47.026  1.00  0.00     0.028 C 
HETATM   27  C15 UNL     1      30.738   9.354  46.359  1.00  0.00    -0.021 C 
HETATM   28  C17 UNL     1      29.971   8.309  46.650  1.00  0.00    -0.024 C 
HETATM   29  C18 UNL     1      28.913   8.050  45.653  1.00  0.00     0.051 C 
BRANCH  27  30
HETATM   30  C16 UNL     1      30.373  10.133  45.178  1.00  0.00     0.305 C 
BRANCH  30  31
HETATM   31  N5  UNL     1      30.304  11.562  45.451  1.00  0.00     0.082 N 
HETATM   32  H15 UNL     1      30.735  12.024  44.629  1.00  0.00     0.313 HD
HETATM   33  H16 UNL     1      29.317  11.869  45.506  1.00  0.00     0.313 HD
ENDBRANCH  30  31
ENDBRANCH  27  30
ENDBRANCH   4  21
TORSDOF 6
ENDMDL
MODEL 8
REMARK VINA RESULT:      -7.2      2.314      3.244
REMARK  6 active torsions:
REMARK  status: ('A' for Active; 'I' for Inactive)
REMARK    1  A    between atoms: O1_2  and  C2_3 
REMARK    2  A    between atoms: C5_6  and  N1_7 
REMARK       I    between atoms: N1_7  and  C6_8 
REMARK       I    between atoms: C6_8  and  N2_10 
REMARK    3  A    between atoms: N2_10  and  C7_11 
REMARK    4  A    between atoms: C10_14  and  C11_15 
REMARK    5  A    between atoms: C15_21  and  C16_22 
REMARK    6  A    between atoms: C16_22  and  N5_23 
ROOT
HETATM    1  C7  UNL     1      23.276   5.399  51.105  1.00  0.00     0.036 A 
HETATM    2  C8  UNL     1      23.555   4.406  50.190  1.00  0.00     0.030 A 
HETATM    3  C9  UNL     1      23.925   3.154  50.588  1.00  0.00     0.016 A 
HETATM    4  C10 UNL     1      24.061   2.736  51.874  1.00  0.00    -0.007 A 
HETATM    5  C19 UNL     1      23.779   3.744  52.777  1.00  0.00     0.016 A 
HETATM    6  C20 UNL     1      23.404   5.017  52.414  1.00  0.00     0.030 A 
ENDROOT
BRANCH   1   7
HETATM    7  N2  UNL     1      22.899   6.667  50.604  1.00  0.00    -0.309 N 
HETATM    8  C6  UNL     1      21.643   7.082  50.147  1.00  0.00     0.325 C 
HETATM    9  N1  UNL     1      21.381   8.365  49.671  1.00  0.00    -0.309 N 
HETATM   10  O2  UNL     1      20.697   6.287  50.157  1.00  0.00    -0.247 OA
HETATM   11  H6  UNL     1      22.220   9.019  49.678  1.00  0.00     0.170 HD
HETATM   12  H7  UNL     1      23.640   7.415  50.557  1.00  0.00     0.170 HD
BRANCH   9  13
HETATM   13  C5  UNL     1      20.171   8.904  49.186  1.00  0.00     0.036 A 
HETATM   14  C4  UNL     1      19.608   8.781  47.964  1.00  0.00     0.032 A 
HETATM   15  C3  UNL     1      18.416   9.337  47.557  1.00  0.00     0.039 A 
HETATM   16  C2  UNL     1      17.697  10.095  48.443  1.00  0.00     0.068 A 
HETATM   17  C22 UNL     1      18.214  10.256  49.698  1.00  0.00     0.039 A 
HETATM   18  C21 UNL     1      19.397   9.685  50.050  1.00  0.00     0.032 A 
BRANCH  16  19
HETATM   19  O1  UNL     1      16.496  10.657  48.038  1.00  0.00    -0.356 OA
HETATM   20  C1  UNL     1      15.724   9.969  47.063  1.00  0.00     0.210 C 
ENDBRANCH  16  19
ENDBRANCH   9  13
ENDBRANCH   1   7
BRANCH   4  21
HETATM   21  C11 UNL     1      24.359   1.462  52.491  1.00  0.00     0.074 C 
HETATM   22  N3  UNL     1      23.297   0.761  52.820  1.00  0.00    -0.241 NA
HETATM   23  C12 UNL     1      22.956  -0.474  53.416  1.00  0.00     0.233 C 
HETATM   24  N4  UNL     1      23.593  -1.128  54.344  1.00  0.00    -0.254 NA
HETATM   25  C13 UNL     1      24.796  -0.887  55.076  1.00  0.00     0.118 C 
HETATM   26  C14 UNL     1      25.974  -0.290  54.816  1.00  0.00     0.028 C 
HETATM   27  C15 UNL     1      26.413   0.360  53.552  1.00  0.00    -0.021 C 
HETATM   28  C17 UNL     1      25.752   1.056  52.634  1.00  0.00    -0.024 C 
HETATM   29  C18 UNL     1      26.579   1.453  51.477  1.00  0.00     0.051 C 
BRANCH  27  30
HETATM   30  C16 UNL     1      27.846   0.175  53.337  1.00  0.00     0.305 C 
BRANCH  30  31
HETATM   31  N5  UNL     1      28.361  -1.016  53.999  1.00  0.00     0.082 N 
HETATM   32  H15 UNL     1      28.880  -0.672  54.828  1.00  0.00     0.313 HD
HETATM   33  H16 UNL     1      27.579  -1.605  54.337  1.00  0.00     0.313 HD
ENDBRANCH  30  31
ENDBRANCH  27  30
ENDBRANCH   4  21
TORSDOF 6
ENDMDL
MODEL 9
REMARK VINA RESULT:      -6.9      4.817      6.687
REMARK  6 active torsions:
REMARK  status: ('A' for Active; 'I' for Inactive)
REMARK    1  A    between atoms: O1_2  and  C2_3 
REMARK    2  A    between atoms: C5_6  and  N1_7 
REMARK       I    between atoms: N1_7  and  C6_8 
REMARK       I    between atoms: C6_8  and  N2_10 
REMARK    3  A    between atoms: N2_10  and  C7_11 
REMARK    4  A    between atoms: C10_14  and  C11_15 
REMARK    5  A    between atoms: C15_21  and  C16_22 
REMARK    6  A    between atoms: C16_22  and  N5_23 
ROOT
HETATM    1  C7  UNL     1      24.093   5.659  51.382  1.00  0.00     0.036 A 
HETATM    2  C8  UNL     1      24.631   4.556  50.756  1.00  0.00     0.030 A 
HETATM    3  C9  UNL     1      23.937   3.386  50.651  1.00  0.00     0.016 A 
HETATM    4  C10 UNL     1      22.682   3.161  51.124  1.00  0.00    -0.007 A 
HETATM    5  C19 UNL     1      22.158   4.277  51.749  1.00  0.00     0.016 A 
HETATM    6  C20 UNL     1      22.829   5.472  51.875  1.00  0.00     0.030 A 
ENDROOT
BRANCH   1   7
HETATM    7  N2  UNL     1      24.883   6.830  51.444  1.00  0.00    -0.309 N 
HETATM    8  C6  UNL     1      25.637   7.425  50.425  1.00  0.00     0.325 C 
HETATM    9  N1  UNL     1      26.385   8.588  50.598  1.00  0.00    -0.309 N 
HETATM   10  O2  UNL     1      25.656   6.912  49.301  1.00  0.00    -0.247 OA
HETATM   11  H6  UNL     1      26.344   8.999  51.579  1.00  0.00     0.170 HD
HETATM   12  H7  UNL     1      24.931   7.341  52.364  1.00  0.00     0.170 HD
BRANCH   9  13
HETATM   13  C5  UNL     1      27.180   9.281  49.661  1.00  0.00     0.036 A 
HETATM   14  C4  UNL     1      28.500   9.158  49.401  1.00  0.00     0.032 A 
HETATM   15  C3  UNL     1      29.215   9.871  48.465  1.00  0.00     0.039 A 
HETATM   16  C2  UNL     1      28.568  10.807  47.702  1.00  0.00     0.068 A 
HETATM   17  C22 UNL     1      27.229  10.978  47.919  1.00  0.00     0.039 A 
HETATM   18  C21 UNL     1      26.568  10.247  48.856  1.00  0.00     0.032 A 
BRANCH  16  19
HETATM   19  O1  UNL     1      29.283  11.528  46.759  1.00  0.00    -0.356 OA
HETATM   20  C1  UNL     1      28.944  12.893  46.554  1.00  0.00     0.210 C 
ENDBRANCH  16  19
ENDBRANCH   9  13
ENDBRANCH   1   7
BRANCH   4  21
HETATM   21  C11 UNL     1      21.763   2.046  51.048  1.00  0.00     0.074 C 
HETATM   22  N3  UNL     1      20.909   2.119  50.052  1.00  0.00    -0.241 NA
HETATM   23  C12 UNL     1      19.836   1.391  49.490  1.00  0.00     0.233 C 
HETATM   24  N4  UNL     1      18.965   0.637  50.094  1.00  0.00    -0.254 NA
HETATM   25  C13 UNL     1      18.755   0.265  51.458  1.00  0.00     0.118 C 
HETATM   26  C14 UNL     1      19.545   0.052  52.526  1.00  0.00     0.028 C 
HETATM   27  C15 UNL     1      21.027   0.151  52.605  1.00  0.00    -0.021 C 
HETATM   28  C17 UNL     1      21.898   0.954  52.005  1.00  0.00    -0.024 C 
HETATM   29  C18 UNL     1      23.307   0.645  52.316  1.00  0.00     0.051 C 
BRANCH  27  30
HETATM   30  C16 UNL     1      21.570  -0.836  53.536  1.00  0.00     0.305 C 
BRANCH  30  31
HETATM   31  N5  UNL     1      20.875  -0.837  54.816  1.00  0.00     0.082 N 
HETATM   32  H15 UNL     1      19.995  -0.312  54.656  1.00  0.00     0.313 HD
HETATM   33  H16 UNL     1      20.621  -1.804  55.085  1.00  0.00     0.313 HD
ENDBRANCH  30  31
ENDBRANCH  27  30
ENDBRANCH   4  21
TORSDOF 6
ENDMDL
