MODEL 1
REMARK VINA RESULT:      -9.6      0.000      0.000
REMARK  4 active torsions:
REMARK  status: ('A' for Active; 'I' for Inactive)
REMARK       I    between atoms: C1_2  and  N1_3 
REMARK    1  A    between atoms: C1_2  and  C15_18 
REMARK    2  A    between atoms: N1_3  and  C2_4 
REMARK    3  A    between atoms: C5_7  and  C6_8 
REMARK    4  A    between atoms: C6_8  and  C7_10 
ROOT
HETATM    1  C2  UNL     1      26.175   2.957  51.213  1.00  0.00     0.034 A 
HETATM    2  C3  UNL     1      26.753   1.705  51.248  1.00  0.00     0.030 A 
HETATM    3  C4  UNL     1      26.342   0.650  52.031  1.00  0.00     0.018 A 
HETATM    4  C5  UNL     1      25.267   0.829  52.858  1.00  0.00     0.015 A 
HETATM    5  C13 UNL     1      24.681   2.058  52.837  1.00  0.00     0.018 A 
HETATM    6  C14 UNL     1      25.062   3.129  52.074  1.00  0.00     0.030 A 
ENDROOT
BRANCH   1   7
HETATM    7  N1  UNL     1      26.743   3.923  50.343  1.00  0.00    -0.327 N 
HETATM    8  C1  UNL     1      26.146   4.582  49.203  1.00  0.00     0.230 C 
HETATM    9  O1  UNL     1      25.045   4.031  49.276  1.00  0.00    -0.272 OA
HETATM   10  H1  UNL     1      27.729   4.052  50.737  1.00  0.00     0.169 HD
BRANCH   8  11
HETATM   11  C15 UNL     1      27.157   5.524  48.609  1.00  0.00     0.050 C 
HETATM   12  C16 UNL     1      28.399   5.777  48.261  1.00  0.00     0.066 A 
HETATM   13  C17 UNL     1      29.782   5.440  48.137  1.00  0.00     0.001 A 
HETATM   14  C18 UNL     1      29.784   6.636  47.618  1.00  0.00     0.001 A 
HETATM   15  C19 UNL     1      29.058   7.810  47.236  1.00  0.00     0.000 C 
HETATM   16  C20 UNL     1      27.813   7.602  47.505  1.00  0.00     0.005 C 
HETATM   17  C21 UNL     1      26.510   8.204  47.425  1.00  0.00     0.032 C 
HETATM   18  C22 UNL     1      26.095   7.680  48.577  1.00  0.00    -0.049 C 
HETATM   19  C23 UNL     1      26.020   6.370  48.514  1.00  0.00    -0.004 C 
ENDBRANCH   8  11
ENDBRANCH   1   7
BRANCH   4  20
HETATM   20  C6  UNL     1      24.729  -0.192  53.747  1.00  0.00     0.192 C 
HETATM   21  O2  UNL     1      25.523  -0.827  54.518  1.00  0.00    -0.287 OA
BRANCH  20  22
HETATM   22  C7  UNL     1      23.362  -0.631  53.912  1.00  0.00     0.015 A 
HETATM   23  C8  UNL     1      22.994  -1.376  55.012  1.00  0.00     0.015 A 
HETATM   24  C9  UNL     1      21.657  -1.777  55.112  1.00  0.00     0.001 A 
HETATM   25  C10 UNL     1      20.698  -1.466  54.177  1.00  0.00     0.000 A 
HETATM   26  C11 UNL     1      21.075  -0.734  53.101  1.00  0.00     0.001 A 
HETATM   27  C12 UNL     1      22.384  -0.323  52.968  1.00  0.00     0.015 A 
ENDBRANCH  20  22
ENDBRANCH   4  20
TORSDOF 4
ENDMDL
MODEL 2
REMARK VINA RESULT:      -9.5      5.524      9.605
REMARK  4 active torsions:
REMARK  status: ('A' for Active; 'I' for Inactive)
REMARK       I    between atoms: C1_2  and  N1_3 
REMARK    1  A    between atoms: C1_2  and  C15_18 
REMARK    2  A    between atoms: N1_3  and  C2_4 
REMARK    3  A    between atoms: C5_7  and  C6_8 
REMARK    4  A    between atoms: C6_8  and  C7_10 
ROOT
HETATM    1  C2  UNL     1      22.276  -0.213  53.050  1.00  0.00     0.034 A 
HETATM    2  C3  UNL     1      22.993  -0.771  54.088  1.00  0.00     0.030 A 
HETATM    3  C4  UNL     1      24.316  -0.523  54.378  1.00  0.00     0.018 A 
HETATM    4  C5  UNL     1      25.007   0.350  53.583  1.00  0.00     0.015 A 
HETATM    5  C13 UNL     1      24.317   0.913  52.553  1.00  0.00     0.018 A 
HETATM    6  C14 UNL     1      23.005   0.690  52.235  1.00  0.00     0.030 A 
ENDROOT
BRANCH   1   7
HETATM    7  N1  UNL     1      20.917  -0.593  52.905  1.00  0.00    -0.327 N 
HETATM    8  C1  UNL     1      19.724   0.190  53.133  1.00  0.00     0.230 C 
HETATM    9  O1  UNL     1      20.296   1.231  53.469  1.00  0.00    -0.272 OA
HETATM   10  H1  UNL     1      20.986  -1.610  52.581  1.00  0.00     0.169 HD
BRANCH   8  11
HETATM   11  C15 UNL     1      18.523  -0.666  52.840  1.00  0.00     0.050 C 
HETATM   12  C16 UNL     1      17.819  -1.748  53.086  1.00  0.00     0.066 A 
HETATM   13  C17 UNL     1      17.564  -2.974  53.774  1.00  0.00     0.001 A 
HETATM   14  C18 UNL     1      16.532  -2.932  52.978  1.00  0.00     0.001 A 
HETATM   15  C19 UNL     1      15.794  -2.248  51.960  1.00  0.00     0.000 C 
HETATM   16  C20 UNL     1      16.411  -1.141  51.709  1.00  0.00     0.005 C 
HETATM   17  C21 UNL     1      16.345   0.047  50.903  1.00  0.00     0.032 C 
HETATM   18  C22 UNL     1      17.664   0.120  50.736  1.00  0.00    -0.049 C 
HETATM   19  C23 UNL     1      18.284   0.347  51.873  1.00  0.00    -0.004 C 
ENDBRANCH   8  11
ENDBRANCH   1   7
BRANCH   4  20
HETATM   20  C6  UNL     1      26.410   0.698  53.763  1.00  0.00     0.192 C 
HETATM   21  O2  UNL     1      26.717   1.884  54.116  1.00  0.00    -0.287 OA
BRANCH  20  22
HETATM   22  C7  UNL     1      27.585  -0.129  53.600  1.00  0.00     0.015 A 
HETATM   23  C8  UNL     1      27.480  -1.397  53.069  1.00  0.00     0.015 A 
HETATM   24  C9  UNL     1      28.652  -2.151  52.941  1.00  0.00     0.001 A 
HETATM   25  C10 UNL     1      29.895  -1.694  53.314  1.00  0.00     0.000 A 
HETATM   26  C11 UNL     1      29.981  -0.446  53.835  1.00  0.00     0.001 A 
HETATM   27  C12 UNL     1      28.847   0.325  53.977  1.00  0.00     0.015 A 
ENDBRANCH  20  22
ENDBRANCH   4  20
TORSDOF 4
ENDMDL
MODEL 3
REMARK VINA RESULT:      -9.2      2.024      9.572
REMARK  4 active torsions:
REMARK  status: ('A' for Active; 'I' for Inactive)
REMARK       I    between atoms: C1_2  and  N1_3 
REMARK    1  A    between atoms: C1_2  and  C15_18 
REMARK    2  A    between atoms: N1_3  and  C2_4 
REMARK    3  A    between atoms: C5_7  and  C6_8 
REMARK    4  A    between atoms: C6_8  and  C7_10 
ROOT
HETATM    1  C2  UNL     1      25.630   4.258  50.063  1.00  0.00     0.034 A 
HETATM    2  C3  UNL     1      26.772   3.918  49.368  1.00  0.00     0.030 A 
HETATM    3  C4  UNL     1      27.572   4.786  48.659  1.00  0.00     0.018 A 
HETATM    4  C5  UNL     1      27.229   6.109  48.622  1.00  0.00     0.015 A 
HETATM    5  C13 UNL     1      26.105   6.466  49.303  1.00  0.00     0.018 A 
HETATM    6  C14 UNL     1      25.287   5.632  50.017  1.00  0.00     0.030 A 
ENDROOT
BRANCH   1   7
HETATM    7  N1  UNL     1      24.931   3.221  50.733  1.00  0.00    -0.327 N 
HETATM    8  C1  UNL     1      23.716   2.542  50.340  1.00  0.00     0.230 C 
HETATM    9  O1  UNL     1      23.541   3.157  49.285  1.00  0.00    -0.272 OA
HETATM   10  H1  UNL     1      25.524   3.057  51.608  1.00  0.00     0.169 HD
BRANCH   8  11
HETATM   11  C15 UNL     1      23.377   1.518  51.388  1.00  0.00     0.050 C 
HETATM   12  C16 UNL     1      23.743   0.798  52.425  1.00  0.00     0.066 A 
HETATM   13  C17 UNL     1      24.686   0.364  53.406  1.00  0.00     0.001 A 
HETATM   14  C18 UNL     1      23.646  -0.344  53.750  1.00  0.00     0.001 A 
HETATM   15  C19 UNL     1      22.276  -0.700  53.530  1.00  0.00     0.000 C 
HETATM   16  C20 UNL     1      21.840   0.018  52.550  1.00  0.00     0.005 C 
HETATM   17  C21 UNL     1      20.667   0.286  51.763  1.00  0.00     0.032 C 
HETATM   18  C22 UNL     1      21.352   0.465  50.635  1.00  0.00    -0.049 C 
HETATM   19  C23 UNL     1      22.132   1.520  50.704  1.00  0.00    -0.004 C 
ENDBRANCH   8  11
ENDBRANCH   1   7
BRANCH   4  20
HETATM   20  C6  UNL     1      27.973   7.136  47.905  1.00  0.00     0.192 C 
HETATM   21  O2  UNL     1      27.394   7.788  46.974  1.00  0.00    -0.287 OA
BRANCH  20  22
HETATM   22  C7  UNL     1      29.342   7.565  48.084  1.00  0.00     0.015 A 
HETATM   23  C8  UNL     1      30.358   6.986  47.355  1.00  0.00     0.015 A 
HETATM   24  C9  UNL     1      31.662   7.441  47.578  1.00  0.00     0.001 A 
HETATM   25  C10 UNL     1      31.980   8.430  48.479  1.00  0.00     0.000 A 
HETATM   26  C11 UNL     1      30.970   8.989  49.189  1.00  0.00     0.001 A 
HETATM   27  C12 UNL     1      29.672   8.565  48.997  1.00  0.00     0.015 A 
ENDBRANCH  20  22
ENDBRANCH   4  20
TORSDOF 4
ENDMDL
MODEL 4
REMARK VINA RESULT:      -9.2      4.794      6.895
REMARK  4 active torsions:
REMARK  status: ('A' for Active; 'I' for Inactive)
REMARK       I    between atoms: C1_2  and  N1_3 
REMARK    1  A    between atoms: C1_2  and  C15_18 
REMARK    2  A    between atoms: N1_3  and  C2_4 
REMARK    3  A    between atoms: C5_7  and  C6_8 
REMARK    4  A    between atoms: C6_8  and  C7_10 
ROOT
HETATM    1  C2  UNL     1      22.540  -0.335  52.948  1.00  0.00     0.034 A 
HETATM    2  C3  UNL     1      21.865  -0.934  53.992  1.00  0.00     0.030 A 
HETATM    3  C4  UNL     1      20.500  -1.096  54.081  1.00  0.00     0.018 A 
HETATM    4  C5  UNL     1      19.718  -0.631  53.059  1.00  0.00     0.015 A 
HETATM    5  C13 UNL     1      20.366  -0.037  52.018  1.00  0.00     0.018 A 
HETATM    6  C14 UNL     1      21.717   0.141  51.897  1.00  0.00     0.030 A 
ENDROOT
BRANCH   1   7
HETATM    7  N1  UNL     1      23.953  -0.255  53.035  1.00  0.00    -0.327 N 
HETATM    8  C1  UNL     1      24.805   0.910  52.948  1.00  0.00     0.230 C 
HETATM    9  O1  UNL     1      23.904   1.737  52.787  1.00  0.00    -0.272 OA
HETATM   10  H1  UNL     1      24.243  -1.273  53.184  1.00  0.00     0.169 HD
BRANCH   8  11
HETATM   11  C15 UNL     1      26.236   0.472  53.100  1.00  0.00     0.050 C 
HETATM   12  C16 UNL     1      27.128  -0.493  53.106  1.00  0.00     0.066 A 
HETATM   13  C17 UNL     1      27.529  -1.859  52.988  1.00  0.00     0.001 A 
HETATM   14  C18 UNL     1      28.682  -1.295  53.219  1.00  0.00     0.001 A 
HETATM   15  C19 UNL     1      29.439  -0.104  53.461  1.00  0.00     0.000 C 
HETATM   16  C20 UNL     1      28.621   0.894  53.414  1.00  0.00     0.005 C 
HETATM   17  C21 UNL     1      28.558   2.326  53.520  1.00  0.00     0.032 C 
HETATM   18  C22 UNL     1      27.374   2.321  54.131  1.00  0.00    -0.049 C 
HETATM   19  C23 UNL     1      26.427   1.858  53.348  1.00  0.00    -0.004 C 
ENDBRANCH   8  11
ENDBRANCH   1   7
BRANCH   4  20
HETATM   20  C6  UNL     1      18.265  -0.723  53.024  1.00  0.00     0.192 C 
HETATM   21  O2  UNL     1      17.575   0.348  52.954  1.00  0.00    -0.287 OA
BRANCH  20  22
HETATM   22  C7  UNL     1      17.423  -1.898  53.056  1.00  0.00     0.015 A 
HETATM   23  C8  UNL     1      17.843  -3.043  53.698  1.00  0.00     0.015 A 
HETATM   24  C9  UNL     1      16.985  -4.148  53.689  1.00  0.00     0.001 A 
HETATM   25  C10 UNL     1      15.753  -4.150  53.078  1.00  0.00     0.000 A 
HETATM   26  C11 UNL     1      15.355  -3.018  52.450  1.00  0.00     0.001 A 
HETATM   27  C12 UNL     1      16.174  -1.909  52.437  1.00  0.00     0.015 A 
ENDBRANCH  20  22
ENDBRANCH   4  20
TORSDOF 4
ENDMDL
MODEL 5
REMARK VINA RESULT:      -9.0      1.875      9.826
REMARK  4 active torsions:
REMARK  status: ('A' for Active; 'I' for Inactive)
REMARK       I    between atoms: C1_2  and  N1_3 
REMARK    1  A    between atoms: C1_2  and  C15_18 
REMARK    2  A    between atoms: N1_3  and  C2_4 
REMARK    3  A    between atoms: C5_7  and  C6_8 
REMARK    4  A    between atoms: C6_8  and  C7_10 
ROOT
HETATM    1  C2  UNL     1      26.056   4.276  49.881  1.00  0.00     0.034 A 
HETATM    2  C3  UNL     1      25.536   5.549  49.984  1.00  0.00     0.030 A 
HETATM    3  C4  UNL     1      26.022   6.671  49.350  1.00  0.00     0.018 A 
HETATM    4  C5  UNL     1      27.118   6.542  48.541  1.00  0.00     0.015 A 
HETATM    5  C13 UNL     1      27.646   5.292  48.426  1.00  0.00     0.018 A 
HETATM    6  C14 UNL     1      27.190   4.157  49.040  1.00  0.00     0.030 A 
ENDROOT
BRANCH   1   7
HETATM    7  N1  UNL     1      25.420   3.241  50.615  1.00  0.00    -0.327 N 
HETATM    8  C1  UNL     1      25.998   2.302  51.550  1.00  0.00     0.230 C 
HETATM    9  O1  UNL     1      27.158   2.716  51.474  1.00  0.00    -0.272 OA
HETATM   10  H1  UNL     1      24.398   3.323  50.310  1.00  0.00     0.169 HD
BRANCH   8  11
HETATM   11  C15 UNL     1      24.908   1.402  52.064  1.00  0.00     0.050 C 
HETATM   12  C16 UNL     1      23.650   1.024  52.041  1.00  0.00     0.066 A 
HETATM   13  C17 UNL     1      22.304   1.102  51.567  1.00  0.00     0.001 A 
HETATM   14  C18 UNL     1      22.195   0.128  52.427  1.00  0.00     0.001 A 
HETATM   15  C19 UNL     1      22.812  -0.738  53.387  1.00  0.00     0.000 C 
HETATM   16  C20 UNL     1      24.070  -0.450  53.418  1.00  0.00     0.005 C 
HETATM   17  C21 UNL     1      25.313  -0.821  54.038  1.00  0.00     0.032 C 
HETATM   18  C22 UNL     1      25.769   0.430  54.087  1.00  0.00    -0.049 C 
HETATM   19  C23 UNL     1      25.964   0.921  52.883  1.00  0.00    -0.004 C 
ENDBRANCH   8  11
ENDBRANCH   1   7
BRANCH   4  20
HETATM   20  C6  UNL     1      27.745   7.640  47.819  1.00  0.00     0.192 C 
HETATM   21  O2  UNL     1      27.083   8.250  46.915  1.00  0.00    -0.287 OA
BRANCH  20  22
HETATM   22  C7  UNL     1      29.075   8.189  47.966  1.00  0.00     0.015 A 
HETATM   23  C8  UNL     1      30.045   7.936  47.019  1.00  0.00     0.015 A 
HETATM   24  C9  UNL     1      31.314   8.490  47.221  1.00  0.00     0.001 A 
HETATM   25  C10 UNL     1      31.640   9.269  48.307  1.00  0.00     0.000 A 
HETATM   26  C11 UNL     1      30.677   9.507  49.229  1.00  0.00     0.001 A 
HETATM   27  C12 UNL     1      29.415   8.977  49.064  1.00  0.00     0.015 A 
ENDBRANCH  20  22
ENDBRANCH   4  20
TORSDOF 4
ENDMDL
MODEL 6
REMARK VINA RESULT:      -8.8      1.861      9.550
REMARK  4 active torsions:
REMARK  status: ('A' for Active; 'I' for Inactive)
REMARK       I    between atoms: C1_2  and  N1_3 
REMARK    1  A    between atoms: C1_2  and  C15_18 
REMARK    2  A    between atoms: N1_3  and  C2_4 
REMARK    3  A    between atoms: C5_7  and  C6_8 
REMARK    4  A    between atoms: C6_8  and  C7_10 
ROOT
HETATM    1  C2  UNL     1      25.162   3.501  50.667  1.00  0.00     0.034 A 
HETATM    2  C3  UNL     1      24.724   4.806  50.575  1.00  0.00     0.030 A 
HETATM    3  C4  UNL     1      25.323   5.806  49.842  1.00  0.00     0.018 A 
HETATM    4  C5  UNL     1      26.454   5.510  49.134  1.00  0.00     0.015 A 
HETATM    5  C13 UNL     1      26.903   4.226  49.211  1.00  0.00     0.018 A 
HETATM    6  C14 UNL     1      26.335   3.208  49.927  1.00  0.00     0.030 A 
ENDROOT
BRANCH   1   7
HETATM    7  N1  UNL     1      24.414   2.608  51.478  1.00  0.00    -0.327 N 
HETATM    8  C1  UNL     1      23.284   1.782  51.116  1.00  0.00     0.230 C 
HETATM    9  O1  UNL     1      23.230   2.120  49.931  1.00  0.00    -0.272 OA
HETATM   10  H1  UNL     1      24.891   2.692  52.431  1.00  0.00     0.169 HD
BRANCH   8  11
HETATM   11  C15 UNL     1      22.843   1.013  52.330  1.00  0.00     0.050 C 
HETATM   12  C16 UNL     1      21.888   0.669  53.165  1.00  0.00     0.066 A 
HETATM   13  C17 UNL     1      20.542   0.698  53.644  1.00  0.00     0.001 A 
HETATM   14  C18 UNL     1      21.084  -0.109  54.514  1.00  0.00     0.001 A 
HETATM   15  C19 UNL     1      22.240  -0.810  54.984  1.00  0.00     0.000 C 
HETATM   16  C20 UNL     1      23.208  -0.554  54.169  1.00  0.00     0.005 C 
HETATM   17  C21 UNL     1      24.593  -0.843  53.911  1.00  0.00     0.032 C 
HETATM   18  C22 UNL     1      24.864   0.384  53.471  1.00  0.00    -0.049 C 
HETATM   19  C23 UNL     1      24.217   0.654  52.359  1.00  0.00    -0.004 C 
ENDBRANCH   8  11
ENDBRANCH   1   7
BRANCH   4  20
HETATM   20  C6  UNL     1      27.198   6.468  48.326  1.00  0.00     0.192 C 
HETATM   21  O2  UNL     1      26.559   7.298  47.599  1.00  0.00    -0.287 OA
BRANCH  20  22
HETATM   22  C7  UNL     1      28.628   6.645  48.205  1.00  0.00     0.015 A 
HETATM   23  C8  UNL     1      29.186   7.903  48.282  1.00  0.00     0.015 A 
HETATM   24  C9  UNL     1      30.575   8.010  48.151  1.00  0.00     0.001 A 
HETATM   25  C10 UNL     1      31.406   6.932  47.953  1.00  0.00     0.000 A 
HETATM   26  C11 UNL     1      30.842   5.702  47.879  1.00  0.00     0.001 A 
HETATM   27  C12 UNL     1      29.477   5.558  48.002  1.00  0.00     0.015 A 
ENDBRANCH  20  22
ENDBRANCH   4  20
TORSDOF 4
ENDMDL
MODEL 7
REMARK VINA RESULT:      -8.5      4.754      6.777
REMARK  4 active torsions:
REMARK  status: ('A' for Active; 'I' for Inactive)
REMARK       I    between atoms: C1_2  and  N1_3 
REMARK    1  A    between atoms: C1_2  and  C15_18 
REMARK    2  A    between atoms: N1_3  and  C2_4 
REMARK    3  A    between atoms: C5_7  and  C6_8 
REMARK    4  A    between atoms: C6_8  and  C7_10 
ROOT
HETATM    1  C2  UNL     1      22.588   0.839  52.336  1.00  0.00     0.034 A 
HETATM    2  C3  UNL     1      21.965   0.169  51.304  1.00  0.00     0.030 A 
HETATM    3  C4  UNL     1      20.632   0.262  50.972  1.00  0.00     0.018 A 
HETATM    4  C5  UNL     1      19.829   1.084  51.714  1.00  0.00     0.015 A 
HETATM    5  C13 UNL     1      20.426   1.756  52.738  1.00  0.00     0.018 A 
HETATM    6  C14 UNL     1      21.745   1.687  53.097  1.00  0.00     0.030 A 
ENDROOT
BRANCH   1   7
HETATM    7  N1  UNL     1      23.975   0.612  52.530  1.00  0.00    -0.327 N 
HETATM    8  C1  UNL     1      25.100   1.311  51.950  1.00  0.00     0.230 C 
HETATM    9  O1  UNL     1      24.444   2.115  51.283  1.00  0.00    -0.272 OA
HETATM   10  H1  UNL     1      23.992  -0.208  53.216  1.00  0.00     0.169 HD
BRANCH   8  11
HETATM   11  C15 UNL     1      26.369   0.694  52.469  1.00  0.00     0.050 C 
HETATM   12  C16 UNL     1      27.097  -0.379  52.689  1.00  0.00     0.066 A 
HETATM   13  C17 UNL     1      27.337  -1.787  52.650  1.00  0.00     0.001 A 
HETATM   14  C18 UNL     1      28.448  -1.374  53.194  1.00  0.00     0.001 A 
HETATM   15  C19 UNL     1      29.258  -0.288  53.659  1.00  0.00     0.000 C 
HETATM   16  C20 UNL     1      28.617   0.806  53.420  1.00  0.00     0.005 C 
HETATM   17  C21 UNL     1      28.710   2.236  53.539  1.00  0.00     0.032 C 
HETATM   18  C22 UNL     1      27.416   2.391  53.811  1.00  0.00    -0.049 C 
HETATM   19  C23 UNL     1      26.662   2.045  52.792  1.00  0.00    -0.004 C 
ENDBRANCH   8  11
ENDBRANCH   1   7
BRANCH   4  20
HETATM   20  C6  UNL     1      18.403   1.272  51.486  1.00  0.00     0.192 C 
HETATM   21  O2  UNL     1      17.950   2.452  51.315  1.00  0.00    -0.287 OA
BRANCH  20  22
HETATM   22  C7  UNL     1      17.351   0.282  51.415  1.00  0.00     0.015 A 
HETATM   23  C8  UNL     1      17.163  -0.615  52.445  1.00  0.00     0.015 A 
HETATM   24  C9  UNL     1      16.132  -1.551  52.315  1.00  0.00     0.001 A 
HETATM   25  C10 UNL     1      15.301  -1.622  51.222  1.00  0.00     0.000 A 
HETATM   26  C11 UNL     1      15.498  -0.734  50.218  1.00  0.00     0.001 A 
HETATM   27  C12 UNL     1      16.506   0.203  50.310  1.00  0.00     0.015 A 
ENDBRANCH  20  22
ENDBRANCH   4  20
TORSDOF 4
ENDMDL
MODEL 8
REMARK VINA RESULT:      -8.5      1.970      2.498
REMARK  4 active torsions:
REMARK  status: ('A' for Active; 'I' for Inactive)
REMARK       I    between atoms: C1_2  and  N1_3 
REMARK    1  A    between atoms: C1_2  and  C15_18 
REMARK    2  A    between atoms: N1_3  and  C2_4 
REMARK    3  A    between atoms: C5_7  and  C6_8 
REMARK    4  A    between atoms: C6_8  and  C7_10 
ROOT
HETATM    1  C2  UNL     1      24.717   4.067  49.956  1.00  0.00     0.034 A 
HETATM    2  C3  UNL     1      24.542   4.255  51.312  1.00  0.00     0.030 A 
HETATM    3  C4  UNL     1      23.642   3.583  52.108  1.00  0.00     0.018 A 
HETATM    4  C5  UNL     1      22.835   2.640  51.532  1.00  0.00     0.015 A 
HETATM    5  C13 UNL     1      22.993   2.439  50.194  1.00  0.00     0.018 A 
HETATM    6  C14 UNL     1      23.876   3.087  49.373  1.00  0.00     0.030 A 
ENDROOT
BRANCH   1   7
HETATM    7  N1  UNL     1      25.695   4.858  49.300  1.00  0.00    -0.327 N 
HETATM    8  C1  UNL     1      25.557   6.173  48.714  1.00  0.00     0.230 C 
HETATM    9  O1  UNL     1      24.363   6.328  48.985  1.00  0.00    -0.272 OA
HETATM   10  H1  UNL     1      26.570   4.245  49.345  1.00  0.00     0.169 HD
BRANCH   8  11
HETATM   11  C15 UNL     1      26.884   6.584  48.139  1.00  0.00     0.050 C 
HETATM   12  C16 UNL     1      28.179   6.390  48.033  1.00  0.00     0.066 A 
HETATM   13  C17 UNL     1      29.392   5.694  48.328  1.00  0.00     0.001 A 
HETATM   14  C18 UNL     1      29.840   6.616  47.522  1.00  0.00     0.001 A 
HETATM   15  C19 UNL     1      29.577   7.746  46.682  1.00  0.00     0.000 C 
HETATM   16  C20 UNL     1      28.304   7.957  46.701  1.00  0.00     0.005 C 
HETATM   17  C21 UNL     1      27.277   8.808  46.163  1.00  0.00     0.032 C 
HETATM   18  C22 UNL     1      26.560   8.808  47.285  1.00  0.00    -0.049 C 
HETATM   19  C23 UNL     1      26.092   7.611  47.560  1.00  0.00    -0.004 C 
ENDBRANCH   8  11
ENDBRANCH   1   7
BRANCH   4  20
HETATM   20  C6  UNL     1      21.833   1.863  52.247  1.00  0.00     0.192 C 
HETATM   21  O2  UNL     1      20.600   2.158  52.108  1.00  0.00    -0.287 OA
BRANCH  20  22
HETATM   22  C7  UNL     1      22.013   0.742  53.143  1.00  0.00     0.015 A 
HETATM   23  C8  UNL     1      23.271   0.230  53.378  1.00  0.00     0.015 A 
HETATM   24  C9  UNL     1      23.380  -0.859  54.251  1.00  0.00     0.001 A 
HETATM   25  C10 UNL     1      22.305  -1.439  54.881  1.00  0.00     0.000 A 
HETATM   26  C11 UNL     1      21.075  -0.925  54.639  1.00  0.00     0.001 A 
HETATM   27  C12 UNL     1      20.929   0.147  53.785  1.00  0.00     0.015 A 
ENDBRANCH  20  22
ENDBRANCH   4  20
TORSDOF 4
ENDMDL
MODEL 9
REMARK VINA RESULT:      -8.4      4.099      8.094
REMARK  4 active torsions:
REMARK  status: ('A' for Active; 'I' for Inactive)
REMARK       I    between atoms: C1_2  and  N1_3 
REMARK    1  A    between atoms: C1_2  and  C15_18 
REMARK    2  A    between atoms: N1_3  and  C2_4 
REMARK    3  A    between atoms: C5_7  and  C6_8 
REMARK    4  A    between atoms: C6_8  and  C7_10 
ROOT
HETATM    1  C2  UNL     1      24.441   2.335  51.769  1.00  0.00     0.034 A 
HETATM    2  C3  UNL     1      24.145   3.402  52.592  1.00  0.00     0.030 A 
HETATM    3  C4  UNL     1      23.197   4.370  52.346  1.00  0.00     0.018 A 
HETATM    4  C5  UNL     1      22.468   4.293  51.191  1.00  0.00     0.015 A 
HETATM    5  C13 UNL     1      22.745   3.246  50.365  1.00  0.00     0.018 A 
HETATM    6  C14 UNL     1      23.678   2.268  50.576  1.00  0.00     0.030 A 
ENDROOT
BRANCH   1   7
HETATM    7  N1  UNL     1      25.457   1.439  52.189  1.00  0.00    -0.327 N 
HETATM    8  C1  UNL     1      25.353   0.289  53.059  1.00  0.00     0.230 C 
HETATM    9  O1  UNL     1      24.141   0.379  53.274  1.00  0.00    -0.272 OA
HETATM   10  H1  UNL     1      26.330   1.818  51.700  1.00  0.00     0.169 HD
BRANCH   8  11
HETATM   11  C15 UNL     1      26.714  -0.335  53.197  1.00  0.00     0.050 C 
HETATM   12  C16 UNL     1      27.502  -1.375  53.041  1.00  0.00     0.066 A 
HETATM   13  C17 UNL     1      27.773  -2.721  52.644  1.00  0.00     0.001 A 
HETATM   14  C18 UNL     1      28.952  -2.358  53.065  1.00  0.00     0.001 A 
HETATM   15  C19 UNL     1      29.801  -1.345  53.615  1.00  0.00     0.000 C 
HETATM   16  C20 UNL     1      29.094  -0.272  53.744  1.00  0.00     0.005 C 
HETATM   17  C21 UNL     1      29.165   1.101  54.165  1.00  0.00     0.032 C 
HETATM   18  C22 UNL     1      27.939   1.102  54.685  1.00  0.00    -0.049 C 
HETATM   19  C23 UNL     1      27.021   0.932  53.761  1.00  0.00    -0.004 C 
ENDBRANCH   8  11
ENDBRANCH   1   7
BRANCH   4  20
HETATM   20  C6  UNL     1      21.444   5.250  50.796  1.00  0.00     0.192 C 
HETATM   21  O2  UNL     1      20.215   4.936  50.930  1.00  0.00    -0.287 OA
BRANCH  20  22
HETATM   22  C7  UNL     1      21.597   6.577  50.243  1.00  0.00     0.015 A 
HETATM   23  C8  UNL     1      20.490   7.343  49.942  1.00  0.00     0.015 A 
HETATM   24  C9  UNL     1      20.704   8.616  49.404  1.00  0.00     0.001 A 
HETATM   25  C10 UNL     1      21.952   9.141  49.163  1.00  0.00     0.000 A 
HETATM   26  C11 UNL     1      23.030   8.376  49.463  1.00  0.00     0.001 A 
HETATM   27  C12 UNL     1      22.858   7.115  49.994  1.00  0.00     0.015 A 
ENDBRANCH  20  22
ENDBRANCH   4  20
TORSDOF 4
ENDMDL
