MODEL 1
REMARK VINA RESULT:      -6.9      0.000      0.000
REMARK  11 active torsions:
REMARK  status: ('A' for Active; 'I' for Inactive)
REMARK    1  A    between atoms: C2_2  and  C3_3 
REMARK    2  A    between atoms: C14_18  and  O1_19 
REMARK    3  A    between atoms: O1_19  and  C15_20 
REMARK    4  A    between atoms: C15_20  and  C16_21 
REMARK    5  A    between atoms: C16_21  and  N3_22 
REMARK    6  A    between atoms: N3_22  and  C17_23 
REMARK    7  A    between atoms: N3_22  and  C19_26 
REMARK    8  A    between atoms: C17_23  and  C18_24 
REMARK    9  A    between atoms: C18_24  and  O2_25 
REMARK   10  A    between atoms: C19_26  and  C20_27 
REMARK   11  A    between atoms: C20_27  and  O3_28 
ROOT
HETATM    1  C3  UNL     1      22.421   1.861  52.299  1.00  0.00     0.081 C 
HETATM    2  C4  UNL     1      21.774   1.116  53.409  1.00  0.00     0.102 C 
HETATM    3  N1  UNL     1      21.914   0.080  54.202  1.00  0.00    -0.257 NA
HETATM    4  C5  UNL     1      22.999  -0.867  54.239  1.00  0.00     0.232 C 
HETATM    5  N2  UNL     1      24.177  -0.929  53.719  1.00  0.00    -0.246 NA
HETATM    6  C6  UNL     1      24.910  -0.057  52.866  1.00  0.00     0.044 C 
HETATM    7  C7  UNL     1      24.841   1.211  52.405  1.00  0.00    -0.022 C 
HETATM    8  C8  UNL     1      25.775   1.908  51.486  1.00  0.00     0.068 C 
HETATM    9  C9  UNL     1      26.947   2.334  52.323  1.00  0.00     0.005 C 
HETATM   10  C10 UNL     1      27.823   1.609  52.999  1.00  0.00     0.068 C 
HETATM   11 CL1  UNL     1      29.006   2.611  53.819  1.00  0.00    -0.081 Cl
HETATM   12  C11 UNL     1      28.093   0.190  53.260  1.00  0.00     0.134 C 
HETATM   13  F1  UNL     1      29.315  -0.106  53.722  1.00  0.00    -0.205 F 
HETATM   14  C12 UNL     1      27.251  -0.835  53.083  1.00  0.00     0.023 C 
HETATM   15  C13 UNL     1      25.879  -1.194  52.643  1.00  0.00     0.090 C 
HETATM   16  C14 UNL     1      23.866   2.268  52.651  1.00  0.00     0.165 C 
ENDROOT
BRANCH  16  17
HETATM   17  O1  UNL     1      24.104   3.458  52.027  1.00  0.00    -0.379 OA
BRANCH  17  18
HETATM   18  C15 UNL     1      23.514   4.564  52.649  1.00  0.00     0.188 C 
BRANCH  18  19
HETATM   19  C16 UNL     1      22.741   5.407  51.680  1.00  0.00     0.143 C 
BRANCH  19  20
HETATM   20  N3  UNL     1      23.456   5.677  50.498  1.00  0.00    -0.406 N 
BRANCH  20  21
HETATM   21  C17 UNL     1      24.283   6.862  50.551  1.00  0.00     0.143 C 
BRANCH  21  22
HETATM   22  C18 UNL     1      25.634   6.514  49.969  1.00  0.00     0.183 C 
BRANCH  22  23
HETATM   23  O2  UNL     1      25.998   5.192  50.325  1.00  0.00    -0.399 OA
HETATM   24  H22 UNL     1      25.299   4.751  50.841  1.00  0.00     0.209 HD
ENDBRANCH  22  23
ENDBRANCH  21  22
ENDBRANCH  20  21
BRANCH  20  25
HETATM   25  C19 UNL     1      22.810   5.501  49.246  1.00  0.00     0.143 C 
BRANCH  25  26
HETATM   26  C20 UNL     1      22.930   4.163  48.607  1.00  0.00     0.183 C 
BRANCH  26  27
HETATM   27  O3  UNL     1      24.005   3.402  48.967  1.00  0.00    -0.399 OA
HETATM   28  H27 UNL     1      23.891   3.137  49.917  1.00  0.00     0.209 HD
ENDBRANCH  26  27
ENDBRANCH  25  26
ENDBRANCH  20  25
ENDBRANCH  19  20
ENDBRANCH  18  19
ENDBRANCH  17  18
ENDBRANCH  16  17
BRANCH   1  29
HETATM   29  C2  UNL     1      22.273   1.263  50.984  1.00  0.00    -0.024 C 
HETATM   30  C1  UNL     1      21.454   0.509  50.313  1.00  0.00     0.008 C 
ENDBRANCH   1  29
TORSDOF 11
ENDMDL
MODEL 2
REMARK VINA RESULT:      -6.8      3.421      6.263
REMARK  11 active torsions:
REMARK  status: ('A' for Active; 'I' for Inactive)
REMARK    1  A    between atoms: C2_2  and  C3_3 
REMARK    2  A    between atoms: C14_18  and  O1_19 
REMARK    3  A    between atoms: O1_19  and  C15_20 
REMARK    4  A    between atoms: C15_20  and  C16_21 
REMARK    5  A    between atoms: C16_21  and  N3_22 
REMARK    6  A    between atoms: N3_22  and  C17_23 
REMARK    7  A    between atoms: N3_22  and  C19_26 
REMARK    8  A    between atoms: C17_23  and  C18_24 
REMARK    9  A    between atoms: C18_24  and  O2_25 
REMARK   10  A    between atoms: C19_26  and  C20_27 
REMARK   11  A    between atoms: C20_27  and  O3_28 
ROOT
HETATM    1  C3  UNL     1      24.351   3.538  51.723  1.00  0.00     0.081 C 
HETATM    2  C4  UNL     1      23.461   4.669  52.090  1.00  0.00     0.102 C 
HETATM    3  N1  UNL     1      22.211   4.986  52.337  1.00  0.00    -0.257 NA
HETATM    4  C5  UNL     1      21.059   4.122  52.321  1.00  0.00     0.232 C 
HETATM    5  N2  UNL     1      20.871   2.848  52.268  1.00  0.00    -0.246 NA
HETATM    6  C6  UNL     1      21.758   1.737  52.199  1.00  0.00     0.044 C 
HETATM    7  C7  UNL     1      23.075   1.474  52.356  1.00  0.00    -0.022 C 
HETATM    8  C8  UNL     1      23.775   0.173  52.224  1.00  0.00     0.068 C 
HETATM    9  C9  UNL     1      23.531  -0.566  53.509  1.00  0.00     0.005 C 
HETATM   10  C10 UNL     1      22.401  -0.991  54.049  1.00  0.00     0.068 C 
HETATM   11 CL1  UNL     1      22.673  -1.805  55.578  1.00  0.00    -0.081 Cl
HETATM   12  C11 UNL     1      20.969  -0.980  53.729  1.00  0.00     0.134 C 
HETATM   13  F1  UNL     1      20.204  -1.851  54.401  1.00  0.00    -0.205 F 
HETATM   14  C12 UNL     1      20.348  -0.195  52.839  1.00  0.00     0.023 C 
HETATM   15  C13 UNL     1      20.563   0.886  51.845  1.00  0.00     0.090 C 
HETATM   16  C14 UNL     1      24.192   2.349  52.692  1.00  0.00     0.165 C 
ENDROOT
BRANCH  16  17
HETATM   17  O1  UNL     1      25.415   1.749  52.784  1.00  0.00    -0.379 OA
BRANCH  17  18
HETATM   18  C15 UNL     1      26.077   1.972  53.996  1.00  0.00     0.188 C 
BRANCH  18  19
HETATM   19  C16 UNL     1      26.782   0.742  54.485  1.00  0.00     0.143 C 
BRANCH  19  20
HETATM   20  N3  UNL     1      27.832   0.340  53.639  1.00  0.00    -0.406 N 
BRANCH  20  21
HETATM   21  C17 UNL     1      27.665  -0.969  53.050  1.00  0.00     0.143 C 
BRANCH  21  22
HETATM   22  C18 UNL     1      28.938  -1.750  53.280  1.00  0.00     0.183 C 
BRANCH  22  23
HETATM   23  O2  UNL     1      28.677  -3.142  53.239  1.00  0.00    -0.399 OA
HETATM   24  H22 UNL     1      28.454  -3.441  52.339  1.00  0.00     0.209 HD
ENDBRANCH  22  23
ENDBRANCH  21  22
ENDBRANCH  20  21
BRANCH  20  25
HETATM   25  C19 UNL     1      29.171   0.613  54.026  1.00  0.00     0.143 C 
BRANCH  25  26
HETATM   26  C20 UNL     1      29.539   2.040  54.222  1.00  0.00     0.183 C 
BRANCH  26  27
HETATM   27  O3  UNL     1      29.273   2.893  53.189  1.00  0.00    -0.399 OA
HETATM   28  H27 UNL     1      29.213   2.357  52.354  1.00  0.00     0.209 HD
ENDBRANCH  26  27
ENDBRANCH  25  26
ENDBRANCH  20  25
ENDBRANCH  19  20
ENDBRANCH  18  19
ENDBRANCH  17  18
ENDBRANCH  16  17
BRANCH   1  29
HETATM   29  C2  UNL     1      24.337   3.171  50.319  1.00  0.00    -0.024 C 
HETATM   30  C1  UNL     1      24.681   3.641  49.157  1.00  0.00     0.008 C 
ENDBRANCH   1  29
TORSDOF 11
ENDMDL
MODEL 3
REMARK VINA RESULT:      -6.6      1.848      2.446
REMARK  11 active torsions:
REMARK  status: ('A' for Active; 'I' for Inactive)
REMARK    1  A    between atoms: C2_2  and  C3_3 
REMARK    2  A    between atoms: C14_18  and  O1_19 
REMARK    3  A    between atoms: O1_19  and  C15_20 
REMARK    4  A    between atoms: C15_20  and  C16_21 
REMARK    5  A    between atoms: C16_21  and  N3_22 
REMARK    6  A    between atoms: N3_22  and  C17_23 
REMARK    7  A    between atoms: N3_22  and  C19_26 
REMARK    8  A    between atoms: C17_23  and  C18_24 
REMARK    9  A    between atoms: C18_24  and  O2_25 
REMARK   10  A    between atoms: C19_26  and  C20_27 
REMARK   11  A    between atoms: C20_27  and  O3_28 
ROOT
HETATM    1  C3  UNL     1      22.745   2.927  50.675  1.00  0.00     0.081 C 
HETATM    2  C4  UNL     1      21.683   2.771  51.702  1.00  0.00     0.102 C 
HETATM    3  N1  UNL     1      21.326   2.060  52.746  1.00  0.00    -0.257 NA
HETATM    4  C5  UNL     1      22.029   0.956  53.347  1.00  0.00     0.232 C 
HETATM    5  N2  UNL     1      23.209   0.451  53.232  1.00  0.00    -0.246 NA
HETATM    6  C6  UNL     1      24.337   0.789  52.433  1.00  0.00     0.044 C 
HETATM    7  C7  UNL     1      24.764   1.808  51.654  1.00  0.00    -0.022 C 
HETATM    8  C8  UNL     1      26.038   1.918  50.900  1.00  0.00     0.068 C 
HETATM    9  C9  UNL     1      27.084   2.316  51.900  1.00  0.00     0.005 C 
HETATM   10  C10 UNL     1      27.530   1.678  52.970  1.00  0.00     0.068 C 
HETATM   11 CL1  UNL     1      28.771   2.594  53.806  1.00  0.00    -0.081 Cl
HETATM   12  C11 UNL     1      27.285   0.409  53.663  1.00  0.00     0.134 C 
HETATM   13  F1  UNL     1      28.230   0.010  54.525  1.00  0.00    -0.205 F 
HETATM   14  C12 UNL     1      26.220  -0.391  53.525  1.00  0.00     0.023 C 
HETATM   15  C13 UNL     1      24.927  -0.548  52.812  1.00  0.00     0.090 C 
HETATM   16  C14 UNL     1      24.139   3.082  51.316  1.00  0.00     0.165 C 
ENDROOT
BRANCH  16  17
HETATM   17  O1  UNL     1      24.860   3.903  50.498  1.00  0.00    -0.379 OA
BRANCH  17  18
HETATM   18  C15 UNL     1      24.679   5.268  50.745  1.00  0.00     0.188 C 
BRANCH  18  19
HETATM   19  C16 UNL     1      24.827   6.089  49.499  1.00  0.00     0.143 C 
BRANCH  19  20
HETATM   20  N3  UNL     1      26.014   6.843  49.480  1.00  0.00    -0.406 N 
BRANCH  20  21
HETATM   21  C17 UNL     1      25.870   8.209  49.933  1.00  0.00     0.143 C 
BRANCH  21  22
HETATM   22  C18 UNL     1      27.233   8.860  49.893  1.00  0.00     0.183 C 
BRANCH  22  23
HETATM   23  O2  UNL     1      27.566   9.385  51.166  1.00  0.00    -0.399 OA
HETATM   24  H22 UNL     1      28.079   8.747  51.696  1.00  0.00     0.209 HD
ENDBRANCH  22  23
ENDBRANCH  21  22
ENDBRANCH  20  21
BRANCH  20  25
HETATM   25  C19 UNL     1      26.897   6.712  48.374  1.00  0.00     0.143 C 
BRANCH  25  26
HETATM   26  C20 UNL     1      27.995   5.717  48.503  1.00  0.00     0.183 C 
BRANCH  26  27
HETATM   27  O3  UNL     1      27.722   4.587  49.218  1.00  0.00    -0.399 OA
HETATM   28  H27 UNL     1      27.116   4.833  49.966  1.00  0.00     0.209 HD
ENDBRANCH  26  27
ENDBRANCH  25  26
ENDBRANCH  20  25
ENDBRANCH  19  20
ENDBRANCH  18  19
ENDBRANCH  17  18
ENDBRANCH  16  17
BRANCH   1  29
HETATM   29  C2  UNL     1      22.692   1.974  49.582  1.00  0.00    -0.024 C 
HETATM   30  C1  UNL     1      22.439   1.925  48.307  1.00  0.00     0.008 C 
ENDBRANCH   1  29
TORSDOF 11
ENDMDL
MODEL 4
REMARK VINA RESULT:      -6.5      3.684      6.538
REMARK  11 active torsions:
REMARK  status: ('A' for Active; 'I' for Inactive)
REMARK    1  A    between atoms: C2_2  and  C3_3 
REMARK    2  A    between atoms: C14_18  and  O1_19 
REMARK    3  A    between atoms: O1_19  and  C15_20 
REMARK    4  A    between atoms: C15_20  and  C16_21 
REMARK    5  A    between atoms: C16_21  and  N3_22 
REMARK    6  A    between atoms: N3_22  and  C17_23 
REMARK    7  A    between atoms: N3_22  and  C19_26 
REMARK    8  A    between atoms: C17_23  and  C18_24 
REMARK    9  A    between atoms: C18_24  and  O2_25 
REMARK   10  A    between atoms: C19_26  and  C20_27 
REMARK   11  A    between atoms: C20_27  and  O3_28 
ROOT
HETATM    1  C3  UNL     1      24.351   3.391  51.319  1.00  0.00     0.081 C 
HETATM    2  C4  UNL     1      23.764   4.697  51.716  1.00  0.00     0.102 C 
HETATM    3  N1  UNL     1      22.628   5.313  51.942  1.00  0.00    -0.257 NA
HETATM    4  C5  UNL     1      21.295   4.775  51.850  1.00  0.00     0.232 C 
HETATM    5  N2  UNL     1      20.791   3.595  51.729  1.00  0.00    -0.246 NA
HETATM    6  C6  UNL     1      21.368   2.297  51.631  1.00  0.00     0.044 C 
HETATM    7  C7  UNL     1      22.566   1.700  51.812  1.00  0.00    -0.022 C 
HETATM    8  C8  UNL     1      22.916   0.268  51.636  1.00  0.00     0.068 C 
HETATM    9  C9  UNL     1      22.441  -0.434  52.875  1.00  0.00     0.005 C 
HETATM   10  C10 UNL     1      21.218  -0.577  53.361  1.00  0.00     0.068 C 
HETATM   11 CL1  UNL     1      21.212  -1.495  54.855  1.00  0.00    -0.081 Cl
HETATM   12  C11 UNL     1      19.850  -0.186  53.001  1.00  0.00     0.134 C 
HETATM   13  F1  UNL     1      18.863  -0.858  53.607  1.00  0.00    -0.205 F 
HETATM   14  C12 UNL     1      19.487   0.767  52.134  1.00  0.00     0.023 C 
HETATM   15  C13 UNL     1      20.010   1.796  51.200  1.00  0.00     0.090 C 
HETATM   16  C14 UNL     1      23.856   2.245  52.224  1.00  0.00     0.165 C 
ENDROOT
BRANCH  16  17
HETATM   17  O1  UNL     1      24.880   1.348  52.321  1.00  0.00    -0.379 OA
BRANCH  17  18
HETATM   18  C15 UNL     1      26.049   1.867  52.887  1.00  0.00     0.188 C 
BRANCH  18  19
HETATM   19  C16 UNL     1      27.249   1.024  52.571  1.00  0.00     0.143 C 
BRANCH  19  20
HETATM   20  N3  UNL     1      27.427  -0.036  53.480  1.00  0.00    -0.406 N 
BRANCH  20  21
HETATM   21  C17 UNL     1      28.404   0.216  54.515  1.00  0.00     0.143 C 
BRANCH  21  22
HETATM   22  C18 UNL     1      29.443   1.161  53.957  1.00  0.00     0.183 C 
BRANCH  22  23
HETATM   23  O2  UNL     1      29.536   2.323  54.763  1.00  0.00    -0.399 OA
HETATM   24  H22 UNL     1      30.431   2.707  54.741  1.00  0.00     0.209 HD
ENDBRANCH  22  23
ENDBRANCH  21  22
ENDBRANCH  20  21
BRANCH  20  25
HETATM   25  C19 UNL     1      27.464  -1.368  52.988  1.00  0.00     0.143 C 
BRANCH  25  26
HETATM   26  C20 UNL     1      28.742  -2.110  53.150  1.00  0.00     0.183 C 
BRANCH  26  27
HETATM   27  O3  UNL     1      28.650  -3.454  53.374  1.00  0.00    -0.399 OA
HETATM   28  H27 UNL     1      28.051  -3.597  54.153  1.00  0.00     0.209 HD
ENDBRANCH  26  27
ENDBRANCH  25  26
ENDBRANCH  20  25
ENDBRANCH  19  20
ENDBRANCH  18  19
ENDBRANCH  17  18
ENDBRANCH  16  17
BRANCH   1  29
HETATM   29  C2  UNL     1      24.301   3.096  49.899  1.00  0.00    -0.024 C 
HETATM   30  C1  UNL     1      23.643   3.433  48.829  1.00  0.00     0.008 C 
ENDBRANCH   1  29
TORSDOF 11
ENDMDL
MODEL 5
REMARK VINA RESULT:      -6.3      2.962      5.283
REMARK  11 active torsions:
REMARK  status: ('A' for Active; 'I' for Inactive)
REMARK    1  A    between atoms: C2_2  and  C3_3 
REMARK    2  A    between atoms: C14_18  and  O1_19 
REMARK    3  A    between atoms: O1_19  and  C15_20 
REMARK    4  A    between atoms: C15_20  and  C16_21 
REMARK    5  A    between atoms: C16_21  and  N3_22 
REMARK    6  A    between atoms: N3_22  and  C17_23 
REMARK    7  A    between atoms: N3_22  and  C19_26 
REMARK    8  A    between atoms: C17_23  and  C18_24 
REMARK    9  A    between atoms: C18_24  and  O2_25 
REMARK   10  A    between atoms: C19_26  and  C20_27 
REMARK   11  A    between atoms: C20_27  and  O3_28 
ROOT
HETATM    1  C3  UNL     1      23.367   2.789  51.236  1.00  0.00     0.081 C 
HETATM    2  C4  UNL     1      23.955   3.455  50.046  1.00  0.00     0.102 C 
HETATM    3  N1  UNL     1      25.088   3.850  49.515  1.00  0.00    -0.257 NA
HETATM    4  C5  UNL     1      26.414   3.722  50.062  1.00  0.00     0.232 C 
HETATM    5  N2  UNL     1      26.939   3.079  51.048  1.00  0.00    -0.246 NA
HETATM    6  C6  UNL     1      26.403   2.202  52.033  1.00  0.00     0.044 C 
HETATM    7  C7  UNL     1      25.263   1.516  52.272  1.00  0.00    -0.022 C 
HETATM    8  C8  UNL     1      24.944   0.634  53.422  1.00  0.00     0.068 C 
HETATM    9  C9  UNL     1      25.612  -0.681  53.140  1.00  0.00     0.005 C 
HETATM   10  C10 UNL     1      26.895  -0.975  53.000  1.00  0.00     0.068 C 
HETATM   11 CL1  UNL     1      27.141  -2.681  52.674  1.00  0.00    -0.081 Cl
HETATM   12  C11 UNL     1      28.184  -0.277  53.045  1.00  0.00     0.134 C 
HETATM   13  F1  UNL     1      29.271  -1.046  53.199  1.00  0.00    -0.205 F 
HETATM   14  C12 UNL     1      28.389   1.043  52.949  1.00  0.00     0.023 C 
HETATM   15  C13 UNL     1      27.704   2.350  52.782  1.00  0.00     0.090 C 
HETATM   16  C14 UNL     1      24.024   1.420  51.507  1.00  0.00     0.165 C 
ENDROOT
BRANCH  16  17
HETATM   17  O1  UNL     1      23.057   0.616  52.035  1.00  0.00    -0.379 OA
BRANCH  17  18
HETATM   18  C15 UNL     1      21.889   0.537  51.268  1.00  0.00     0.188 C 
BRANCH  18  19
HETATM   19  C16 UNL     1      20.722   0.042  52.070  1.00  0.00     0.143 C 
BRANCH  19  20
HETATM   20  N3  UNL     1      19.484   0.437  51.532  1.00  0.00    -0.406 N 
BRANCH  20  21
HETATM   21  C17 UNL     1      19.425   1.816  51.100  1.00  0.00     0.143 C 
BRANCH  21  22
HETATM   22  C18 UNL     1      18.717   1.857  49.766  1.00  0.00     0.183 C 
BRANCH  22  23
HETATM   23  O2  UNL     1      19.636   1.626  48.713  1.00  0.00    -0.399 OA
HETATM   24  H22 UNL     1      19.206   1.679  47.840  1.00  0.00     0.209 HD
ENDBRANCH  22  23
ENDBRANCH  21  22
ENDBRANCH  20  21
BRANCH  20  25
HETATM   25  C19 UNL     1      18.288  -0.004  52.158  1.00  0.00     0.143 C 
BRANCH  25  26
HETATM   26  C20 UNL     1      18.416  -1.085  53.171  1.00  0.00     0.183 C 
BRANCH  26  27
HETATM   27  O3  UNL     1      17.343  -1.296  53.988  1.00  0.00    -0.399 OA
HETATM   28  H27 UNL     1      17.644  -1.848  54.757  1.00  0.00     0.209 HD
ENDBRANCH  26  27
ENDBRANCH  25  26
ENDBRANCH  20  25
ENDBRANCH  19  20
ENDBRANCH  18  19
ENDBRANCH  17  18
ENDBRANCH  16  17
BRANCH   1  29
HETATM   29  C2  UNL     1      23.231   3.630  52.411  1.00  0.00    -0.024 C 
HETATM   30  C1  UNL     1      23.544   4.819  52.833  1.00  0.00     0.008 C 
ENDBRANCH   1  29
TORSDOF 11
ENDMDL
MODEL 6
REMARK VINA RESULT:      -6.2      3.526      5.220
REMARK  11 active torsions:
REMARK  status: ('A' for Active; 'I' for Inactive)
REMARK    1  A    between atoms: C2_2  and  C3_3 
REMARK    2  A    between atoms: C14_18  and  O1_19 
REMARK    3  A    between atoms: O1_19  and  C15_20 
REMARK    4  A    between atoms: C15_20  and  C16_21 
REMARK    5  A    between atoms: C16_21  and  N3_22 
REMARK    6  A    between atoms: N3_22  and  C17_23 
REMARK    7  A    between atoms: N3_22  and  C19_26 
REMARK    8  A    between atoms: C17_23  and  C18_24 
REMARK    9  A    between atoms: C18_24  and  O2_25 
REMARK   10  A    between atoms: C19_26  and  C20_27 
REMARK   11  A    between atoms: C20_27  and  O3_28 
ROOT
HETATM    1  C3  UNL     1      24.342   2.180  51.928  1.00  0.00     0.081 C 
HETATM    2  C4  UNL     1      25.212   0.999  52.159  1.00  0.00     0.102 C 
HETATM    3  N1  UNL     1      25.261  -0.171  52.751  1.00  0.00    -0.257 NA
HETATM    4  C5  UNL     1      24.239  -0.807  53.542  1.00  0.00     0.232 C 
HETATM    5  N2  UNL     1      22.988  -0.589  53.767  1.00  0.00    -0.246 NA
HETATM    6  C6  UNL     1      22.077   0.403  53.309  1.00  0.00     0.044 C 
HETATM    7  C7  UNL     1      22.011   1.364  52.361  1.00  0.00    -0.022 C 
HETATM    8  C8  UNL     1      20.897   2.304  52.080  1.00  0.00     0.068 C 
HETATM    9  C9  UNL     1      19.885   1.528  51.286  1.00  0.00     0.005 C 
HETATM   10  C10 UNL     1      19.178   0.459  51.614  1.00  0.00     0.068 C 
HETATM   11 CL1  UNL     1      18.130  -0.058  50.306  1.00  0.00    -0.081 Cl
HETATM   12  C11 UNL     1      19.015  -0.426  52.773  1.00  0.00     0.134 C 
HETATM   13  F1  UNL     1      17.912  -1.186  52.789  1.00  0.00    -0.205 F 
HETATM   14  C12 UNL     1      19.849  -0.551  53.814  1.00  0.00     0.023 C 
HETATM   15  C13 UNL     1      21.128  -0.062  54.387  1.00  0.00     0.090 C 
HETATM   16  C14 UNL     1      22.973   1.776  51.345  1.00  0.00     0.165 C 
ENDROOT
BRANCH  16  17
HETATM   17  O1  UNL     1      22.579   2.792  50.524  1.00  0.00    -0.379 OA
BRANCH  17  18
HETATM   18  C15 UNL     1      23.118   2.735  49.234  1.00  0.00     0.188 C 
BRANCH  18  19
HETATM   19  C16 UNL     1      23.465   4.096  48.709  1.00  0.00     0.143 C 
BRANCH  19  20
HETATM   20  N3  UNL     1      24.217   4.858  49.622  1.00  0.00    -0.406 N 
BRANCH  20  21
HETATM   21  C17 UNL     1      23.572   6.072  50.071  1.00  0.00     0.143 C 
BRANCH  21  22
HETATM   22  C18 UNL     1      24.643   7.009  50.580  1.00  0.00     0.183 C 
BRANCH  22  23
HETATM   23  O2  UNL     1      24.508   7.198  51.977  1.00  0.00    -0.399 OA
HETATM   24  H22 UNL     1      24.400   8.139  52.206  1.00  0.00     0.209 HD
ENDBRANCH  22  23
ENDBRANCH  21  22
ENDBRANCH  20  21
BRANCH  20  25
HETATM   25  C19 UNL     1      25.612   5.014  49.405  1.00  0.00     0.143 C 
BRANCH  25  26
HETATM   26  C20 UNL     1      26.452   3.792  49.511  1.00  0.00     0.183 C 
BRANCH  26  27
HETATM   27  O3  UNL     1      27.212   3.662  50.638  1.00  0.00    -0.399 OA
HETATM   28  H27 UNL     1      28.165   3.774  50.381  1.00  0.00     0.209 HD
ENDBRANCH  26  27
ENDBRANCH  25  26
ENDBRANCH  20  25
ENDBRANCH  19  20
ENDBRANCH  18  19
ENDBRANCH  17  18
ENDBRANCH  16  17
BRANCH   1  29
HETATM   29  C2  UNL     1      24.267   3.117  53.034  1.00  0.00    -0.024 C 
HETATM   30  C1  UNL     1      23.841   4.316  53.303  1.00  0.00     0.008 C 
ENDBRANCH   1  29
TORSDOF 11
ENDMDL
MODEL 7
REMARK VINA RESULT:      -6.2      2.524      4.189
REMARK  11 active torsions:
REMARK  status: ('A' for Active; 'I' for Inactive)
REMARK    1  A    between atoms: C2_2  and  C3_3 
REMARK    2  A    between atoms: C14_18  and  O1_19 
REMARK    3  A    between atoms: O1_19  and  C15_20 
REMARK    4  A    between atoms: C15_20  and  C16_21 
REMARK    5  A    between atoms: C16_21  and  N3_22 
REMARK    6  A    between atoms: N3_22  and  C17_23 
REMARK    7  A    between atoms: N3_22  and  C19_26 
REMARK    8  A    between atoms: C17_23  and  C18_24 
REMARK    9  A    between atoms: C18_24  and  O2_25 
REMARK   10  A    between atoms: C19_26  and  C20_27 
REMARK   11  A    between atoms: C20_27  and  O3_28 
ROOT
HETATM    1  C3  UNL     1      23.244   5.311  49.603  1.00  0.00     0.081 C 
HETATM    2  C4  UNL     1      22.089   5.568  50.501  1.00  0.00     0.102 C 
HETATM    3  N1  UNL     1      21.345   5.029  51.437  1.00  0.00    -0.257 NA
HETATM    4  C5  UNL     1      21.457   3.711  52.007  1.00  0.00     0.232 C 
HETATM    5  N2  UNL     1      22.335   2.767  51.966  1.00  0.00    -0.246 NA
HETATM    6  C6  UNL     1      23.595   2.640  51.317  1.00  0.00     0.044 C 
HETATM    7  C7  UNL     1      24.494   3.421  50.678  1.00  0.00    -0.022 C 
HETATM    8  C8  UNL     1      25.787   3.024  50.067  1.00  0.00     0.068 C 
HETATM    9  C9  UNL     1      26.768   2.915  51.198  1.00  0.00     0.005 C 
HETATM   10  C10 UNL     1      26.777   2.109  52.247  1.00  0.00     0.068 C 
HETATM   11 CL1  UNL     1      28.165   2.396  53.280  1.00  0.00    -0.081 Cl
HETATM   12  C11 UNL     1      25.951   1.028  52.798  1.00  0.00     0.134 C 
HETATM   13  F1  UNL     1      26.536   0.242  53.712  1.00  0.00    -0.205 F 
HETATM   14  C12 UNL     1      24.681   0.746  52.484  1.00  0.00     0.023 C 
HETATM   15  C13 UNL     1      23.538   1.166  51.635  1.00  0.00     0.090 C 
HETATM   16  C14 UNL     1      24.488   4.851  50.391  1.00  0.00     0.165 C 
ENDROOT
BRANCH  16  17
HETATM   17  O1  UNL     1      25.577   5.332  49.724  1.00  0.00    -0.379 OA
BRANCH  17  18
HETATM   18  C15 UNL     1      25.855   6.681  49.970  1.00  0.00     0.188 C 
BRANCH  18  19
HETATM   19  C16 UNL     1      26.387   7.376  48.752  1.00  0.00     0.143 C 
BRANCH  19  20
HETATM   20  N3  UNL     1      27.787   7.518  48.773  1.00  0.00    -0.406 N 
BRANCH  20  21
HETATM   21  C17 UNL     1      28.253   8.873  48.972  1.00  0.00     0.143 C 
BRANCH  21  22
HETATM   22  C18 UNL     1      27.233   9.597  49.820  1.00  0.00     0.183 C 
BRANCH  22  23
HETATM   23  O2  UNL     1      27.679   9.681  51.162  1.00  0.00    -0.399 OA
HETATM   24  H22 UNL     1      28.130  10.526  51.341  1.00  0.00     0.209 HD
ENDBRANCH  22  23
ENDBRANCH  21  22
ENDBRANCH  20  21
BRANCH  20  25
HETATM   25  C19 UNL     1      28.568   6.791  47.836  1.00  0.00     0.143 C 
BRANCH  25  26
HETATM   26  C20 UNL     1      29.093   5.471  48.276  1.00  0.00     0.183 C 
BRANCH  26  27
HETATM   27  O3  UNL     1      30.025   5.480  49.273  1.00  0.00    -0.399 OA
HETATM   28  H27 UNL     1      29.605   5.106  50.092  1.00  0.00     0.209 HD
ENDBRANCH  26  27
ENDBRANCH  25  26
ENDBRANCH  20  25
ENDBRANCH  19  20
ENDBRANCH  18  19
ENDBRANCH  17  18
ENDBRANCH  16  17
BRANCH   1  29
HETATM   29  C2  UNL     1      22.949   4.509  48.431  1.00  0.00    -0.024 C 
HETATM   30  C1  UNL     1      22.035   3.707  47.969  1.00  0.00     0.008 C 
ENDBRANCH   1  29
TORSDOF 11
ENDMDL
MODEL 8
REMARK VINA RESULT:      -6.2      1.971      2.939
REMARK  11 active torsions:
REMARK  status: ('A' for Active; 'I' for Inactive)
REMARK    1  A    between atoms: C2_2  and  C3_3 
REMARK    2  A    between atoms: C14_18  and  O1_19 
REMARK    3  A    between atoms: O1_19  and  C15_20 
REMARK    4  A    between atoms: C15_20  and  C16_21 
REMARK    5  A    between atoms: C16_21  and  N3_22 
REMARK    6  A    between atoms: N3_22  and  C17_23 
REMARK    7  A    between atoms: N3_22  and  C19_26 
REMARK    8  A    between atoms: C17_23  and  C18_24 
REMARK    9  A    between atoms: C18_24  and  O2_25 
REMARK   10  A    between atoms: C19_26  and  C20_27 
REMARK   11  A    between atoms: C20_27  and  O3_28 
ROOT
HETATM    1  C3  UNL     1      22.636   3.007  50.343  1.00  0.00     0.081 C 
HETATM    2  C4  UNL     1      21.538   3.111  51.337  1.00  0.00     0.102 C 
HETATM    3  N1  UNL     1      21.085   2.606  52.460  1.00  0.00    -0.257 NA
HETATM    4  C5  UNL     1      21.659   1.547  53.250  1.00  0.00     0.232 C 
HETATM    5  N2  UNL     1      22.786   0.922  53.261  1.00  0.00    -0.246 NA
HETATM    6  C6  UNL     1      23.963   1.026  52.467  1.00  0.00     0.044 C 
HETATM    7  C7  UNL     1      24.509   1.868  51.562  1.00  0.00    -0.022 C 
HETATM    8  C8  UNL     1      25.806   1.740  50.853  1.00  0.00     0.068 C 
HETATM    9  C9  UNL     1      26.860   2.188  51.824  1.00  0.00     0.005 C 
HETATM   10  C10 UNL     1      27.213   1.684  52.995  1.00  0.00     0.068 C 
HETATM   11 CL1  UNL     1      28.516   2.596  53.734  1.00  0.00    -0.081 Cl
HETATM   12  C11 UNL     1      26.824   0.564  53.861  1.00  0.00     0.134 C 
HETATM   13  F1  UNL     1      27.703   0.217  54.811  1.00  0.00    -0.205 F 
HETATM   14  C12 UNL     1      25.689  -0.144  53.801  1.00  0.00     0.023 C 
HETATM   15  C13 UNL     1      24.407  -0.286  53.068  1.00  0.00     0.090 C 
HETATM   16  C14 UNL     1      24.022   3.127  51.010  1.00  0.00     0.165 C 
ENDROOT
BRANCH  16  17
HETATM   17  O1  UNL     1      24.842   3.741  50.108  1.00  0.00    -0.379 OA
BRANCH  17  18
HETATM   18  C15 UNL     1      24.341   4.943  49.597  1.00  0.00     0.188 C 
BRANCH  18  19
HETATM   19  C16 UNL     1      25.419   5.969  49.414  1.00  0.00     0.143 C 
BRANCH  19  20
HETATM   20  N3  UNL     1      25.355   7.005  50.364  1.00  0.00    -0.406 N 
BRANCH  20  21
HETATM   21  C17 UNL     1      24.199   6.957  51.232  1.00  0.00     0.143 C 
BRANCH  21  22
HETATM   22  C18 UNL     1      23.152   7.887  50.665  1.00  0.00     0.183 C 
BRANCH  22  23
HETATM   23  O2  UNL     1      21.869   7.544  51.159  1.00  0.00    -0.399 OA
HETATM   24  H22 UNL     1      21.634   6.623  50.944  1.00  0.00     0.209 HD
ENDBRANCH  22  23
ENDBRANCH  21  22
ENDBRANCH  20  21
BRANCH  20  25
HETATM   25  C19 UNL     1      25.704   8.324  49.971  1.00  0.00     0.143 C 
BRANCH  25  26
HETATM   26  C20 UNL     1      27.116   8.740  50.186  1.00  0.00     0.183 C 
BRANCH  26  27
HETATM   27  O3  UNL     1      27.331   9.752  51.078  1.00  0.00    -0.399 OA
HETATM   28  H27 UNL     1      28.223   9.613  51.492  1.00  0.00     0.209 HD
ENDBRANCH  26  27
ENDBRANCH  25  26
ENDBRANCH  20  25
ENDBRANCH  19  20
ENDBRANCH  18  19
ENDBRANCH  17  18
ENDBRANCH  16  17
BRANCH   1  29
HETATM   29  C2  UNL     1      22.519   1.906  49.405  1.00  0.00    -0.024 C 
HETATM   30  C1  UNL     1      21.692   0.960  49.069  1.00  0.00     0.008 C 
ENDBRANCH   1  29
TORSDOF 11
ENDMDL
MODEL 9
REMARK VINA RESULT:      -6.0      3.458      6.360
REMARK  11 active torsions:
REMARK  status: ('A' for Active; 'I' for Inactive)
REMARK    1  A    between atoms: C2_2  and  C3_3 
REMARK    2  A    between atoms: C14_18  and  O1_19 
REMARK    3  A    between atoms: O1_19  and  C15_20 
REMARK    4  A    between atoms: C15_20  and  C16_21 
REMARK    5  A    between atoms: C16_21  and  N3_22 
REMARK    6  A    between atoms: N3_22  and  C17_23 
REMARK    7  A    between atoms: N3_22  and  C19_26 
REMARK    8  A    between atoms: C17_23  and  C18_24 
REMARK    9  A    between atoms: C18_24  and  O2_25 
REMARK   10  A    between atoms: C19_26  and  C20_27 
REMARK   11  A    between atoms: C20_27  and  O3_28 
ROOT
HETATM    1  C3  UNL     1      22.498   1.531  51.376  1.00  0.00     0.081 C 
HETATM    2  C4  UNL     1      21.783   0.827  50.281  1.00  0.00     0.102 C 
HETATM    3  N1  UNL     1      21.208   1.006  49.115  1.00  0.00    -0.257 NA
HETATM    4  C5  UNL     1      21.070   2.235  48.376  1.00  0.00     0.232 C 
HETATM    5  N2  UNL     1      21.567   3.421  48.470  1.00  0.00    -0.246 NA
HETATM    6  C6  UNL     1      22.488   4.019  49.374  1.00  0.00     0.044 C 
HETATM    7  C7  UNL     1      23.362   3.643  50.335  1.00  0.00    -0.022 C 
HETATM    8  C8  UNL     1      24.241   4.503  51.165  1.00  0.00     0.068 C 
HETATM    9  C9  UNL     1      25.422   4.849  50.305  1.00  0.00     0.005 C 
HETATM   10  C10 UNL     1      25.482   5.526  49.169  1.00  0.00     0.068 C 
HETATM   11 CL1  UNL     1      27.125   5.647  48.568  1.00  0.00    -0.081 Cl
HETATM   12  C11 UNL     1      24.559   6.214  48.260  1.00  0.00     0.134 C 
HETATM   13  F1  UNL     1      25.109   7.078  47.397  1.00  0.00    -0.205 F 
HETATM   14  C12 UNL     1      23.228   6.072  48.205  1.00  0.00     0.023 C 
HETATM   15  C13 UNL     1      22.076   5.357  48.809  1.00  0.00     0.090 C 
HETATM   16  C14 UNL     1      23.712   2.323  50.848  1.00  0.00     0.165 C 
ENDROOT
BRANCH  16  17
HETATM   17  O1  UNL     1      24.659   2.295  51.830  1.00  0.00    -0.379 OA
BRANCH  17  18
HETATM   18  C15 UNL     1      25.275   1.051  52.002  1.00  0.00     0.188 C 
BRANCH  18  19
HETATM   19  C16 UNL     1      25.379   0.671  53.449  1.00  0.00     0.143 C 
BRANCH  19  20
HETATM   20  N3  UNL     1      26.448  -0.207  53.707  1.00  0.00    -0.406 N 
BRANCH  20  21
HETATM   21  C17 UNL     1      27.400   0.273  54.685  1.00  0.00     0.143 C 
BRANCH  21  22
HETATM   22  C18 UNL     1      28.540   0.930  53.943  1.00  0.00     0.183 C 
BRANCH  22  23
HETATM   23  O2  UNL     1      29.219   1.842  54.789  1.00  0.00    -0.399 OA
HETATM   24  H22 UNL     1      30.186   1.744  54.723  1.00  0.00     0.209 HD
ENDBRANCH  22  23
ENDBRANCH  21  22
ENDBRANCH  20  21
BRANCH  20  25
HETATM   25  C19 UNL     1      27.059  -0.889  52.622  1.00  0.00     0.143 C 
BRANCH  25  26
HETATM   26  C20 UNL     1      26.951  -2.372  52.611  1.00  0.00     0.183 C 
BRANCH  26  27
HETATM   27  O3  UNL     1      28.116  -3.076  52.719  1.00  0.00    -0.399 OA
HETATM   28  H27 UNL     1      28.621  -2.967  51.871  1.00  0.00     0.209 HD
ENDBRANCH  26  27
ENDBRANCH  25  26
ENDBRANCH  20  25
ENDBRANCH  19  20
ENDBRANCH  18  19
ENDBRANCH  17  18
ENDBRANCH  16  17
BRANCH   1  29
HETATM   29  C2  UNL     1      21.651   2.275  52.290  1.00  0.00    -0.024 C 
HETATM   30  C1  UNL     1      20.440   2.740  52.379  1.00  0.00     0.008 C 
ENDBRANCH   1  29
TORSDOF 11
ENDMDL
