MODEL 1
REMARK VINA RESULT:      -8.1      0.000      0.000
REMARK  6 active torsions:
REMARK  status: ('A' for Active; 'I' for Inactive)
REMARK    1  A    between atoms: C2_2  and  C3_3 
REMARK    2  A    between atoms: C2_2  and  C6_7 
REMARK    3  A    between atoms: C3_3  and  N1_4 
REMARK       I    between atoms: C6_7  and  N2_9 
REMARK    4  A    between atoms: N2_9  and  C7_10 
REMARK    5  A    between atoms: C11_15  and  C12_16 
REMARK    6  A    between atoms: C12_16  and  C13_17 
ROOT
HETATM    1  C7  UNL     1      25.673   2.398  51.073  1.00  0.00     0.067 A 
HETATM    2  C8  UNL     1      26.061   3.520  50.541  1.00  0.00     0.037 A 
HETATM    3  C9  UNL     1      25.061   4.413  49.822  1.00  0.00     0.150 A 
HETATM    4  C10 UNL     1      24.973   5.776  50.437  1.00  0.00     0.044 C 
HETATM    5  O2  UNL     1      23.897   3.657  49.988  1.00  0.00    -0.340 OA
HETATM    6  C11 UNL     1      24.227   2.489  50.706  1.00  0.00     0.093 A 
ENDROOT
BRANCH   6   7
HETATM    7  C12 UNL     1      23.029   1.961  50.735  1.00  0.00     0.027 C 
BRANCH   7   8
HETATM    8  C13 UNL     1      21.766   1.287  50.857  1.00  0.00     0.084 C 
HETATM    9  C14 UNL     1      21.957  -0.023  51.669  1.00  0.00    -0.005 C 
HETATM   10  C15 UNL     1      21.527   0.566  52.798  1.00  0.00    -0.056 C 
HETATM   11  C16 UNL     1      20.714   1.776  52.951  1.00  0.00     0.033 C 
HETATM   12  C22 UNL     1      21.592  -0.245  54.092  1.00  0.00     0.076 C 
HETATM   13  C17 UNL     1      20.682   1.797  51.657  1.00  0.00     0.021 C 
HETATM   14  N3  UNL     1      19.455   2.236  51.171  1.00  0.00    -0.367 N 
HETATM   15  C18 UNL     1      18.601   1.106  51.442  1.00  0.00     0.110 C 
HETATM   16  H21 UNL     1      18.964   3.005  50.730  1.00  0.00     0.165 HD
HETATM   17  C19 UNL     1      18.231  -0.053  52.108  1.00  0.00     0.060 C 
HETATM   18 CL1  UNL     1      16.853  -1.207  52.025  1.00  0.00    -0.085 Cl
HETATM   19  C20 UNL     1      19.309  -0.541  53.089  1.00  0.00     0.115 A 
HETATM   20  F1  UNL     1      18.920  -1.772  53.717  1.00  0.00    -0.388 F 
HETATM   21  C21 UNL     1      20.255  -1.057  54.021  1.00  0.00     0.256 A 
ENDBRANCH   7   8
ENDBRANCH   6   7
BRANCH   1  22
HETATM   22  N2  UNL     1      26.003   1.254  51.773  1.00  0.00    -0.321 N 
HETATM   23  C6  UNL     1      25.744   1.336  53.180  1.00  0.00     0.249 C 
HETATM   24  O1  UNL     1      25.265   2.497  53.456  1.00  0.00    -0.268 OA
HETATM   25  H11 UNL     1      26.417   0.416  51.376  1.00  0.00     0.169 HD
BRANCH  23  26
HETATM   26  C2  UNL     1      25.990   0.241  54.088  1.00  0.00     0.006 C 
HETATM   27  C1  UNL     1      25.153  -0.818  54.163  1.00  0.00     0.046 C 
BRANCH  26  28
HETATM   28  C3  UNL     1      27.186   0.346  54.991  1.00  0.00     0.155 C 
BRANCH  28  29
HETATM   29  N1  UNL     1      28.394   0.313  54.253  1.00  0.00    -0.417 N 
HETATM   30  C4  UNL     1      29.247   1.434  54.271  1.00  0.00     0.142 C 
HETATM   31  C5  UNL     1      28.753  -0.851  53.558  1.00  0.00     0.142 C 
ENDBRANCH  28  29
ENDBRANCH  26  28
ENDBRANCH  23  26
ENDBRANCH   1  22
TORSDOF 6
ENDMDL
MODEL 2
REMARK VINA RESULT:      -8.0      3.501      6.968
REMARK  6 active torsions:
REMARK  status: ('A' for Active; 'I' for Inactive)
REMARK    1  A    between atoms: C2_2  and  C3_3 
REMARK    2  A    between atoms: C2_2  and  C6_7 
REMARK    3  A    between atoms: C3_3  and  N1_4 
REMARK       I    between atoms: C6_7  and  N2_9 
REMARK    4  A    between atoms: N2_9  and  C7_10 
REMARK    5  A    between atoms: C11_15  and  C12_16 
REMARK    6  A    between atoms: C12_16  and  C13_17 
ROOT
HETATM    1  C7  UNL     1      22.143   3.921  51.084  1.00  0.00     0.067 A 
HETATM    2  C8  UNL     1      22.289   5.205  51.237  1.00  0.00     0.037 A 
HETATM    3  C9  UNL     1      23.637   5.780  51.643  1.00  0.00     0.150 A 
HETATM    4  C10 UNL     1      24.167   6.750  50.633  1.00  0.00     0.044 C 
HETATM    5  O2  UNL     1      24.388   4.603  51.725  1.00  0.00    -0.340 OA
HETATM    6  C11 UNL     1      23.545   3.518  51.407  1.00  0.00     0.093 A 
ENDROOT
BRANCH   6   7
HETATM    7  C12 UNL     1      24.433   2.565  51.549  1.00  0.00     0.027 C 
BRANCH   7   8
HETATM    8  C13 UNL     1      25.297   1.430  51.718  1.00  0.00     0.084 C 
HETATM    9  C14 UNL     1      26.777   1.891  51.626  1.00  0.00    -0.005 C 
HETATM   10  C15 UNL     1      26.891   1.927  52.965  1.00  0.00    -0.056 C 
HETATM   11  C16 UNL     1      26.072   1.252  53.975  1.00  0.00     0.033 C 
HETATM   12  C22 UNL     1      28.198   2.461  53.551  1.00  0.00     0.076 C 
HETATM   13  C17 UNL     1      25.438   0.735  52.972  1.00  0.00     0.021 C 
HETATM   14  N3  UNL     1      25.049  -0.577  53.218  1.00  0.00    -0.367 N 
HETATM   15  C18 UNL     1      26.302  -1.285  53.136  1.00  0.00     0.110 C 
HETATM   16  H21 UNL     1      24.265  -1.184  53.426  1.00  0.00     0.165 HD
HETATM   17  C19 UNL     1      27.683  -1.397  53.192  1.00  0.00     0.060 C 
HETATM   18 CL1  UNL     1      28.882  -2.724  52.990  1.00  0.00    -0.085 Cl
HETATM   19  C20 UNL     1      28.380  -0.037  53.361  1.00  0.00     0.115 A 
HETATM   20  F1  UNL     1      29.809  -0.181  53.357  1.00  0.00    -0.388 F 
HETATM   21  C21 UNL     1      29.101   1.181  53.521  1.00  0.00     0.256 A 
ENDBRANCH   7   8
ENDBRANCH   6   7
BRANCH   1  22
HETATM   22  N2  UNL     1      21.312   2.862  50.775  1.00  0.00    -0.321 N 
HETATM   23  C6  UNL     1      20.238   2.672  51.704  1.00  0.00     0.249 C 
HETATM   24  O1  UNL     1      20.322   3.555  52.635  1.00  0.00    -0.268 OA
HETATM   25  H11 UNL     1      21.425   2.231  49.986  1.00  0.00     0.169 HD
BRANCH  23  26
HETATM   26  C2  UNL     1      19.241   1.639  51.550  1.00  0.00     0.006 C 
HETATM   27  C1  UNL     1      17.933   1.939  51.379  1.00  0.00     0.046 C 
BRANCH  26  28
HETATM   28  C3  UNL     1      19.702   0.213  51.643  1.00  0.00     0.155 C 
BRANCH  28  29
HETATM   29  N1  UNL     1      19.534  -0.299  52.952  1.00  0.00    -0.417 N 
HETATM   30  C4  UNL     1      20.449   0.064  53.960  1.00  0.00     0.142 C 
HETATM   31  C5  UNL     1      18.432  -1.117  53.243  1.00  0.00     0.142 C 
ENDBRANCH  28  29
ENDBRANCH  26  28
ENDBRANCH  23  26
ENDBRANCH   1  22
TORSDOF 6
ENDMDL
MODEL 3
REMARK VINA RESULT:      -7.9      3.743      5.944
REMARK  6 active torsions:
REMARK  status: ('A' for Active; 'I' for Inactive)
REMARK    1  A    between atoms: C2_2  and  C3_3 
REMARK    2  A    between atoms: C2_2  and  C6_7 
REMARK    3  A    between atoms: C3_3  and  N1_4 
REMARK       I    between atoms: C6_7  and  N2_9 
REMARK    4  A    between atoms: N2_9  and  C7_10 
REMARK    5  A    between atoms: C11_15  and  C12_16 
REMARK    6  A    between atoms: C12_16  and  C13_17 
ROOT
HETATM    1  C7  UNL     1      23.408  -0.330  53.315  1.00  0.00     0.067 A 
HETATM    2  C8  UNL     1      22.370  -0.720  53.996  1.00  0.00     0.037 A 
HETATM    3  C9  UNL     1      21.125   0.151  54.060  1.00  0.00     0.150 A 
HETATM    4  C10 UNL     1      19.914  -0.552  53.527  1.00  0.00     0.044 C 
HETATM    5  O2  UNL     1      21.537   1.223  53.262  1.00  0.00    -0.340 OA
HETATM    6  C11 UNL     1      22.852   0.967  52.823  1.00  0.00     0.093 A 
ENDROOT
BRANCH   6   7
HETATM    7  C12 UNL     1      23.016   2.063  52.125  1.00  0.00     0.027 C 
BRANCH   7   8
HETATM    8  C13 UNL     1      23.253   3.323  51.477  1.00  0.00     0.084 C 
HETATM    9  C14 UNL     1      24.774   3.636  51.500  1.00  0.00    -0.005 C 
HETATM   10  C15 UNL     1      24.927   3.186  50.243  1.00  0.00    -0.056 C 
HETATM   11  C16 UNL     1      23.914   3.020  49.196  1.00  0.00     0.033 C 
HETATM   12  C22 UNL     1      26.347   3.123  49.679  1.00  0.00     0.076 C 
HETATM   13  C17 UNL     1      23.086   3.516  50.059  1.00  0.00     0.021 C 
HETATM   14  N3  UNL     1      22.135   4.335  49.461  1.00  0.00    -0.367 N 
HETATM   15  C18 UNL     1      22.909   5.506  49.130  1.00  0.00     0.110 C 
HETATM   16  H21 UNL     1      21.164   4.412  49.182  1.00  0.00     0.165 HD
HETATM   17  C19 UNL     1      24.078   6.194  48.844  1.00  0.00     0.060 C 
HETATM   18 CL1  UNL     1      24.511   7.891  48.432  1.00  0.00    -0.085 Cl
HETATM   19  C20 UNL     1      25.334   5.326  49.024  1.00  0.00     0.115 A 
HETATM   20  F1  UNL     1      26.529   6.084  48.778  1.00  0.00    -0.388 F 
HETATM   21  C21 UNL     1      26.546   4.589  49.165  1.00  0.00     0.256 A 
ENDBRANCH   7   8
ENDBRANCH   6   7
BRANCH   1  22
HETATM   22  N2  UNL     1      24.697  -0.585  52.890  1.00  0.00    -0.321 N 
HETATM   23  C6  UNL     1      25.673  -0.560  53.939  1.00  0.00     0.249 C 
HETATM   24  O1  UNL     1      25.092  -0.285  55.052  1.00  0.00    -0.268 OA
HETATM   25  H11 UNL     1      24.981  -0.755  51.930  1.00  0.00     0.169 HD
BRANCH  23  26
HETATM   26  C2  UNL     1      27.074  -0.829  53.714  1.00  0.00     0.006 C 
HETATM   27  C1  UNL     1      27.483  -1.721  52.784  1.00  0.00     0.046 C 
BRANCH  26  28
HETATM   28  C3  UNL     1      28.064  -0.119  54.593  1.00  0.00     0.155 C 
BRANCH  28  29
HETATM   29  N1  UNL     1      28.947   0.684  53.831  1.00  0.00    -0.417 N 
HETATM   30  C4  UNL     1      28.569   1.998  53.491  1.00  0.00     0.142 C 
HETATM   31  C5  UNL     1      30.207   0.184  53.471  1.00  0.00     0.142 C 
ENDBRANCH  28  29
ENDBRANCH  26  28
ENDBRANCH  23  26
ENDBRANCH   1  22
TORSDOF 6
ENDMDL
MODEL 4
REMARK VINA RESULT:      -7.8      1.929      4.637
REMARK  6 active torsions:
REMARK  status: ('A' for Active; 'I' for Inactive)
REMARK    1  A    between atoms: C2_2  and  C3_3 
REMARK    2  A    between atoms: C2_2  and  C6_7 
REMARK    3  A    between atoms: C3_3  and  N1_4 
REMARK       I    between atoms: C6_7  and  N2_9 
REMARK    4  A    between atoms: N2_9  and  C7_10 
REMARK    5  A    between atoms: C11_15  and  C12_16 
REMARK    6  A    between atoms: C12_16  and  C13_17 
ROOT
HETATM    1  C7  UNL     1      25.878   2.453  52.097  1.00  0.00     0.067 A 
HETATM    2  C8  UNL     1      26.662   1.704  52.816  1.00  0.00     0.037 A 
HETATM    3  C9  UNL     1      26.180   0.352  53.318  1.00  0.00     0.150 A 
HETATM    4  C10 UNL     1      27.041  -0.773  52.832  1.00  0.00     0.044 C 
HETATM    5  O2  UNL     1      24.892   0.336  52.774  1.00  0.00    -0.340 OA
HETATM    6  C11 UNL     1      24.696   1.539  52.067  1.00  0.00     0.093 A 
ENDROOT
BRANCH   6   7
HETATM    7  C12 UNL     1      23.471   1.306  51.667  1.00  0.00     0.027 C 
BRANCH   7   8
HETATM    8  C13 UNL     1      22.181   0.954  51.140  1.00  0.00     0.084 C 
HETATM    9  C14 UNL     1      21.652  -0.308  51.873  1.00  0.00    -0.005 C 
HETATM   10  C15 UNL     1      20.892   0.438  52.693  1.00  0.00    -0.056 C 
HETATM   11  C16 UNL     1      20.415   1.812  52.507  1.00  0.00     0.033 C 
HETATM   12  C22 UNL     1      20.144  -0.279  53.817  1.00  0.00     0.076 C 
HETATM   13  C17 UNL     1      21.003   1.754  51.356  1.00  0.00     0.021 C 
HETATM   14  N3  UNL     1      20.295   2.433  50.370  1.00  0.00    -0.367 N 
HETATM   15  C18 UNL     1      19.175   1.553  50.143  1.00  0.00     0.110 C 
HETATM   16  H21 UNL     1      20.268   3.264  49.792  1.00  0.00     0.165 HD
HETATM   17  C19 UNL     1      18.273   0.559  50.490  1.00  0.00     0.060 C 
HETATM   18 CL1  UNL     1      16.870  -0.245  49.701  1.00  0.00    -0.085 Cl
HETATM   19  C20 UNL     1      18.609  -0.101  51.837  1.00  0.00     0.115 A 
HETATM   20  F1  UNL     1      17.692  -1.163  52.139  1.00  0.00    -0.388 F 
HETATM   21  C21 UNL     1      18.850  -0.760  53.076  1.00  0.00     0.256 A 
ENDBRANCH   7   8
ENDBRANCH   6   7
BRANCH   1  22
HETATM   22  N2  UNL     1      25.690   3.636  51.408  1.00  0.00    -0.321 N 
HETATM   23  C6  UNL     1      26.295   3.657  50.110  1.00  0.00     0.249 C 
HETATM   24  O1  UNL     1      26.895   2.540  49.903  1.00  0.00    -0.268 OA
HETATM   25  H11 UNL     1      25.197   4.453  51.758  1.00  0.00     0.169 HD
BRANCH  23  26
HETATM   26  C2  UNL     1      26.193   4.787  49.215  1.00  0.00     0.006 C 
HETATM   27  C1  UNL     1      27.288   5.339  48.645  1.00  0.00     0.046 C 
BRANCH  26  28
HETATM   28  C3  UNL     1      24.826   5.364  48.984  1.00  0.00     0.155 C 
BRANCH  28  29
HETATM   29  N1  UNL     1      24.769   6.725  49.370  1.00  0.00    -0.417 N 
HETATM   30  C4  UNL     1      24.634   7.720  48.381  1.00  0.00     0.142 C 
HETATM   31  C5  UNL     1      24.794   7.064  50.731  1.00  0.00     0.142 C 
ENDBRANCH  28  29
ENDBRANCH  26  28
ENDBRANCH  23  26
ENDBRANCH   1  22
TORSDOF 6
ENDMDL
MODEL 5
REMARK VINA RESULT:      -7.5      1.058      1.317
REMARK  6 active torsions:
REMARK  status: ('A' for Active; 'I' for Inactive)
REMARK    1  A    between atoms: C2_2  and  C3_3 
REMARK    2  A    between atoms: C2_2  and  C6_7 
REMARK    3  A    between atoms: C3_3  and  N1_4 
REMARK       I    between atoms: C6_7  and  N2_9 
REMARK    4  A    between atoms: N2_9  and  C7_10 
REMARK    5  A    between atoms: C11_15  and  C12_16 
REMARK    6  A    between atoms: C12_16  and  C13_17 
ROOT
HETATM    1  C7  UNL     1      24.819   3.260  50.132  1.00  0.00     0.067 A 
HETATM    2  C8  UNL     1      24.849   4.466  49.645  1.00  0.00     0.037 A 
HETATM    3  C9  UNL     1      23.552   5.204  49.346  1.00  0.00     0.150 A 
HETATM    4  C10 UNL     1      23.439   6.485  50.114  1.00  0.00     0.044 C 
HETATM    5  O2  UNL     1      22.625   4.237  49.746  1.00  0.00    -0.340 OA
HETATM    6  C11 UNL     1      23.334   3.106  50.202  1.00  0.00     0.093 A 
ENDROOT
BRANCH   6   7
HETATM    7  C12 UNL     1      22.298   2.366  50.507  1.00  0.00     0.027 C 
BRANCH   7   8
HETATM    8  C13 UNL     1      21.244   1.441  50.821  1.00  0.00     0.084 C 
HETATM    9  C14 UNL     1      21.838   0.220  51.575  1.00  0.00    -0.005 C 
HETATM   10  C15 UNL     1      21.476   0.728  52.766  1.00  0.00    -0.056 C 
HETATM   11  C16 UNL     1      20.458   1.740  53.062  1.00  0.00     0.033 C 
HETATM   12  C22 UNL     1      21.918  -0.023  54.022  1.00  0.00     0.076 C 
HETATM   13  C17 UNL     1      20.217   1.726  51.790  1.00  0.00     0.021 C 
HETATM   14  N3  UNL     1      18.864   1.882  51.512  1.00  0.00    -0.367 N 
HETATM   15  C18 UNL     1      18.325   0.602  51.901  1.00  0.00     0.110 C 
HETATM   16  H21 UNL     1      18.156   2.519  51.166  1.00  0.00     0.165 HD
HETATM   17  C19 UNL     1      18.322  -0.594  52.603  1.00  0.00     0.060 C 
HETATM   18 CL1  UNL     1      17.227  -2.016  52.726  1.00  0.00    -0.085 Cl
HETATM   19  C20 UNL     1      19.621  -0.820  53.393  1.00  0.00     0.115 A 
HETATM   20  F1  UNL     1      19.610  -2.092  54.059  1.00  0.00    -0.388 F 
HETATM   21  C21 UNL     1      20.791  -1.102  54.155  1.00  0.00     0.256 A 
ENDBRANCH   7   8
ENDBRANCH   6   7
BRANCH   1  22
HETATM   22  N2  UNL     1      25.519   2.154  50.574  1.00  0.00    -0.321 N 
HETATM   23  C6  UNL     1      25.573   2.030  52.000  1.00  0.00     0.249 C 
HETATM   24  O1  UNL     1      24.949   3.018  52.536  1.00  0.00    -0.268 OA
HETATM   25  H11 UNL     1      25.990   1.476  49.982  1.00  0.00     0.169 HD
BRANCH  23  26
HETATM   26  C2  UNL     1      26.230   0.930  52.667  1.00  0.00     0.006 C 
HETATM   27  C1  UNL     1      26.421  -0.258  52.052  1.00  0.00     0.046 C 
BRANCH  26  28
HETATM   28  C3  UNL     1      26.646   1.137  54.096  1.00  0.00     0.155 C 
BRANCH  28  29
HETATM   29  N1  UNL     1      28.056   1.200  54.219  1.00  0.00    -0.417 N 
HETATM   30  C4  UNL     1      28.746   0.126  54.815  1.00  0.00     0.142 C 
HETATM   31  C5  UNL     1      28.751   2.301  53.698  1.00  0.00     0.142 C 
ENDBRANCH  28  29
ENDBRANCH  26  28
ENDBRANCH  23  26
ENDBRANCH   1  22
TORSDOF 6
ENDMDL
MODEL 6
REMARK VINA RESULT:      -7.2      2.467      5.165
REMARK  6 active torsions:
REMARK  status: ('A' for Active; 'I' for Inactive)
REMARK    1  A    between atoms: C2_2  and  C3_3 
REMARK    2  A    between atoms: C2_2  and  C6_7 
REMARK    3  A    between atoms: C3_3  and  N1_4 
REMARK       I    between atoms: C6_7  and  N2_9 
REMARK    4  A    between atoms: N2_9  and  C7_10 
REMARK    5  A    between atoms: C11_15  and  C12_16 
REMARK    6  A    between atoms: C12_16  and  C13_17 
ROOT
HETATM    1  C7  UNL     1      26.319   2.311  51.968  1.00  0.00     0.067 A 
HETATM    2  C8  UNL     1      27.086   1.360  52.417  1.00  0.00     0.037 A 
HETATM    3  C9  UNL     1      26.477   0.131  53.075  1.00  0.00     0.150 A 
HETATM    4  C10 UNL     1      26.847  -1.135  52.364  1.00  0.00     0.044 C 
HETATM    5  O2  UNL     1      25.119   0.447  52.969  1.00  0.00    -0.340 OA
HETATM    6  C11 UNL     1      25.004   1.701  52.335  1.00  0.00     0.093 A 
ENDROOT
BRANCH   6   7
HETATM    7  C12 UNL     1      23.697   1.783  52.351  1.00  0.00     0.027 C 
BRANCH   7   8
HETATM    8  C13 UNL     1      22.269   1.867  52.227  1.00  0.00     0.084 C 
HETATM    9  C14 UNL     1      21.909   2.710  50.974  1.00  0.00    -0.005 C 
HETATM   10  C15 UNL     1      21.708   1.603  50.238  1.00  0.00    -0.056 C 
HETATM   11  C16 UNL     1      21.427   0.237  50.690  1.00  0.00     0.033 C 
HETATM   12  C22 UNL     1      21.411   1.785  48.749  1.00  0.00     0.076 C 
HETATM   13  C17 UNL     1      21.445   0.736  51.884  1.00  0.00     0.021 C 
HETATM   14  N3  UNL     1      20.503   0.141  52.715  1.00  0.00    -0.367 N 
HETATM   15  C18 UNL     1      19.268   0.691  52.214  1.00  0.00     0.110 C 
HETATM   16  H21 UNL     1      20.365  -0.500  53.488  1.00  0.00     0.165 HD
HETATM   17  C19 UNL     1      18.454   1.271  51.253  1.00  0.00     0.060 C 
HETATM   18 CL1  UNL     1      16.738   1.806  51.163  1.00  0.00    -0.085 Cl
HETATM   19  C20 UNL     1      19.225   1.656  49.980  1.00  0.00     0.115 A 
HETATM   20  F1  UNL     1      18.368   2.307  49.029  1.00  0.00    -0.388 F 
HETATM   21  C21 UNL     1      19.865   2.039  48.766  1.00  0.00     0.256 A 
ENDBRANCH   7   8
ENDBRANCH   6   7
BRANCH   1  22
HETATM   22  N2  UNL     1      26.213   3.541  51.350  1.00  0.00    -0.321 N 
HETATM   23  C6  UNL     1      26.535   3.523  49.954  1.00  0.00     0.249 C 
HETATM   24  O1  UNL     1      26.867   2.329  49.612  1.00  0.00    -0.268 OA
HETATM   25  H11 UNL     1      25.958   4.413  51.806  1.00  0.00     0.169 HD
BRANCH  23  26
HETATM   26  C2  UNL     1      26.460   4.696  49.116  1.00  0.00     0.006 C 
HETATM   27  C1  UNL     1      27.571   5.265  48.594  1.00  0.00     0.046 C 
BRANCH  26  28
HETATM   28  C3  UNL     1      25.103   5.299  48.889  1.00  0.00     0.155 C 
BRANCH  28  29
HETATM   29  N1  UNL     1      25.090   6.677  49.215  1.00  0.00    -0.417 N 
HETATM   30  C4  UNL     1      25.287   7.074  50.552  1.00  0.00     0.142 C 
HETATM   31  C5  UNL     1      24.936   7.630  48.198  1.00  0.00     0.142 C 
ENDBRANCH  28  29
ENDBRANCH  26  28
ENDBRANCH  23  26
ENDBRANCH   1  22
TORSDOF 6
ENDMDL
MODEL 7
REMARK VINA RESULT:      -7.0      2.039      4.828
REMARK  6 active torsions:
REMARK  status: ('A' for Active; 'I' for Inactive)
REMARK    1  A    between atoms: C2_2  and  C3_3 
REMARK    2  A    between atoms: C2_2  and  C6_7 
REMARK    3  A    between atoms: C3_3  and  N1_4 
REMARK       I    between atoms: C6_7  and  N2_9 
REMARK    4  A    between atoms: N2_9  and  C7_10 
REMARK    5  A    between atoms: C11_15  and  C12_16 
REMARK    6  A    between atoms: C12_16  and  C13_17 
ROOT
HETATM    1  C7  UNL     1      26.534   1.842  52.853  1.00  0.00     0.067 A 
HETATM    2  C8  UNL     1      27.568   1.106  53.140  1.00  0.00     0.037 A 
HETATM    3  C9  UNL     1      27.385  -0.233  53.839  1.00  0.00     0.150 A 
HETATM    4  C10 UNL     1      27.927  -1.373  53.032  1.00  0.00     0.044 C 
HETATM    5  O2  UNL     1      25.992  -0.256  53.959  1.00  0.00    -0.340 OA
HETATM    6  C11 UNL     1      25.480   0.932  53.398  1.00  0.00     0.093 A 
ENDROOT
BRANCH   6   7
HETATM    7  C12 UNL     1      24.212   0.695  53.621  1.00  0.00     0.027 C 
BRANCH   7   8
HETATM    8  C13 UNL     1      22.803   0.434  53.726  1.00  0.00     0.084 C 
HETATM    9  C14 UNL     1      22.035   1.346  52.731  1.00  0.00    -0.005 C 
HETATM   10  C15 UNL     1      21.949   0.354  51.826  1.00  0.00    -0.056 C 
HETATM   11  C16 UNL     1      22.069  -1.092  52.034  1.00  0.00     0.033 C 
HETATM   12  C22 UNL     1      21.344   0.688  50.463  1.00  0.00     0.076 C 
HETATM   13  C17 UNL     1      22.201  -0.799  53.288  1.00  0.00     0.021 C 
HETATM   14  N3  UNL     1      21.589  -1.737  54.112  1.00  0.00    -0.367 N 
HETATM   15  C18 UNL     1      20.191  -1.444  53.915  1.00  0.00     0.110 C 
HETATM   16  H21 UNL     1      21.745  -2.505  54.754  1.00  0.00     0.165 HD
HETATM   17  C19 UNL     1      19.102  -0.945  53.217  1.00  0.00     0.060 C 
HETATM   18 CL1  UNL     1      17.325  -0.853  53.486  1.00  0.00    -0.085 Cl
HETATM   19  C20 UNL     1      19.514  -0.181  51.948  1.00  0.00     0.115 A 
HETATM   20  F1  UNL     1      18.369   0.373  51.280  1.00  0.00    -0.388 F 
HETATM   21  C21 UNL     1      19.812   0.537  50.754  1.00  0.00     0.256 A 
ENDBRANCH   7   8
ENDBRANCH   6   7
BRANCH   1  22
HETATM   22  N2  UNL     1      26.039   3.009  52.306  1.00  0.00    -0.321 N 
HETATM   23  C6  UNL     1      26.255   3.129  50.894  1.00  0.00     0.249 C 
HETATM   24  O1  UNL     1      26.889   2.093  50.473  1.00  0.00    -0.268 OA
HETATM   25  H11 UNL     1      25.578   3.755  52.819  1.00  0.00     0.169 HD
BRANCH  23  26
HETATM   26  C2  UNL     1      25.790   4.258  50.123  1.00  0.00     0.006 C 
HETATM   27  C1  UNL     1      26.482   4.720  49.057  1.00  0.00     0.046 C 
BRANCH  26  28
HETATM   28  C3  UNL     1      24.533   4.939  50.583  1.00  0.00     0.155 C 
BRANCH  28  29
HETATM   29  N1  UNL     1      23.380   4.265  50.114  1.00  0.00    -0.417 N 
HETATM   30  C4  UNL     1      23.463   3.482  48.946  1.00  0.00     0.142 C 
HETATM   31  C5  UNL     1      22.185   4.339  50.845  1.00  0.00     0.142 C 
ENDBRANCH  28  29
ENDBRANCH  26  28
ENDBRANCH  23  26
ENDBRANCH   1  22
TORSDOF 6
ENDMDL
MODEL 8
REMARK VINA RESULT:      -6.9      3.797      5.816
REMARK  6 active torsions:
REMARK  status: ('A' for Active; 'I' for Inactive)
REMARK    1  A    between atoms: C2_2  and  C3_3 
REMARK    2  A    between atoms: C2_2  and  C6_7 
REMARK    3  A    between atoms: C3_3  and  N1_4 
REMARK       I    between atoms: C6_7  and  N2_9 
REMARK    4  A    between atoms: N2_9  and  C7_10 
REMARK    5  A    between atoms: C11_15  and  C12_16 
REMARK    6  A    between atoms: C12_16  and  C13_17 
ROOT
HETATM    1  C7  UNL     1      22.714   0.552  52.957  1.00  0.00     0.067 A 
HETATM    2  C8  UNL     1      21.973  -0.207  53.710  1.00  0.00     0.037 A 
HETATM    3  C9  UNL     1      20.532   0.178  54.003  1.00  0.00     0.150 A 
HETATM    4  C10 UNL     1      19.561  -0.867  53.545  1.00  0.00     0.044 C 
HETATM    5  O2  UNL     1      20.445   1.368  53.274  1.00  0.00    -0.340 OA
HETATM    6  C11 UNL     1      21.694   1.604  52.663  1.00  0.00     0.093 A 
ENDROOT
BRANCH   6   7
HETATM    7  C12 UNL     1      21.383   2.727  52.064  1.00  0.00     0.027 C 
BRANCH   7   8
HETATM    8  C13 UNL     1      21.168   3.952  51.346  1.00  0.00     0.084 C 
HETATM    9  C14 UNL     1      21.893   5.113  52.080  1.00  0.00    -0.005 C 
HETATM   10  C15 UNL     1      22.943   5.039  51.244  1.00  0.00    -0.056 C 
HETATM   11  C16 UNL     1      23.010   4.453  49.902  1.00  0.00     0.033 C 
HETATM   12  C22 UNL     1      24.149   5.932  51.538  1.00  0.00     0.076 C 
HETATM   13  C17 UNL     1      21.748   4.212  50.053  1.00  0.00     0.021 C 
HETATM   14  N3  UNL     1      21.040   4.367  48.867  1.00  0.00    -0.367 N 
HETATM   15  C18 UNL     1      21.023   5.800  48.709  1.00  0.00     0.110 C 
HETATM   16  H21 UNL     1      20.566   3.881  48.114  1.00  0.00     0.165 HD
HETATM   17  C19 UNL     1      21.494   7.088  48.914  1.00  0.00     0.060 C 
HETATM   18 CL1  UNL     1      21.015   8.739  48.383  1.00  0.00    -0.085 Cl
HETATM   19  C20 UNL     1      22.645   7.142  49.931  1.00  0.00     0.115 A 
HETATM   20  F1  UNL     1      23.071   8.493  50.164  1.00  0.00    -0.388 F 
HETATM   21  C21 UNL     1      23.718   7.276  50.859  1.00  0.00     0.256 A 
ENDBRANCH   7   8
ENDBRANCH   6   7
BRANCH   1  22
HETATM   22  N2  UNL     1      23.941   0.780  52.363  1.00  0.00    -0.321 N 
HETATM   23  C6  UNL     1      25.025   0.068  52.972  1.00  0.00     0.249 C 
HETATM   24  O1  UNL     1      24.578  -0.621  53.961  1.00  0.00    -0.268 OA
HETATM   25  H11 UNL     1      24.113   1.405  51.581  1.00  0.00     0.169 HD
BRANCH  23  26
HETATM   26  C2  UNL     1      26.383   0.143  52.487  1.00  0.00     0.006 C 
HETATM   27  C1  UNL     1      26.787   1.137  51.664  1.00  0.00     0.046 C 
BRANCH  26  28
HETATM   28  C3  UNL     1      27.322  -0.959  52.887  1.00  0.00     0.155 C 
BRANCH  28  29
HETATM   29  N1  UNL     1      28.352  -0.479  53.732  1.00  0.00    -0.417 N 
HETATM   30  C4  UNL     1      28.012   0.201  54.918  1.00  0.00     0.142 C 
HETATM   31  C5  UNL     1      29.692  -0.731  53.408  1.00  0.00     0.142 C 
ENDBRANCH  28  29
ENDBRANCH  26  28
ENDBRANCH  23  26
ENDBRANCH   1  22
TORSDOF 6
ENDMDL
MODEL 9
REMARK VINA RESULT:      -6.8      3.479      7.101
REMARK  6 active torsions:
REMARK  status: ('A' for Active; 'I' for Inactive)
REMARK    1  A    between atoms: C2_2  and  C3_3 
REMARK    2  A    between atoms: C2_2  and  C6_7 
REMARK    3  A    between atoms: C3_3  and  N1_4 
REMARK       I    between atoms: C6_7  and  N2_9 
REMARK    4  A    between atoms: N2_9  and  C7_10 
REMARK    5  A    between atoms: C11_15  and  C12_16 
REMARK    6  A    between atoms: C12_16  and  C13_17 
ROOT
HETATM    1  C7  UNL     1      21.252   5.497  50.900  1.00  0.00     0.067 A 
HETATM    2  C8  UNL     1      21.383   6.738  50.532  1.00  0.00     0.037 A 
HETATM    3  C9  UNL     1      22.700   7.468  50.751  1.00  0.00     0.150 A 
HETATM    4  C10 UNL     1      23.292   7.966  49.468  1.00  0.00     0.044 C 
HETATM    5  O2  UNL     1      23.448   6.446  51.343  1.00  0.00    -0.340 OA
HETATM    6  C11 UNL     1      22.632   5.300  51.441  1.00  0.00     0.093 A 
ENDROOT
BRANCH   6   7
HETATM    7  C12 UNL     1      23.512   4.511  52.006  1.00  0.00     0.027 C 
BRANCH   7   8
HETATM    8  C13 UNL     1      24.571   3.698  52.535  1.00  0.00     0.084 C 
HETATM    9  C14 UNL     1      23.965   2.568  53.410  1.00  0.00    -0.005 C 
HETATM   10  C15 UNL     1      24.057   1.683  52.403  1.00  0.00    -0.056 C 
HETATM   11  C16 UNL     1      24.908   1.733  51.210  1.00  0.00     0.033 C 
HETATM   12  C22 UNL     1      23.467   0.290  52.625  1.00  0.00     0.076 C 
HETATM   13  C17 UNL     1      25.376   2.830  51.713  1.00  0.00     0.021 C 
HETATM   14  N3  UNL     1      26.737   2.979  51.472  1.00  0.00    -0.367 N 
HETATM   15  C18 UNL     1      27.311   2.008  52.370  1.00  0.00     0.110 C 
HETATM   16  H21 UNL     1      27.434   3.478  50.931  1.00  0.00     0.165 HD
HETATM   17  C19 UNL     1      27.297   0.861  53.149  1.00  0.00     0.060 C 
HETATM   18 CL1  UNL     1      28.477  -0.004  54.197  1.00  0.00    -0.085 Cl
HETATM   19  C20 UNL     1      25.903   0.220  53.232  1.00  0.00     0.115 A 
HETATM   20  F1  UNL     1      25.910  -0.930  54.092  1.00  0.00    -0.388 F 
HETATM   21  C21 UNL     1      24.645  -0.438  53.356  1.00  0.00     0.256 A 
ENDBRANCH   7   8
ENDBRANCH   6   7
BRANCH   1  22
HETATM   22  N2  UNL     1      20.448   4.379  50.996  1.00  0.00    -0.321 N 
HETATM   23  C6  UNL     1      20.543   3.493  49.874  1.00  0.00     0.249 C 
HETATM   24  O1  UNL     1      21.371   3.979  49.020  1.00  0.00    -0.268 OA
HETATM   25  H11 UNL     1      19.811   4.172  51.760  1.00  0.00     0.169 HD
BRANCH  23  26
HETATM   26  C2  UNL     1      19.808   2.253  49.789  1.00  0.00     0.006 C 
HETATM   27  C1  UNL     1      20.374   1.070  50.119  1.00  0.00     0.046 C 
BRANCH  26  28
HETATM   28  C3  UNL     1      18.402   2.318  49.264  1.00  0.00     0.155 C 
BRANCH  28  29
HETATM   29  N1  UNL     1      17.472   1.846  50.222  1.00  0.00    -0.417 N 
HETATM   30  C4  UNL     1      17.259   2.584  51.403  1.00  0.00     0.142 C 
HETATM   31  C5  UNL     1      16.735   0.682  49.961  1.00  0.00     0.142 C 
ENDBRANCH  28  29
ENDBRANCH  26  28
ENDBRANCH  23  26
ENDBRANCH   1  22
TORSDOF 6
ENDMDL
