MODEL 1
REMARK VINA RESULT:      -8.5      0.000      0.000
REMARK  5 active torsions:
REMARK  status: ('A' for Active; 'I' for Inactive)
REMARK    1  A    between atoms: N1_1  and  N2_2 
REMARK    2  A    between atoms: N2_2  and  C1_3 
REMARK    3  A    between atoms: C2_4  and  C3_5 
REMARK    4  A    between atoms: C3_5  and  C4_6 
REMARK    5  A    between atoms: C5_8  and  C6_9 
ROOT
HETATM    1  C4  UNL     1      22.926   1.960  51.848  1.00  0.00     0.146 A 
HETATM    2  N3  UNL     1      24.288   1.564  51.913  1.00  0.00    -0.278 NA
HETATM    3  C5  UNL     1      24.543   0.628  52.732  1.00  0.00     0.073 A 
HETATM    4  C12 UNL     1      23.254   0.319  53.309  1.00  0.00     0.002 A 
HETATM    5  C13 UNL     1      22.879  -0.601  54.254  1.00  0.00     0.014 A 
HETATM    6  C14 UNL     1      21.585  -0.747  54.679  1.00  0.00     0.001 A 
HETATM    7  C15 UNL     1      20.581   0.037  54.171  1.00  0.00     0.001 A 
HETATM    8  C16 UNL     1      20.927   0.971  53.220  1.00  0.00     0.010 A 
HETATM    9  C17 UNL     1      22.233   1.091  52.816  1.00  0.00    -0.021 A 
ENDROOT
BRANCH   1  10
HETATM   10  C3  UNL     1      22.762   3.406  52.331  1.00  0.00     0.060 C 
BRANCH  10  11
HETATM   11  C2  UNL     1      21.795   4.168  51.523  1.00  0.00    -0.006 C 
HETATM   12  C1  UNL     1      22.001   5.476  51.362  1.00  0.00     0.097 C 
BRANCH  12  13
HETATM   13  N2  UNL     1      23.198   5.858  52.063  1.00  0.00    -0.335 N 
HETATM   14  H3  UNL     1      23.769   5.658  52.932  1.00  0.00     0.179 HD
BRANCH  13  15
HETATM   15  N1  UNL     1      24.329   6.701  52.050  1.00  0.00    -0.250 NA
HETATM   16  H1  UNL     1      24.982   6.492  52.837  1.00  0.00     0.143 HD
HETATM   17  H2  UNL     1      24.902   6.510  51.180  1.00  0.00     0.143 HD
ENDBRANCH  13  15
ENDBRANCH  12  13
ENDBRANCH  10  11
ENDBRANCH   1  10
BRANCH   3  18
HETATM   18  C6  UNL     1      25.866   0.095  52.931  1.00  0.00    -0.007 A 
HETATM   19  C7  UNL     1      26.397  -1.120  52.621  1.00  0.00     0.015 A 
HETATM   20  C8  UNL     1      27.673  -1.533  52.853  1.00  0.00     0.024 A 
HETATM   21  C9  UNL     1      28.563  -0.678  53.461  1.00  0.00     0.034 A 
HETATM   22 CL1  UNL     1      30.211  -1.155  53.782  1.00  0.00    -0.084 Cl
HETATM   23  C10 UNL     1      28.119   0.561  53.807  1.00  0.00     0.024 A 
HETATM   24  C11 UNL     1      26.816   0.906  53.541  1.00  0.00     0.015 A 
ENDBRANCH   3  18
TORSDOF 5
ENDMDL
MODEL 2
REMARK VINA RESULT:      -8.5      3.896      6.341
REMARK  5 active torsions:
REMARK  status: ('A' for Active; 'I' for Inactive)
REMARK    1  A    between atoms: N1_1  and  N2_2 
REMARK    2  A    between atoms: N2_2  and  C1_3 
REMARK    3  A    between atoms: C2_4  and  C3_5 
REMARK    4  A    between atoms: C3_5  and  C4_6 
REMARK    5  A    between atoms: C5_8  and  C6_9 
ROOT
HETATM    1  C4  UNL     1      26.120   1.015  53.540  1.00  0.00     0.146 A 
HETATM    2  N3  UNL     1      26.489   2.058  52.650  1.00  0.00    -0.278 NA
HETATM    3  C5  UNL     1      25.601   2.390  51.805  1.00  0.00     0.073 A 
HETATM    4  C12 UNL     1      24.494   1.512  52.110  1.00  0.00     0.002 A 
HETATM    5  C13 UNL     1      23.251   1.388  51.546  1.00  0.00     0.014 A 
HETATM    6  C14 UNL     1      22.322   0.481  51.982  1.00  0.00     0.001 A 
HETATM    7  C15 UNL     1      22.596  -0.366  53.025  1.00  0.00     0.001 A 
HETATM    8  C16 UNL     1      23.837  -0.265  53.612  1.00  0.00     0.010 A 
HETATM    9  C17 UNL     1      24.745   0.655  53.151  1.00  0.00    -0.021 A 
ENDROOT
BRANCH   1  10
HETATM   10  C3  UNL     1      26.999  -0.222  53.314  1.00  0.00     0.060 C 
BRANCH  10  11
HETATM   11  C2  UNL     1      28.438   0.080  53.405  1.00  0.00    -0.006 C 
HETATM   12  C1  UNL     1      29.293  -0.940  53.474  1.00  0.00     0.097 C 
BRANCH  12  13
HETATM   13  N2  UNL     1      28.559  -2.177  53.442  1.00  0.00    -0.335 N 
HETATM   14  H3  UNL     1      27.623  -2.612  53.681  1.00  0.00     0.179 HD
BRANCH  13  15
HETATM   15  N1  UNL     1      28.604  -3.543  53.092  1.00  0.00    -0.250 NA
HETATM   16  H1  UNL     1      29.354  -4.055  53.608  1.00  0.00     0.143 HD
HETATM   17  H2  UNL     1      27.708  -4.017  53.399  1.00  0.00     0.143 HD
ENDBRANCH  13  15
ENDBRANCH  12  13
ENDBRANCH  10  11
ENDBRANCH   1  10
BRANCH   3  18
HETATM   18  C6  UNL     1      25.796   3.428  50.825  1.00  0.00    -0.007 A 
HETATM   19  C7  UNL     1      26.724   3.563  49.838  1.00  0.00     0.015 A 
HETATM   20  C8  UNL     1      26.827   4.592  48.954  1.00  0.00     0.024 A 
HETATM   21  C9  UNL     1      25.929   5.633  49.017  1.00  0.00     0.034 A 
HETATM   22 CL1  UNL     1      26.014   6.979  47.908  1.00  0.00    -0.084 Cl
HETATM   23  C10 UNL     1      24.964   5.583  49.975  1.00  0.00     0.024 A 
HETATM   24  C11 UNL     1      24.925   4.510  50.832  1.00  0.00     0.015 A 
ENDBRANCH   3  18
TORSDOF 5
ENDMDL
MODEL 3
REMARK VINA RESULT:      -8.2      3.646      6.353
REMARK  5 active torsions:
REMARK  status: ('A' for Active; 'I' for Inactive)
REMARK    1  A    between atoms: N1_1  and  N2_2 
REMARK    2  A    between atoms: N2_2  and  C1_3 
REMARK    3  A    between atoms: C2_4  and  C3_5 
REMARK    4  A    between atoms: C3_5  and  C4_6 
REMARK    5  A    between atoms: C5_8  and  C6_9 
ROOT
HETATM    1  C4  UNL     1      24.953   0.640  53.334  1.00  0.00     0.146 A 
HETATM    2  N3  UNL     1      24.559   1.245  52.111  1.00  0.00    -0.278 NA
HETATM    3  C5  UNL     1      23.375   0.984  51.733  1.00  0.00     0.073 A 
HETATM    4  C12 UNL     1      22.868   0.116  52.772  1.00  0.00     0.002 A 
HETATM    5  C13 UNL     1      21.652  -0.496  52.930  1.00  0.00     0.014 A 
HETATM    6  C14 UNL     1      21.354  -1.295  54.002  1.00  0.00     0.001 A 
HETATM    7  C15 UNL     1      22.278  -1.528  54.989  1.00  0.00     0.001 A 
HETATM    8  C16 UNL     1      23.509  -0.927  54.857  1.00  0.00     0.010 A 
HETATM    9  C17 UNL     1      23.775  -0.131  53.771  1.00  0.00    -0.021 A 
ENDROOT
BRANCH   1  10
HETATM   10  C3  UNL     1      26.093  -0.359  53.098  1.00  0.00     0.060 C 
BRANCH  10  11
HETATM   11  C2  UNL     1      27.394   0.145  53.567  1.00  0.00    -0.006 C 
HETATM   12  C1  UNL     1      28.434  -0.690  53.558  1.00  0.00     0.097 C 
BRANCH  12  13
HETATM   13  N2  UNL     1      28.009  -1.972  53.060  1.00  0.00    -0.335 N 
HETATM   14  H3  UNL     1      27.239  -2.455  52.517  1.00  0.00     0.179 HD
BRANCH  13  15
HETATM   15  N1  UNL     1      28.324  -3.344  52.974  1.00  0.00    -0.250 NA
HETATM   16  H1  UNL     1      27.754  -3.832  52.248  1.00  0.00     0.143 HD
HETATM   17  H2  UNL     1      29.322  -3.457  52.637  1.00  0.00     0.143 HD
ENDBRANCH  13  15
ENDBRANCH  12  13
ENDBRANCH  10  11
ENDBRANCH   1  10
BRANCH   3  18
HETATM   18  C6  UNL     1      22.803   1.509  50.520  1.00  0.00    -0.007 A 
HETATM   19  C7  UNL     1      21.762   1.072  49.760  1.00  0.00     0.015 A 
HETATM   20  C8  UNL     1      21.292   1.643  48.617  1.00  0.00     0.024 A 
HETATM   21  C9  UNL     1      21.893   2.782  48.131  1.00  0.00     0.034 A 
HETATM   22 CL1  UNL     1      21.332   3.557  46.671  1.00  0.00    -0.084 Cl
HETATM   23  C10 UNL     1      22.945   3.292  48.828  1.00  0.00     0.024 A 
HETATM   24  C11 UNL     1      23.362   2.658  49.974  1.00  0.00     0.015 A 
ENDBRANCH   3  18
TORSDOF 5
ENDMDL
MODEL 4
REMARK VINA RESULT:      -8.2      3.495      6.443
REMARK  5 active torsions:
REMARK  status: ('A' for Active; 'I' for Inactive)
REMARK    1  A    between atoms: N1_1  and  N2_2 
REMARK    2  A    between atoms: N2_2  and  C1_3 
REMARK    3  A    between atoms: C2_4  and  C3_5 
REMARK    4  A    between atoms: C3_5  and  C4_6 
REMARK    5  A    between atoms: C5_8  and  C6_9 
ROOT
HETATM    1  C4  UNL     1      26.611   1.276  51.951  1.00  0.00     0.146 A 
HETATM    2  N3  UNL     1      25.462   0.643  52.495  1.00  0.00    -0.278 NA
HETATM    3  C5  UNL     1      24.348   1.095  52.087  1.00  0.00     0.073 A 
HETATM    4  C12 UNL     1      24.723   2.146  51.168  1.00  0.00     0.002 A 
HETATM    5  C13 UNL     1      23.966   3.001  50.410  1.00  0.00     0.014 A 
HETATM    6  C14 UNL     1      24.513   3.947  49.584  1.00  0.00     0.001 A 
HETATM    7  C15 UNL     1      25.873   4.089  49.474  1.00  0.00     0.001 A 
HETATM    8  C16 UNL     1      26.660   3.243  50.224  1.00  0.00     0.010 A 
HETATM    9  C17 UNL     1      26.079   2.306  51.042  1.00  0.00    -0.021 A 
ENDROOT
BRANCH   1  10
HETATM   10  C3  UNL     1      27.400   1.999  53.051  1.00  0.00     0.060 C 
BRANCH  10  11
HETATM   11  C2  UNL     1      28.645   1.300  53.408  1.00  0.00    -0.006 C 
HETATM   12  C1  UNL     1      28.628   0.476  54.456  1.00  0.00     0.097 C 
BRANCH  12  13
HETATM   13  N2  UNL     1      27.307   0.464  55.028  1.00  0.00    -0.335 N 
HETATM   14  H3  UNL     1      26.568   1.086  55.462  1.00  0.00     0.179 HD
BRANCH  13  15
HETATM   15  N1  UNL     1      26.198  -0.339  55.365  1.00  0.00    -0.250 NA
HETATM   16  H1  UNL     1      25.798  -0.084  56.295  1.00  0.00     0.143 HD
HETATM   17  H2  UNL     1      25.408  -0.155  54.683  1.00  0.00     0.143 HD
ENDBRANCH  13  15
ENDBRANCH  12  13
ENDBRANCH  10  11
ENDBRANCH   1  10
BRANCH   3  18
HETATM   18  C6  UNL     1      23.079   0.576  52.528  1.00  0.00    -0.007 A 
HETATM   19  C7  UNL     1      22.701   0.032  53.718  1.00  0.00     0.015 A 
HETATM   20  C8  UNL     1      21.463  -0.435  54.041  1.00  0.00     0.024 A 
HETATM   21  C9  UNL     1      20.452  -0.380  53.109  1.00  0.00     0.034 A 
HETATM   22 CL1  UNL     1      18.848  -0.965  53.470  1.00  0.00    -0.084 Cl
HETATM   23  C10 UNL     1      20.740   0.149  51.889  1.00  0.00     0.024 A 
HETATM   24  C11 UNL     1      22.014   0.601  51.637  1.00  0.00     0.015 A 
ENDBRANCH   3  18
TORSDOF 5
ENDMDL
MODEL 5
REMARK VINA RESULT:      -7.9      3.567      5.706
REMARK  5 active torsions:
REMARK  status: ('A' for Active; 'I' for Inactive)
REMARK    1  A    between atoms: N1_1  and  N2_2 
REMARK    2  A    between atoms: N2_2  and  C1_3 
REMARK    3  A    between atoms: C2_4  and  C3_5 
REMARK    4  A    between atoms: C3_5  and  C4_6 
REMARK    5  A    between atoms: C5_8  and  C6_9 
ROOT
HETATM    1  C4  UNL     1      25.742   2.511  52.108  1.00  0.00     0.146 A 
HETATM    2  N3  UNL     1      24.337   2.308  52.143  1.00  0.00    -0.278 NA
HETATM    3  C5  UNL     1      23.966   1.135  52.455  1.00  0.00     0.073 A 
HETATM    4  C12 UNL     1      25.209   0.427  52.664  1.00  0.00     0.002 A 
HETATM    5  C13 UNL     1      25.465  -0.871  53.018  1.00  0.00     0.014 A 
HETATM    6  C14 UNL     1      26.734  -1.365  53.171  1.00  0.00     0.001 A 
HETATM    7  C15 UNL     1      27.832  -0.568  52.970  1.00  0.00     0.001 A 
HETATM    8  C16 UNL     1      27.606   0.742  52.613  1.00  0.00     0.010 A 
HETATM    9  C17 UNL     1      26.322   1.205  52.469  1.00  0.00    -0.021 A 
ENDROOT
BRANCH   1  10
HETATM   10  C3  UNL     1      26.204   2.839  50.682  1.00  0.00     0.060 C 
BRANCH  10  11
HETATM   11  C2  UNL     1      25.334   3.822  50.016  1.00  0.00    -0.006 C 
HETATM   12  C1  UNL     1      25.909   4.791  49.302  1.00  0.00     0.097 C 
BRANCH  12  13
HETATM   13  N2  UNL     1      27.338   4.635  49.356  1.00  0.00    -0.335 N 
HETATM   14  H3  UNL     1      28.109   4.041  49.774  1.00  0.00     0.179 HD
BRANCH  13  15
HETATM   15  N1  UNL     1      28.576   5.142  48.909  1.00  0.00    -0.250 NA
HETATM   16  H1  UNL     1      29.305   5.108  49.656  1.00  0.00     0.143 HD
HETATM   17  H2  UNL     1      28.960   4.517  48.145  1.00  0.00     0.143 HD
ENDBRANCH  13  15
ENDBRANCH  12  13
ENDBRANCH  10  11
ENDBRANCH   1  10
BRANCH   3  18
HETATM   18  C6  UNL     1      22.582   0.745  52.543  1.00  0.00    -0.007 A 
HETATM   19  C7  UNL     1      21.823   0.379  53.612  1.00  0.00     0.015 A 
HETATM   20  C8  UNL     1      20.508   0.024  53.593  1.00  0.00     0.024 A 
HETATM   21  C9  UNL     1      19.825   0.015  52.398  1.00  0.00     0.034 A 
HETATM   22 CL1  UNL     1      18.140  -0.432  52.315  1.00  0.00    -0.084 Cl
HETATM   23  C10 UNL     1      20.506   0.368  51.274  1.00  0.00     0.024 A 
HETATM   24  C11 UNL     1      21.833   0.714  51.374  1.00  0.00     0.015 A 
ENDBRANCH   3  18
TORSDOF 5
ENDMDL
MODEL 6
REMARK VINA RESULT:      -7.6      7.662      9.122
REMARK  5 active torsions:
REMARK  status: ('A' for Active; 'I' for Inactive)
REMARK    1  A    between atoms: N1_1  and  N2_2 
REMARK    2  A    between atoms: N2_2  and  C1_3 
REMARK    3  A    between atoms: C2_4  and  C3_5 
REMARK    4  A    between atoms: C3_5  and  C4_6 
REMARK    5  A    between atoms: C5_8  and  C6_9 
ROOT
HETATM    1  C4  UNL     1      28.339   8.118  46.909  1.00  0.00     0.146 A 
HETATM    2  N3  UNL     1      29.658   7.592  46.953  1.00  0.00    -0.278 NA
HETATM    3  C5  UNL     1      29.783   6.489  47.569  1.00  0.00     0.073 A 
HETATM    4  C12 UNL     1      28.439   6.190  48.010  1.00  0.00     0.002 A 
HETATM    5  C13 UNL     1      27.931   5.136  48.723  1.00  0.00     0.014 A 
HETATM    6  C14 UNL     1      26.604   5.026  49.048  1.00  0.00     0.001 A 
HETATM    7  C15 UNL     1      25.702   5.987  48.670  1.00  0.00     0.001 A 
HETATM    8  C16 UNL     1      26.183   7.059  47.951  1.00  0.00     0.010 A 
HETATM    9  C17 UNL     1      27.518   7.138  47.642  1.00  0.00    -0.021 A 
ENDROOT
BRANCH   1  10
HETATM   10  C3  UNL     1      28.262   9.444  47.676  1.00  0.00     0.060 C 
BRANCH  10  11
HETATM   11  C2  UNL     1      29.576   9.893  48.165  1.00  0.00    -0.006 C 
HETATM   12  C1  UNL     1      29.810   9.846  49.477  1.00  0.00     0.097 C 
BRANCH  12  13
HETATM   13  N2  UNL     1      28.645   9.333  50.148  1.00  0.00    -0.335 N 
HETATM   14  H3  UNL     1      28.006   8.491  50.209  1.00  0.00     0.179 HD
BRANCH  13  15
HETATM   15  N1  UNL     1      27.650   9.603  51.111  1.00  0.00    -0.250 NA
HETATM   16  H1  UNL     1      28.060   9.897  52.026  1.00  0.00     0.143 HD
HETATM   17  H2  UNL     1      27.078  10.440  50.804  1.00  0.00     0.143 HD
ENDBRANCH  13  15
ENDBRANCH  12  13
ENDBRANCH  10  11
ENDBRANCH   1  10
BRANCH   3  18
HETATM   18  C6  UNL     1      31.043   5.807  47.714  1.00  0.00    -0.007 A 
HETATM   19  C7  UNL     1      32.212   6.202  48.288  1.00  0.00     0.015 A 
HETATM   20  C8  UNL     1      33.361   5.477  48.375  1.00  0.00     0.024 A 
HETATM   21  C9  UNL     1      33.405   4.208  47.845  1.00  0.00     0.034 A 
HETATM   22 CL1  UNL     1      34.851   3.234  47.928  1.00  0.00    -0.084 Cl
HETATM   23  C10 UNL     1      32.279   3.729  47.249  1.00  0.00     0.024 A 
HETATM   24  C11 UNL     1      31.157   4.521  47.200  1.00  0.00     0.015 A 
ENDBRANCH   3  18
TORSDOF 5
ENDMDL
MODEL 7
REMARK VINA RESULT:      -7.6      3.772      5.723
REMARK  5 active torsions:
REMARK  status: ('A' for Active; 'I' for Inactive)
REMARK    1  A    between atoms: N1_1  and  N2_2 
REMARK    2  A    between atoms: N2_2  and  C1_3 
REMARK    3  A    between atoms: C2_4  and  C3_5 
REMARK    4  A    between atoms: C3_5  and  C4_6 
REMARK    5  A    between atoms: C5_8  and  C6_9 
ROOT
HETATM    1  C4  UNL     1      23.590   1.032  51.890  1.00  0.00     0.146 A 
HETATM    2  N3  UNL     1      23.924   2.169  51.107  1.00  0.00    -0.278 NA
HETATM    3  C5  UNL     1      25.161   2.449  51.057  1.00  0.00     0.073 A 
HETATM    4  C12 UNL     1      25.776   1.427  51.875  1.00  0.00     0.002 A 
HETATM    5  C13 UNL     1      27.086   1.195  52.205  1.00  0.00     0.014 A 
HETATM    6  C14 UNL     1      27.479   0.156  53.007  1.00  0.00     0.001 A 
HETATM    7  C15 UNL     1      26.563  -0.720  53.530  1.00  0.00     0.001 A 
HETATM    8  C16 UNL     1      25.238  -0.512  53.215  1.00  0.00     0.010 A 
HETATM    9  C17 UNL     1      24.878   0.538  52.409  1.00  0.00    -0.021 A 
ENDROOT
BRANCH   1  10
HETATM   10  C3  UNL     1      22.737   1.442  53.098  1.00  0.00     0.060 C 
BRANCH  10  11
HETATM   11  C2  UNL     1      21.305   1.541  52.774  1.00  0.00    -0.006 C 
HETATM   12  C1  UNL     1      20.450   0.779  53.457  1.00  0.00     0.097 C 
BRANCH  12  13
HETATM   13  N2  UNL     1      21.179  -0.013  54.412  1.00  0.00    -0.335 N 
HETATM   14  H3  UNL     1      21.956   0.032  55.130  1.00  0.00     0.179 HD
BRANCH  13  15
HETATM   15  N1  UNL     1      21.325  -1.294  54.984  1.00  0.00    -0.250 NA
HETATM   16  H1  UNL     1      22.282  -1.442  55.374  1.00  0.00     0.143 HD
HETATM   17  H2  UNL     1      20.687  -1.380  55.826  1.00  0.00     0.143 HD
ENDBRANCH  13  15
ENDBRANCH  12  13
ENDBRANCH  10  11
ENDBRANCH   1  10
BRANCH   3  18
HETATM   18  C6  UNL     1      25.686   3.564  50.311  1.00  0.00    -0.007 A 
HETATM   19  C7  UNL     1      26.773   3.662  49.497  1.00  0.00     0.015 A 
HETATM   20  C8  UNL     1      27.191   4.772  48.829  1.00  0.00     0.024 A 
HETATM   21  C9  UNL     1      26.483   5.946  48.953  1.00  0.00     0.034 A 
HETATM   22 CL1  UNL     1      26.973   7.399  48.120  1.00  0.00    -0.084 Cl
HETATM   23  C10 UNL     1      25.379   5.941  49.749  1.00  0.00     0.024 A 
HETATM   24  C11 UNL     1      25.019   4.780  50.391  1.00  0.00     0.015 A 
ENDBRANCH   3  18
TORSDOF 5
ENDMDL
MODEL 8
REMARK VINA RESULT:      -7.5      2.345      4.300
REMARK  5 active torsions:
REMARK  status: ('A' for Active; 'I' for Inactive)
REMARK    1  A    between atoms: N1_1  and  N2_2 
REMARK    2  A    between atoms: N2_2  and  C1_3 
REMARK    3  A    between atoms: C2_4  and  C3_5 
REMARK    4  A    between atoms: C3_5  and  C4_6 
REMARK    5  A    between atoms: C5_8  and  C6_9 
ROOT
HETATM    1  C4  UNL     1      23.919   2.918  52.732  1.00  0.00     0.146 A 
HETATM    2  N3  UNL     1      24.841   1.947  53.207  1.00  0.00    -0.278 NA
HETATM    3  C5  UNL     1      25.871   1.777  52.484  1.00  0.00     0.073 A 
HETATM    4  C12 UNL     1      25.679   2.706  51.393  1.00  0.00     0.002 A 
HETATM    5  C13 UNL     1      26.450   2.988  50.295  1.00  0.00     0.014 A 
HETATM    6  C14 UNL     1      26.094   3.918  49.354  1.00  0.00     0.001 A 
HETATM    7  C15 UNL     1      24.925   4.627  49.467  1.00  0.00     0.001 A 
HETATM    8  C16 UNL     1      24.130   4.366  50.560  1.00  0.00     0.010 A 
HETATM    9  C17 UNL     1      24.516   3.427  51.485  1.00  0.00    -0.021 A 
ENDROOT
BRANCH   1  10
HETATM   10  C3  UNL     1      22.583   2.259  52.366  1.00  0.00     0.060 C 
BRANCH  10  11
HETATM   11  C2  UNL     1      22.743   0.868  51.909  1.00  0.00    -0.006 C 
HETATM   12  C1  UNL     1      22.102  -0.092  52.576  1.00  0.00     0.097 C 
BRANCH  12  13
HETATM   13  N2  UNL     1      21.356   0.498  53.657  1.00  0.00    -0.335 N 
HETATM   14  H3  UNL     1      21.019   1.423  54.045  1.00  0.00     0.179 HD
BRANCH  13  15
HETATM   15  N1  UNL     1      20.628   0.241  54.837  1.00  0.00    -0.250 NA
HETATM   16  H1  UNL     1      21.240  -0.113  55.605  1.00  0.00     0.143 HD
HETATM   17  H2  UNL     1      20.237   1.150  55.216  1.00  0.00     0.143 HD
ENDBRANCH  13  15
ENDBRANCH  12  13
ENDBRANCH  10  11
ENDBRANCH   1  10
BRANCH   3  18
HETATM   18  C6  UNL     1      26.913   0.837  52.808  1.00  0.00    -0.007 A 
HETATM   19  C7  UNL     1      26.975  -0.515  52.658  1.00  0.00     0.015 A 
HETATM   20  C8  UNL     1      28.016  -1.324  52.999  1.00  0.00     0.024 A 
HETATM   21  C9  UNL     1      29.147  -0.775  53.558  1.00  0.00     0.034 A 
HETATM   22 CL1  UNL     1      30.510  -1.765  54.014  1.00  0.00    -0.084 Cl
HETATM   23  C10 UNL     1      29.173   0.572  53.747  1.00  0.00     0.024 A 
HETATM   24  C11 UNL     1      28.083   1.323  53.377  1.00  0.00     0.015 A 
ENDBRANCH   3  18
TORSDOF 5
ENDMDL
MODEL 9
REMARK VINA RESULT:      -7.3      8.402      9.716
REMARK  5 active torsions:
REMARK  status: ('A' for Active; 'I' for Inactive)
REMARK    1  A    between atoms: N1_1  and  N2_2 
REMARK    2  A    between atoms: N2_2  and  C1_3 
REMARK    3  A    between atoms: C2_4  and  C3_5 
REMARK    4  A    between atoms: C3_5  and  C4_6 
REMARK    5  A    between atoms: C5_8  and  C6_9 
ROOT
HETATM    1  C4  UNL     1      29.065   8.382  47.836  1.00  0.00     0.146 A 
HETATM    2  N3  UNL     1      30.262   7.707  47.475  1.00  0.00    -0.278 NA
HETATM    3  C5  UNL     1      30.231   6.444  47.602  1.00  0.00     0.073 A 
HETATM    4  C12 UNL     1      28.899   6.182  48.097  1.00  0.00     0.002 A 
HETATM    5  C13 UNL     1      28.267   5.012  48.428  1.00  0.00     0.014 A 
HETATM    6  C14 UNL     1      26.978   4.965  48.888  1.00  0.00     0.001 A 
HETATM    7  C15 UNL     1      26.240   6.111  49.043  1.00  0.00     0.001 A 
HETATM    8  C16 UNL     1      26.848   7.303  48.718  1.00  0.00     0.010 A 
HETATM    9  C17 UNL     1      28.142   7.315  48.261  1.00  0.00    -0.021 A 
ENDROOT
BRANCH   1  10
HETATM   10  C3  UNL     1      29.304   9.291  49.049  1.00  0.00     0.060 C 
BRANCH  10  11
HETATM   11  C2  UNL     1      30.610   9.969  49.001  1.00  0.00    -0.006 C 
HETATM   12  C1  UNL     1      30.645  11.285  49.209  1.00  0.00     0.097 C 
BRANCH  12  13
HETATM   13  N2  UNL     1      29.309  11.763  49.446  1.00  0.00    -0.335 N 
HETATM   14  H3  UNL     1      28.316  11.444  49.631  1.00  0.00     0.179 HD
BRANCH  13  15
HETATM   15  N1  UNL     1      28.495  12.907  49.581  1.00  0.00    -0.250 NA
HETATM   16  H1  UNL     1      28.286  13.124  50.581  1.00  0.00     0.143 HD
HETATM   17  H2  UNL     1      29.022  13.760  49.237  1.00  0.00     0.143 HD
ENDBRANCH  13  15
ENDBRANCH  12  13
ENDBRANCH  10  11
ENDBRANCH   1  10
BRANCH   3  18
HETATM   18  C6  UNL     1      31.350   5.595  47.283  1.00  0.00    -0.007 A 
HETATM   19  C7  UNL     1      31.480   4.240  47.311  1.00  0.00     0.015 A 
HETATM   20  C8  UNL     1      32.591   3.523  46.988  1.00  0.00     0.024 A 
HETATM   21  C9  UNL     1      33.731   4.181  46.586  1.00  0.00     0.034 A 
HETATM   22 CL1  UNL     1      35.183   3.312  46.160  1.00  0.00    -0.084 Cl
HETATM   23  C10 UNL     1      33.693   5.540  46.528  1.00  0.00     0.024 A 
HETATM   24  C11 UNL     1      32.533   6.194  46.870  1.00  0.00     0.015 A 
ENDBRANCH   3  18
TORSDOF 5
ENDMDL
