MODEL 1
REMARK VINA RESULT:      -6.4      0.000      0.000
REMARK  12 active torsions:
REMARK  status: ('A' for Active; 'I' for Inactive)
REMARK    1  A    between atoms: N1_2  and  C3_4 
REMARK    2  A    between atoms: C3_4  and  C4_5 
REMARK    3  A    between atoms: C4_5  and  C5_6 
REMARK    4  A    between atoms: C4_5  and  C8_11 
REMARK    5  A    between atoms: C5_6  and  S1_7 
REMARK    6  A    between atoms: S1_7  and  C6_8 
REMARK    7  A    between atoms: C6_8  and  C7_9 
REMARK    8  A    between atoms: C7_9  and  N2_10 
REMARK    9  A    between atoms: C8_11  and  C9_13 
REMARK   10  A    between atoms: C12_16  and  O2_17 
REMARK   11  A    between atoms: O2_17  and  C13_18 
REMARK   12  A    between atoms: C13_18  and  C14_19 
ROOT
HETATM    1  C9  UNL     1      25.866   4.083  49.287  1.00  0.00     0.144 A 
HETATM    2  C10 UNL     1      26.583   2.951  49.913  1.00  0.00    -0.001 A 
HETATM    3  C11 UNL     1      26.509   2.227  51.003  1.00  0.00     0.035 A 
HETATM    4  C12 UNL     1      25.510   2.413  52.036  1.00  0.00     0.075 A 
HETATM    5  C20 UNL     1      24.641   3.404  51.792  1.00  0.00     0.082 A 
HETATM    6  S2  UNL     1      24.516   4.522  50.413  1.00  0.00    -0.122 SA
ENDROOT
BRANCH   1   7
HETATM    7  C8  UNL     1      26.724   5.227  48.933  1.00  0.00     0.150 C 
HETATM    8  O1  UNL     1      27.906   4.845  48.834  1.00  0.00    -0.296 OA
BRANCH   7   9
HETATM    9  C4  UNL     1      26.715   6.651  48.655  1.00  0.00     0.084 C 
BRANCH   9  10
HETATM   10  C3  UNL     1      25.462   7.237  48.079  1.00  0.00     0.129 C 
BRANCH  10  11
HETATM   11  N1  UNL     1      25.015   8.408  48.752  1.00  0.00    -0.420 N 
HETATM   12  C1  UNL     1      24.793   9.583  48.029  1.00  0.00     0.142 C 
HETATM   13  C2  UNL     1      24.773   8.354  50.132  1.00  0.00     0.142 C 
ENDBRANCH  10  11
ENDBRANCH   9  10
BRANCH   9  14
HETATM   14  C5  UNL     1      27.903   7.163  47.852  1.00  0.00     0.087 C 
BRANCH  14  15
HETATM   15  S1  UNL     1      28.718   8.499  48.753  1.00  0.00    -0.167 SA
BRANCH  15  16
HETATM   16  C6  UNL     1      30.482   8.294  48.925  1.00  0.00     0.103 C 
BRANCH  16  17
HETATM   17  C7  UNL     1      30.948   6.930  48.428  1.00  0.00     0.276 C 
BRANCH  17  18
HETATM   18  N2  UNL     1      30.803   6.044  49.593  1.00  0.00     0.079 N 
HETATM   19  H16 UNL     1      30.127   6.484  50.254  1.00  0.00     0.312 HD
HETATM   20  H17 UNL     1      31.741   5.959  50.008  1.00  0.00     0.312 HD
ENDBRANCH  17  18
ENDBRANCH  16  17
ENDBRANCH  15  16
ENDBRANCH  14  15
ENDBRANCH   9  14
ENDBRANCH   7   9
ENDBRANCH   1   7
BRANCH   4  21
HETATM   21  O2  UNL     1      25.238   1.793  53.239  1.00  0.00    -0.346 OA
BRANCH  21  22
HETATM   22  C13 UNL     1      25.219   0.381  53.286  1.00  0.00     0.214 C 
BRANCH  22  23
HETATM   23  C14 UNL     1      26.647  -0.032  53.535  1.00  0.00    -0.034 A 
HETATM   24  C15 UNL     1      27.385   0.612  54.522  1.00  0.00     0.009 A 
HETATM   25  C16 UNL     1      28.683   0.216  54.727  1.00  0.00     0.001 A 
HETATM   26  C17 UNL     1      29.305  -0.792  54.008  1.00  0.00     0.000 A 
HETATM   27  C18 UNL     1      28.506  -1.383  53.046  1.00  0.00     0.001 A 
HETATM   28  C19 UNL     1      27.193  -1.046  52.774  1.00  0.00     0.009 A 
ENDBRANCH  22  23
ENDBRANCH  21  22
ENDBRANCH   4  21
TORSDOF 12
ENDMDL
MODEL 2
REMARK VINA RESULT:      -6.3      2.223      3.189
REMARK  12 active torsions:
REMARK  status: ('A' for Active; 'I' for Inactive)
REMARK    1  A    between atoms: N1_2  and  C3_4 
REMARK    2  A    between atoms: C3_4  and  C4_5 
REMARK    3  A    between atoms: C4_5  and  C5_6 
REMARK    4  A    between atoms: C4_5  and  C8_11 
REMARK    5  A    between atoms: C5_6  and  S1_7 
REMARK    6  A    between atoms: S1_7  and  C6_8 
REMARK    7  A    between atoms: C6_8  and  C7_9 
REMARK    8  A    between atoms: C7_9  and  N2_10 
REMARK    9  A    between atoms: C8_11  and  C9_13 
REMARK   10  A    between atoms: C12_16  and  O2_17 
REMARK   11  A    between atoms: O2_17  and  C13_18 
REMARK   12  A    between atoms: C13_18  and  C14_19 
ROOT
HETATM    1  C9  UNL     1      22.683   3.842  50.425  1.00  0.00     0.144 A 
HETATM    2  C10 UNL     1      23.062   2.412  50.409  1.00  0.00    -0.001 A 
HETATM    3  C11 UNL     1      23.597   1.531  51.219  1.00  0.00     0.035 A 
HETATM    4  C12 UNL     1      24.014   1.823  52.576  1.00  0.00     0.075 A 
HETATM    5  C20 UNL     1      23.809   3.092  52.956  1.00  0.00     0.082 A 
HETATM    6  S2  UNL     1      23.109   4.469  52.071  1.00  0.00    -0.122 SA
ENDROOT
BRANCH   1   7
HETATM    7  C8  UNL     1      23.264   4.638  49.330  1.00  0.00     0.150 C 
HETATM    8  O1  UNL     1      22.514   4.589  48.337  1.00  0.00    -0.296 OA
BRANCH   7   9
HETATM    9  C4  UNL     1      24.396   5.468  48.964  1.00  0.00     0.084 C 
BRANCH   9  10
HETATM   10  C3  UNL     1      25.607   5.418  49.846  1.00  0.00     0.129 C 
BRANCH  10  11
HETATM   11  N1  UNL     1      26.607   4.512  49.395  1.00  0.00    -0.420 N 
HETATM   12  C1  UNL     1      27.638   4.969  48.569  1.00  0.00     0.142 C 
HETATM   13  C2  UNL     1      26.558   3.174  49.814  1.00  0.00     0.142 C 
ENDBRANCH  10  11
ENDBRANCH   9  10
BRANCH   9  14
HETATM   14  C5  UNL     1      24.066   6.926  48.677  1.00  0.00     0.087 C 
BRANCH  14  15
HETATM   15  S1  UNL     1      25.378   7.664  47.680  1.00  0.00    -0.167 SA
BRANCH  15  16
HETATM   16  C6  UNL     1      26.193   9.049  48.455  1.00  0.00     0.103 C 
BRANCH  16  17
HETATM   17  C7  UNL     1      27.408   8.614  49.265  1.00  0.00     0.276 C 
BRANCH  17  18
HETATM   18  N2  UNL     1      26.899   8.446  50.634  1.00  0.00     0.079 N 
HETATM   19  H16 UNL     1      26.316   9.278  50.868  1.00  0.00     0.312 HD
HETATM   20  H17 UNL     1      27.726   8.377  51.243  1.00  0.00     0.312 HD
ENDBRANCH  17  18
ENDBRANCH  16  17
ENDBRANCH  15  16
ENDBRANCH  14  15
ENDBRANCH   9  14
ENDBRANCH   7   9
ENDBRANCH   1   7
BRANCH   4  21
HETATM   21  O2  UNL     1      24.586   1.083  53.590  1.00  0.00    -0.346 OA
BRANCH  21  22
HETATM   22  C13 UNL     1      24.910  -0.270  53.343  1.00  0.00     0.214 C 
BRANCH  22  23
HETATM   23  C14 UNL     1      26.392  -0.381  53.596  1.00  0.00    -0.034 A 
HETATM   24  C15 UNL     1      26.976   0.381  54.602  1.00  0.00     0.009 A 
HETATM   25  C16 UNL     1      28.327   0.260  54.810  1.00  0.00     0.001 A 
HETATM   26  C17 UNL     1      29.148  -0.581  54.076  1.00  0.00     0.000 A 
HETATM   27  C18 UNL     1      28.494  -1.305  53.095  1.00  0.00     0.001 A 
HETATM   28  C19 UNL     1      27.140  -1.243  52.819  1.00  0.00     0.009 A 
ENDBRANCH  22  23
ENDBRANCH  21  22
ENDBRANCH   4  21
TORSDOF 12
ENDMDL
MODEL 3
REMARK VINA RESULT:      -6.3      5.575      8.137
REMARK  12 active torsions:
REMARK  status: ('A' for Active; 'I' for Inactive)
REMARK    1  A    between atoms: N1_2  and  C3_4 
REMARK    2  A    between atoms: C3_4  and  C4_5 
REMARK    3  A    between atoms: C4_5  and  C5_6 
REMARK    4  A    between atoms: C4_5  and  C8_11 
REMARK    5  A    between atoms: C5_6  and  S1_7 
REMARK    6  A    between atoms: S1_7  and  C6_8 
REMARK    7  A    between atoms: C6_8  and  C7_9 
REMARK    8  A    between atoms: C7_9  and  N2_10 
REMARK    9  A    between atoms: C8_11  and  C9_13 
REMARK   10  A    between atoms: C12_16  and  O2_17 
REMARK   11  A    between atoms: O2_17  and  C13_18 
REMARK   12  A    between atoms: C13_18  and  C14_19 
ROOT
HETATM    1  C9  UNL     1      20.459   2.697  52.576  1.00  0.00     0.144 A 
HETATM    2  C10 UNL     1      20.959   1.390  53.056  1.00  0.00    -0.001 A 
HETATM    3  C11 UNL     1      22.106   0.769  53.190  1.00  0.00     0.035 A 
HETATM    4  C12 UNL     1      23.387   1.342  52.829  1.00  0.00     0.075 A 
HETATM    5  C20 UNL     1      23.317   2.586  52.335  1.00  0.00     0.082 A 
HETATM    6  S2  UNL     1      21.913   3.644  52.054  1.00  0.00    -0.122 SA
ENDROOT
BRANCH   1   7
HETATM    7  C8  UNL     1      19.418   2.608  51.538  1.00  0.00     0.150 C 
HETATM    8  O1  UNL     1      18.404   3.228  51.911  1.00  0.00    -0.296 OA
BRANCH   7   9
HETATM    9  C4  UNL     1      19.121   2.061  50.228  1.00  0.00     0.084 C 
BRANCH   9  10
HETATM   10  C3  UNL     1      19.689   2.770  49.035  1.00  0.00     0.129 C 
BRANCH  10  11
HETATM   11  N1  UNL     1      20.891   2.190  48.543  1.00  0.00    -0.420 N 
HETATM   12  C1  UNL     1      21.610   2.833  47.533  1.00  0.00     0.142 C 
HETATM   13  C2  UNL     1      21.353   0.991  49.105  1.00  0.00     0.142 C 
ENDBRANCH  10  11
ENDBRANCH   9  10
BRANCH   9  14
HETATM   14  C5  UNL     1      17.650   1.771  49.964  1.00  0.00     0.087 C 
BRANCH  14  15
HETATM   15  S1  UNL     1      17.290   0.044  50.348  1.00  0.00    -0.167 SA
BRANCH  15  16
HETATM   16  C6  UNL     1      16.992  -0.273  52.079  1.00  0.00     0.103 C 
BRANCH  16  17
HETATM   17  C7  UNL     1      18.189  -0.933  52.751  1.00  0.00     0.276 C 
BRANCH  17  18
HETATM   18  N2  UNL     1      17.616  -1.669  53.888  1.00  0.00     0.079 N 
HETATM   19  H16 UNL     1      18.398  -2.132  54.401  1.00  0.00     0.312 HD
HETATM   20  H17 UNL     1      16.965  -2.356  53.486  1.00  0.00     0.312 HD
ENDBRANCH  17  18
ENDBRANCH  16  17
ENDBRANCH  15  16
ENDBRANCH  14  15
ENDBRANCH   9  14
ENDBRANCH   7   9
ENDBRANCH   1   7
BRANCH   4  21
HETATM   21  O2  UNL     1      24.692   0.895  52.876  1.00  0.00    -0.346 OA
BRANCH  21  22
HETATM   22  C13 UNL     1      24.945  -0.409  53.357  1.00  0.00     0.214 C 
BRANCH  22  23
HETATM   23  C14 UNL     1      26.430  -0.463  53.609  1.00  0.00    -0.034 A 
HETATM   24  C15 UNL     1      26.987   0.335  54.603  1.00  0.00     0.009 A 
HETATM   25  C16 UNL     1      28.342   0.265  54.810  1.00  0.00     0.001 A 
HETATM   26  C17 UNL     1      29.192  -0.557  54.088  1.00  0.00     0.000 A 
HETATM   27  C18 UNL     1      28.563  -1.319  53.120  1.00  0.00     0.001 A 
HETATM   28  C19 UNL     1      27.208  -1.309  52.845  1.00  0.00     0.009 A 
ENDBRANCH  22  23
ENDBRANCH  21  22
ENDBRANCH   4  21
TORSDOF 12
ENDMDL
MODEL 4
REMARK VINA RESULT:      -6.2      1.371      1.612
REMARK  12 active torsions:
REMARK  status: ('A' for Active; 'I' for Inactive)
REMARK    1  A    between atoms: N1_2  and  C3_4 
REMARK    2  A    between atoms: C3_4  and  C4_5 
REMARK    3  A    between atoms: C4_5  and  C5_6 
REMARK    4  A    between atoms: C4_5  and  C8_11 
REMARK    5  A    between atoms: C5_6  and  S1_7 
REMARK    6  A    between atoms: S1_7  and  C6_8 
REMARK    7  A    between atoms: C6_8  and  C7_9 
REMARK    8  A    between atoms: C7_9  and  N2_10 
REMARK    9  A    between atoms: C8_11  and  C9_13 
REMARK   10  A    between atoms: C12_16  and  O2_17 
REMARK   11  A    between atoms: O2_17  and  C13_18 
REMARK   12  A    between atoms: C13_18  and  C14_19 
ROOT
HETATM    1  C9  UNL     1      25.707   5.208  49.118  1.00  0.00     0.144 A 
HETATM    2  C10 UNL     1      26.537   4.003  49.337  1.00  0.00    -0.001 A 
HETATM    3  C11 UNL     1      26.570   2.969  50.141  1.00  0.00     0.035 A 
HETATM    4  C12 UNL     1      25.608   2.732  51.200  1.00  0.00     0.075 A 
HETATM    5  C20 UNL     1      24.657   3.670  51.301  1.00  0.00     0.082 A 
HETATM    6  S2  UNL     1      24.381   5.151  50.352  1.00  0.00    -0.122 SA
ENDROOT
BRANCH   1   7
HETATM    7  C8  UNL     1      26.458   6.475  49.129  1.00  0.00     0.150 C 
HETATM    8  O1  UNL     1      26.097   7.165  50.101  1.00  0.00    -0.296 OA
BRANCH   7   9
HETATM    9  C4  UNL     1      27.473   7.236  48.424  1.00  0.00     0.084 C 
BRANCH   9  10
HETATM   10  C3  UNL     1      27.059   7.957  47.177  1.00  0.00     0.129 C 
BRANCH  10  11
HETATM   11  N1  UNL     1      26.522   9.253  47.416  1.00  0.00    -0.420 N 
HETATM   12  C1  UNL     1      27.153  10.110  48.322  1.00  0.00     0.142 C 
HETATM   13  C2  UNL     1      25.380   9.662  46.712  1.00  0.00     0.142 C 
ENDBRANCH  10  11
ENDBRANCH   9  10
BRANCH   9  14
HETATM   14  C5  UNL     1      28.767   6.486  48.142  1.00  0.00     0.087 C 
BRANCH  14  15
HETATM   15  S1  UNL     1      30.121   7.662  47.931  1.00  0.00    -0.167 SA
BRANCH  15  16
HETATM   16  C6  UNL     1      31.325   7.634  49.247  1.00  0.00     0.103 C 
BRANCH  16  17
HETATM   17  C7  UNL     1      32.046   6.293  49.330  1.00  0.00     0.276 C 
BRANCH  17  18
HETATM   18  N2  UNL     1      31.572   5.697  50.588  1.00  0.00     0.079 N 
HETATM   19  H16 UNL     1      30.531   5.756  50.604  1.00  0.00     0.312 HD
HETATM   20  H17 UNL     1      31.996   6.249  51.346  1.00  0.00     0.312 HD
ENDBRANCH  17  18
ENDBRANCH  16  17
ENDBRANCH  15  16
ENDBRANCH  14  15
ENDBRANCH   9  14
ENDBRANCH   7   9
ENDBRANCH   1   7
BRANCH   4  21
HETATM   21  O2  UNL     1      25.441   1.745  52.149  1.00  0.00    -0.346 OA
BRANCH  21  22
HETATM   22  C13 UNL     1      26.082   1.890  53.400  1.00  0.00     0.214 C 
BRANCH  22  23
HETATM   23  C14 UNL     1      27.205   0.884  53.395  1.00  0.00    -0.034 A 
HETATM   24  C15 UNL     1      28.493   1.293  53.721  1.00  0.00     0.009 A 
HETATM   25  C16 UNL     1      29.496   0.355  53.709  1.00  0.00     0.001 A 
HETATM   26  C17 UNL     1      29.300  -0.980  53.392  1.00  0.00     0.000 A 
HETATM   27  C18 UNL     1      27.993  -1.307  53.082  1.00  0.00     0.001 A 
HETATM   28  C19 UNL     1      26.926  -0.428  53.068  1.00  0.00     0.009 A 
ENDBRANCH  22  23
ENDBRANCH  21  22
ENDBRANCH   4  21
TORSDOF 12
ENDMDL
MODEL 5
REMARK VINA RESULT:      -6.2      1.740      3.504
REMARK  12 active torsions:
REMARK  status: ('A' for Active; 'I' for Inactive)
REMARK    1  A    between atoms: N1_2  and  C3_4 
REMARK    2  A    between atoms: C3_4  and  C4_5 
REMARK    3  A    between atoms: C4_5  and  C5_6 
REMARK    4  A    between atoms: C4_5  and  C8_11 
REMARK    5  A    between atoms: C5_6  and  S1_7 
REMARK    6  A    between atoms: S1_7  and  C6_8 
REMARK    7  A    between atoms: C6_8  and  C7_9 
REMARK    8  A    between atoms: C7_9  and  N2_10 
REMARK    9  A    between atoms: C8_11  and  C9_13 
REMARK   10  A    between atoms: C12_16  and  O2_17 
REMARK   11  A    between atoms: O2_17  and  C13_18 
REMARK   12  A    between atoms: C13_18  and  C14_19 
ROOT
HETATM    1  C9  UNL     1      25.543   3.835  49.451  1.00  0.00     0.144 A 
HETATM    2  C10 UNL     1      26.426   2.834  50.089  1.00  0.00    -0.001 A 
HETATM    3  C11 UNL     1      26.500   2.172  51.218  1.00  0.00     0.035 A 
HETATM    4  C12 UNL     1      25.544   2.299  52.299  1.00  0.00     0.075 A 
HETATM    5  C20 UNL     1      24.550   3.164  52.058  1.00  0.00     0.082 A 
HETATM    6  S2  UNL     1      24.214   4.177  50.633  1.00  0.00    -0.122 SA
ENDROOT
BRANCH   1   7
HETATM    7  C8  UNL     1      26.236   5.049  48.986  1.00  0.00     0.150 C 
HETATM    8  O1  UNL     1      27.444   4.800  48.816  1.00  0.00    -0.296 OA
BRANCH   7   9
HETATM    9  C4  UNL     1      26.041   6.446  48.647  1.00  0.00     0.084 C 
BRANCH   9  10
HETATM   10  C3  UNL     1      26.229   7.458  49.737  1.00  0.00     0.129 C 
BRANCH  10  11
HETATM   11  N1  UNL     1      27.314   8.349  49.511  1.00  0.00    -0.420 N 
HETATM   12  C1  UNL     1      28.186   8.124  48.442  1.00  0.00     0.142 C 
HETATM   13  C2  UNL     1      27.474   9.462  50.349  1.00  0.00     0.142 C 
ENDBRANCH  10  11
ENDBRANCH   9  10
BRANCH   9  14
HETATM   14  C5  UNL     1      24.745   6.762  47.913  1.00  0.00     0.087 C 
BRANCH  14  15
HETATM   15  S1  UNL     1      23.748   7.902  48.895  1.00  0.00    -0.167 SA
BRANCH  15  16
HETATM   16  C6  UNL     1      22.073   7.355  49.175  1.00  0.00     0.103 C 
BRANCH  16  17
HETATM   17  C7  UNL     1      21.733   7.301  50.660  1.00  0.00     0.276 C 
BRANCH  17  18
HETATM   18  N2  UNL     1      23.021   7.493  51.342  1.00  0.00     0.079 N 
HETATM   19  H16 UNL     1      23.186   6.671  51.962  1.00  0.00     0.312 HD
HETATM   20  H17 UNL     1      22.934   8.365  51.881  1.00  0.00     0.312 HD
ENDBRANCH  17  18
ENDBRANCH  16  17
ENDBRANCH  15  16
ENDBRANCH  14  15
ENDBRANCH   9  14
ENDBRANCH   7   9
ENDBRANCH   1   7
BRANCH   4  21
HETATM   21  O2  UNL     1      25.416   1.724  53.547  1.00  0.00    -0.346 OA
BRANCH  21  22
HETATM   22  C13 UNL     1      25.340   0.316  53.640  1.00  0.00     0.214 C 
BRANCH  22  23
HETATM   23  C14 UNL     1      26.769  -0.161  53.701  1.00  0.00    -0.034 A 
HETATM   24  C15 UNL     1      27.191  -1.173  52.847  1.00  0.00     0.009 A 
HETATM   25  C16 UNL     1      28.498  -1.587  52.924  1.00  0.00     0.001 A 
HETATM   26  C17 UNL     1      29.425  -1.053  53.804  1.00  0.00     0.000 A 
HETATM   27  C18 UNL     1      28.929  -0.052  54.619  1.00  0.00     0.001 A 
HETATM   28  C19 UNL     1      27.630   0.424  54.607  1.00  0.00     0.009 A 
ENDBRANCH  22  23
ENDBRANCH  21  22
ENDBRANCH   4  21
TORSDOF 12
ENDMDL
MODEL 6
REMARK VINA RESULT:      -6.2      6.726      9.193
REMARK  12 active torsions:
REMARK  status: ('A' for Active; 'I' for Inactive)
REMARK    1  A    between atoms: N1_2  and  C3_4 
REMARK    2  A    between atoms: C3_4  and  C4_5 
REMARK    3  A    between atoms: C4_5  and  C5_6 
REMARK    4  A    between atoms: C4_5  and  C8_11 
REMARK    5  A    between atoms: C5_6  and  S1_7 
REMARK    6  A    between atoms: S1_7  and  C6_8 
REMARK    7  A    between atoms: C6_8  and  C7_9 
REMARK    8  A    between atoms: C7_9  and  N2_10 
REMARK    9  A    between atoms: C8_11  and  C9_13 
REMARK   10  A    between atoms: C12_16  and  O2_17 
REMARK   11  A    between atoms: O2_17  and  C13_18 
REMARK   12  A    between atoms: C13_18  and  C14_19 
ROOT
HETATM    1  C9  UNL     1      20.665   1.166  52.900  1.00  0.00     0.144 A 
HETATM    2  C10 UNL     1      21.264  -0.048  53.496  1.00  0.00    -0.001 A 
HETATM    3  C11 UNL     1      22.454  -0.567  53.675  1.00  0.00     0.035 A 
HETATM    4  C12 UNL     1      23.687   0.063  53.246  1.00  0.00     0.075 A 
HETATM    5  C20 UNL     1      23.521   1.245  52.638  1.00  0.00     0.082 A 
HETATM    6  S2  UNL     1      22.041   2.164  52.273  1.00  0.00    -0.122 SA
ENDROOT
BRANCH   1   7
HETATM    7  C8  UNL     1      19.628   0.901  51.888  1.00  0.00     0.150 C 
HETATM    8  O1  UNL     1      20.160   0.442  50.859  1.00  0.00    -0.296 OA
BRANCH   7   9
HETATM    9  C4  UNL     1      18.203   0.974  51.631  1.00  0.00     0.084 C 
BRANCH   9  10
HETATM   10  C3  UNL     1      17.488  -0.305  51.314  1.00  0.00     0.129 C 
BRANCH  10  11
HETATM   11  N1  UNL     1      16.810  -0.874  52.428  1.00  0.00    -0.420 N 
HETATM   12  C1  UNL     1      17.458  -1.820  53.226  1.00  0.00     0.142 C 
HETATM   13  C2  UNL     1      15.508  -0.449  52.727  1.00  0.00     0.142 C 
ENDBRANCH  10  11
ENDBRANCH   9  10
BRANCH   9  14
HETATM   14  C5  UNL     1      17.779   2.029  50.619  1.00  0.00     0.087 C 
BRANCH  14  15
HETATM   15  S1  UNL     1      17.649   3.637  51.431  1.00  0.00    -0.167 SA
BRANCH  15  16
HETATM   16  C6  UNL     1      15.974   4.192  51.690  1.00  0.00     0.103 C 
BRANCH  16  17
HETATM   17  C7  UNL     1      15.292   3.436  52.824  1.00  0.00     0.276 C 
BRANCH  17  18
HETATM   18  N2  UNL     1      15.014   4.463  53.839  1.00  0.00     0.079 N 
HETATM   19  H16 UNL     1      14.408   5.192  53.405  1.00  0.00     0.312 HD
HETATM   20  H17 UNL     1      15.927   4.844  54.120  1.00  0.00     0.312 HD
ENDBRANCH  17  18
ENDBRANCH  16  17
ENDBRANCH  15  16
ENDBRANCH  14  15
ENDBRANCH   9  14
ENDBRANCH   7   9
ENDBRANCH   1   7
BRANCH   4  21
HETATM   21  O2  UNL     1      25.022  -0.279  53.320  1.00  0.00    -0.346 OA
BRANCH  21  22
HETATM   22  C13 UNL     1      25.970   0.739  53.569  1.00  0.00     0.214 C 
BRANCH  22  23
HETATM   23  C14 UNL     1      27.315   0.061  53.499  1.00  0.00    -0.034 A 
HETATM   24  C15 UNL     1      28.457   0.765  53.865  1.00  0.00     0.009 A 
HETATM   25  C16 UNL     1      29.668   0.123  53.791  1.00  0.00     0.001 A 
HETATM   26  C17 UNL     1      29.822  -1.189  53.375  1.00  0.00     0.000 A 
HETATM   27  C18 UNL     1      28.641  -1.821  53.029  1.00  0.00     0.001 A 
HETATM   28  C19 UNL     1      27.382  -1.249  53.073  1.00  0.00     0.009 A 
ENDBRANCH  22  23
ENDBRANCH  21  22
ENDBRANCH   4  21
TORSDOF 12
ENDMDL
MODEL 7
REMARK VINA RESULT:      -6.2      2.457      3.986
REMARK  12 active torsions:
REMARK  status: ('A' for Active; 'I' for Inactive)
REMARK    1  A    between atoms: N1_2  and  C3_4 
REMARK    2  A    between atoms: C3_4  and  C4_5 
REMARK    3  A    between atoms: C4_5  and  C5_6 
REMARK    4  A    between atoms: C4_5  and  C8_11 
REMARK    5  A    between atoms: C5_6  and  S1_7 
REMARK    6  A    between atoms: S1_7  and  C6_8 
REMARK    7  A    between atoms: C6_8  and  C7_9 
REMARK    8  A    between atoms: C7_9  and  N2_10 
REMARK    9  A    between atoms: C8_11  and  C9_13 
REMARK   10  A    between atoms: C12_16  and  O2_17 
REMARK   11  A    between atoms: O2_17  and  C13_18 
REMARK   12  A    between atoms: C13_18  and  C14_19 
ROOT
HETATM    1  C9  UNL     1      27.458   7.530  48.304  1.00  0.00     0.144 A 
HETATM    2  C10 UNL     1      28.127   6.217  48.171  1.00  0.00    -0.001 A 
HETATM    3  C11 UNL     1      27.932   4.975  48.545  1.00  0.00     0.035 A 
HETATM    4  C12 UNL     1      26.793   4.531  49.323  1.00  0.00     0.075 A 
HETATM    5  C20 UNL     1      25.927   5.503  49.641  1.00  0.00     0.082 A 
HETATM    6  S2  UNL     1      25.948   7.243  49.264  1.00  0.00    -0.122 SA
ENDROOT
BRANCH   1   7
HETATM    7  C8  UNL     1      28.310   8.594  48.862  1.00  0.00     0.150 C 
HETATM    8  O1  UNL     1      27.833   8.985  49.944  1.00  0.00    -0.296 OA
BRANCH   7   9
HETATM    9  C4  UNL     1      29.511   9.371  48.624  1.00  0.00     0.084 C 
BRANCH   9  10
HETATM   10  C3  UNL     1      29.370  10.649  47.854  1.00  0.00     0.129 C 
BRANCH  10  11
HETATM   11  N1  UNL     1      29.532  11.818  48.649  1.00  0.00    -0.420 N 
HETATM   12  C1  UNL     1      28.430  12.633  48.918  1.00  0.00     0.142 C 
HETATM   13  C2  UNL     1      30.796  12.116  49.178  1.00  0.00     0.142 C 
ENDBRANCH  10  11
ENDBRANCH   9  10
BRANCH   9  14
HETATM   14  C5  UNL     1      30.687   8.590  48.054  1.00  0.00     0.087 C 
BRANCH  14  15
HETATM   15  S1  UNL     1      31.694   7.933  49.401  1.00  0.00    -0.167 SA
BRANCH  15  16
HETATM   16  C6  UNL     1      31.600   6.160  49.586  1.00  0.00     0.103 C 
BRANCH  16  17
HETATM   17  C7  UNL     1      31.905   5.436  48.280  1.00  0.00     0.276 C 
BRANCH  17  18
HETATM   18  N2  UNL     1      33.084   4.611  48.582  1.00  0.00     0.079 N 
HETATM   19  H16 UNL     1      32.898   4.090  49.466  1.00  0.00     0.312 HD
HETATM   20  H17 UNL     1      33.874   5.262  48.682  1.00  0.00     0.312 HD
ENDBRANCH  17  18
ENDBRANCH  16  17
ENDBRANCH  15  16
ENDBRANCH  14  15
ENDBRANCH   9  14
ENDBRANCH   7   9
ENDBRANCH   1   7
BRANCH   4  21
HETATM   21  O2  UNL     1      26.382   3.312  49.823  1.00  0.00    -0.346 OA
BRANCH  21  22
HETATM   22  C13 UNL     1      25.191   3.257  50.582  1.00  0.00     0.214 C 
BRANCH  22  23
HETATM   23  C14 UNL     1      25.322   2.028  51.446  1.00  0.00    -0.034 A 
HETATM   24  C15 UNL     1      26.548   1.377  51.532  1.00  0.00     0.009 A 
HETATM   25  C16 UNL     1      26.637   0.261  52.326  1.00  0.00     0.001 A 
HETATM   26  C17 UNL     1      25.577  -0.257  53.052  1.00  0.00     0.000 A 
HETATM   27  C18 UNL     1      24.394   0.447  52.915  1.00  0.00     0.001 A 
HETATM   28  C19 UNL     1      24.216   1.576  52.138  1.00  0.00     0.009 A 
ENDBRANCH  22  23
ENDBRANCH  21  22
ENDBRANCH   4  21
TORSDOF 12
ENDMDL
MODEL 8
REMARK VINA RESULT:      -6.2      3.932      8.231
REMARK  12 active torsions:
REMARK  status: ('A' for Active; 'I' for Inactive)
REMARK    1  A    between atoms: N1_2  and  C3_4 
REMARK    2  A    between atoms: C3_4  and  C4_5 
REMARK    3  A    between atoms: C4_5  and  C5_6 
REMARK    4  A    between atoms: C4_5  and  C8_11 
REMARK    5  A    between atoms: C5_6  and  S1_7 
REMARK    6  A    between atoms: S1_7  and  C6_8 
REMARK    7  A    between atoms: C6_8  and  C7_9 
REMARK    8  A    between atoms: C7_9  and  N2_10 
REMARK    9  A    between atoms: C8_11  and  C9_13 
REMARK   10  A    between atoms: C12_16  and  O2_17 
REMARK   11  A    between atoms: O2_17  and  C13_18 
REMARK   12  A    between atoms: C13_18  and  C14_19 
ROOT
HETATM    1  C9  UNL     1      21.280   4.054  51.571  1.00  0.00     0.144 A 
HETATM    2  C10 UNL     1      22.364   4.791  52.257  1.00  0.00    -0.001 A 
HETATM    3  C11 UNL     1      23.529   5.315  51.965  1.00  0.00     0.035 A 
HETATM    4  C12 UNL     1      24.127   5.282  50.645  1.00  0.00     0.075 A 
HETATM    5  C20 UNL     1      23.385   4.662  49.718  1.00  0.00     0.082 A 
HETATM    6  S2  UNL     1      21.791   3.878  49.842  1.00  0.00    -0.122 SA
ENDROOT
BRANCH   1   7
HETATM    7  C8  UNL     1      20.917   2.774  52.205  1.00  0.00     0.150 C 
HETATM    8  O1  UNL     1      19.902   2.931  52.908  1.00  0.00    -0.296 OA
BRANCH   7   9
HETATM    9  C4  UNL     1      21.302   1.381  52.322  1.00  0.00     0.084 C 
BRANCH   9  10
HETATM   10  C3  UNL     1      21.205   0.745  53.677  1.00  0.00     0.129 C 
BRANCH  10  11
HETATM   11  N1  UNL     1      20.464  -0.469  53.688  1.00  0.00    -0.420 N 
HETATM   12  C1  UNL     1      19.197  -0.514  53.102  1.00  0.00     0.142 C 
HETATM   13  C2  UNL     1      21.034  -1.614  54.262  1.00  0.00     0.142 C 
ENDBRANCH  10  11
ENDBRANCH   9  10
BRANCH   9  14
HETATM   14  C5  UNL     1      22.654   1.027  51.718  1.00  0.00     0.087 C 
BRANCH  14  15
HETATM   15  S1  UNL     1      23.856   0.742  53.035  1.00  0.00    -0.167 SA
BRANCH  15  16
HETATM   16  C6  UNL     1      25.132   1.985  53.142  1.00  0.00     0.103 C 
BRANCH  16  17
HETATM   17  C7  UNL     1      26.272   1.553  54.056  1.00  0.00     0.276 C 
BRANCH  17  18
HETATM   18  N2  UNL     1      27.282   2.612  53.913  1.00  0.00     0.079 N 
HETATM   19  H16 UNL     1      28.033   2.441  54.617  1.00  0.00     0.312 HD
HETATM   20  H17 UNL     1      26.794   3.501  54.085  1.00  0.00     0.312 HD
ENDBRANCH  17  18
ENDBRANCH  16  17
ENDBRANCH  15  16
ENDBRANCH  14  15
ENDBRANCH   9  14
ENDBRANCH   7   9
ENDBRANCH   1   7
BRANCH   4  21
HETATM   21  O2  UNL     1      25.309   5.750  50.109  1.00  0.00    -0.346 OA
BRANCH  21  22
HETATM   22  C13 UNL     1      25.334   6.128  48.747  1.00  0.00     0.214 C 
BRANCH  22  23
HETATM   23  C14 UNL     1      26.793   6.242  48.388  1.00  0.00    -0.034 A 
HETATM   24  C15 UNL     1      27.272   7.423  47.831  1.00  0.00     0.009 A 
HETATM   25  C16 UNL     1      28.605   7.499  47.514  1.00  0.00     0.001 A 
HETATM   26  C17 UNL     1      29.507   6.467  47.718  1.00  0.00     0.000 A 
HETATM   27  C18 UNL     1      28.955   5.329  48.276  1.00  0.00     0.001 A 
HETATM   28  C19 UNL     1      27.626   5.168  48.624  1.00  0.00     0.009 A 
ENDBRANCH  22  23
ENDBRANCH  21  22
ENDBRANCH   4  21
TORSDOF 12
ENDMDL
MODEL 9
REMARK VINA RESULT:      -6.2      2.172      3.076
REMARK  12 active torsions:
REMARK  status: ('A' for Active; 'I' for Inactive)
REMARK    1  A    between atoms: N1_2  and  C3_4 
REMARK    2  A    between atoms: C3_4  and  C4_5 
REMARK    3  A    between atoms: C4_5  and  C5_6 
REMARK    4  A    between atoms: C4_5  and  C8_11 
REMARK    5  A    between atoms: C5_6  and  S1_7 
REMARK    6  A    between atoms: S1_7  and  C6_8 
REMARK    7  A    between atoms: C6_8  and  C7_9 
REMARK    8  A    between atoms: C7_9  and  N2_10 
REMARK    9  A    between atoms: C8_11  and  C9_13 
REMARK   10  A    between atoms: C12_16  and  O2_17 
REMARK   11  A    between atoms: O2_17  and  C13_18 
REMARK   12  A    between atoms: C13_18  and  C14_19 
ROOT
HETATM    1  C9  UNL     1      26.824   7.168  48.460  1.00  0.00     0.144 A 
HETATM    2  C10 UNL     1      27.723   6.001  48.322  1.00  0.00    -0.001 A 
HETATM    3  C11 UNL     1      27.766   4.748  48.703  1.00  0.00     0.035 A 
HETATM    4  C12 UNL     1      26.739   4.104  49.497  1.00  0.00     0.075 A 
HETATM    5  C20 UNL     1      25.712   4.901  49.823  1.00  0.00     0.082 A 
HETATM    6  S2  UNL     1      25.406   6.612  49.441  1.00  0.00    -0.122 SA
ENDROOT
BRANCH   1   7
HETATM    7  C8  UNL     1      27.471   8.375  49.003  1.00  0.00     0.150 C 
HETATM    8  O1  UNL     1      27.043   8.595  50.152  1.00  0.00    -0.296 OA
BRANCH   7   9
HETATM    9  C4  UNL     1      28.431   9.420  48.702  1.00  0.00     0.084 C 
BRANCH   9  10
HETATM   10  C3  UNL     1      28.733   9.690  47.258  1.00  0.00     0.129 C 
BRANCH  10  11
HETATM   11  N1  UNL     1      27.847  10.624  46.653  1.00  0.00    -0.420 N 
HETATM   12  C1  UNL     1      27.768  11.928  47.149  1.00  0.00     0.142 C 
HETATM   13  C2  UNL     1      27.088  10.228  45.543  1.00  0.00     0.142 C 
ENDBRANCH  10  11
ENDBRANCH   9  10
BRANCH   9  14
HETATM   14  C5  UNL     1      29.746   9.333  49.464  1.00  0.00     0.087 C 
BRANCH  14  15
HETATM   15  S1  UNL     1      31.041   8.700  48.376  1.00  0.00    -0.167 SA
BRANCH  15  16
HETATM   16  C6  UNL     1      32.125   7.510  49.147  1.00  0.00     0.103 C 
BRANCH  16  17
HETATM   17  C7  UNL     1      31.490   6.127  49.222  1.00  0.00     0.276 C 
BRANCH  17  18
HETATM   18  N2  UNL     1      31.650   5.722  50.626  1.00  0.00     0.079 N 
HETATM   19  H16 UNL     1      31.132   6.404  51.221  1.00  0.00     0.312 HD
HETATM   20  H17 UNL     1      32.660   5.740  50.818  1.00  0.00     0.312 HD
ENDBRANCH  17  18
ENDBRANCH  16  17
ENDBRANCH  15  16
ENDBRANCH  14  15
ENDBRANCH   9  14
ENDBRANCH   7   9
ENDBRANCH   1   7
BRANCH   4  21
HETATM   21  O2  UNL     1      26.567   2.833  50.007  1.00  0.00    -0.346 OA
BRANCH  21  22
HETATM   22  C13 UNL     1      25.928   2.685  51.259  1.00  0.00     0.214 C 
BRANCH  22  23
HETATM   23  C14 UNL     1      26.778   1.707  52.030  1.00  0.00    -0.034 A 
HETATM   24  C15 UNL     1      27.816   2.180  52.825  1.00  0.00     0.009 A 
HETATM   25  C16 UNL     1      28.573   1.267  53.516  1.00  0.00     0.001 A 
HETATM   26  C17 UNL     1      28.363  -0.102  53.472  1.00  0.00     0.000 A 
HETATM   27  C18 UNL     1      27.312  -0.492  52.662  1.00  0.00     0.001 A 
HETATM   28  C19 UNL     1      26.502   0.359  51.932  1.00  0.00     0.009 A 
ENDBRANCH  22  23
ENDBRANCH  21  22
ENDBRANCH   4  21
TORSDOF 12
ENDMDL
