MODEL 1
REMARK VINA RESULT:      -7.1      0.000      0.000
REMARK  7 active torsions:
REMARK  status: ('A' for Active; 'I' for Inactive)
REMARK    1  A    between atoms: P1_2  and  C2_3 
REMARK    2  A    between atoms: C5_7  and  O1_8 
REMARK    3  A    between atoms: O1_8  and  C6_9 
REMARK    4  A    between atoms: C10_13  and  N2_14 
REMARK    5  A    between atoms: N2_14  and  C11_15 
REMARK    6  A    between atoms: N3_18  and  C14_19 
REMARK    7  A    between atoms: C15_20  and  C16_21 
ROOT
HETATM    1  C2  UNL     1      23.710   5.314  50.267  1.00  0.00     0.192 C 
HETATM    2  N1  UNL     1      24.364   6.608  50.348  1.00  0.00    -0.285 NA
HETATM    3  C3  UNL     1      25.507   6.965  49.854  1.00  0.00     0.114 C 
HETATM    4  C4  UNL     1      26.612   6.412  49.077  1.00  0.00     0.051 C 
HETATM    5  C5  UNL     1      27.011   5.149  49.003  1.00  0.00     0.051 C 
HETATM    6  C8  UNL     1      26.772   3.761  49.463  1.00  0.00     0.093 C 
HETATM    7  C9  UNL     1      25.708   3.716  50.470  1.00  0.00     0.007 C 
HETATM    8  C10 UNL     1      24.559   4.229  50.857  1.00  0.00     0.036 C 
ENDROOT
BRANCH   8   9
HETATM    9  N2  UNL     1      23.999   3.676  52.044  1.00  0.00    -0.359 N 
HETATM   10  H14 UNL     1      23.360   4.256  52.597  1.00  0.00     0.165 HD
BRANCH   9  11
HETATM   11  C11 UNL     1      24.322   2.352  52.446  1.00  0.00     0.043 A 
HETATM   12  C12 UNL     1      23.891   1.121  52.002  1.00  0.00     0.038 A 
HETATM   13  C13 UNL     1      24.708   0.522  52.934  1.00  0.00     0.119 A 
HETATM   14  N3  UNL     1      25.623   0.576  53.957  1.00  0.00    -0.351 N 
HETATM   15  C19 UNL     1      25.150   1.785  53.390  1.00  0.00     0.141 A 
BRANCH  14  16
HETATM   16  C14 UNL     1      26.495   0.085  54.944  1.00  0.00     0.088 C 
HETATM   17  C15 UNL     1      27.813   0.205  54.958  1.00  0.00     0.017 C 
BRANCH  17  18
HETATM   18  C16 UNL     1      28.532   0.891  53.898  1.00  0.00    -0.003 C 
HETATM   19  C17 UNL     1      29.545   0.270  53.281  1.00  0.00    -0.031 C 
HETATM   20  C18 UNL     1      29.865  -1.113  53.739  1.00  0.00     0.036 C 
ENDBRANCH  17  18
ENDBRANCH  14  16
ENDBRANCH   9  11
ENDBRANCH   8   9
BRANCH   1  21
HETATM   21  P1  UNL     1      23.174   4.926  48.544  1.00  0.00    -0.037 P 
HETATM   22  C1  UNL     1      22.516   6.000  47.485  1.00  0.00     0.026 C 
ENDBRANCH   1  21
BRANCH   5  23
HETATM   23  O1  UNL     1      28.108   5.000  48.154  1.00  0.00    -0.355 OA
BRANCH  23  24
HETATM   24  C6  UNL     1      29.109   5.998  48.225  1.00  0.00     0.170 C 
HETATM   25  C7  UNL     1      30.474   5.451  47.865  1.00  0.00     0.034 C 
ENDBRANCH  23  24
ENDBRANCH   5  23
TORSDOF 7
ENDMDL
MODEL 2
REMARK VINA RESULT:      -6.8      2.625      3.641
REMARK  7 active torsions:
REMARK  status: ('A' for Active; 'I' for Inactive)
REMARK    1  A    between atoms: P1_2  and  C2_3 
REMARK    2  A    between atoms: C5_7  and  O1_8 
REMARK    3  A    between atoms: O1_8  and  C6_9 
REMARK    4  A    between atoms: C10_13  and  N2_14 
REMARK    5  A    between atoms: N2_14  and  C11_15 
REMARK    6  A    between atoms: N3_18  and  C14_19 
REMARK    7  A    between atoms: C15_20  and  C16_21 
ROOT
HETATM    1  C2  UNL     1      20.708   2.733  51.560  1.00  0.00     0.192 C 
HETATM    2  N1  UNL     1      21.432   3.653  52.418  1.00  0.00    -0.285 NA
HETATM    3  C3  UNL     1      22.440   4.411  52.119  1.00  0.00     0.114 C 
HETATM    4  C4  UNL     1      23.292   4.741  50.981  1.00  0.00     0.051 C 
HETATM    5  C5  UNL     1      23.592   3.985  49.934  1.00  0.00     0.051 C 
HETATM    6  C8  UNL     1      23.395   2.672  49.277  1.00  0.00     0.093 C 
HETATM    7  C9  UNL     1      22.606   1.772  50.123  1.00  0.00     0.007 C 
HETATM    8  C10 UNL     1      21.614   1.687  50.985  1.00  0.00     0.036 C 
ENDROOT
BRANCH   8   9
HETATM    9  N2  UNL     1      21.329   0.381  51.477  1.00  0.00    -0.359 N 
HETATM   10  H14 UNL     1      20.617  -0.176  50.994  1.00  0.00     0.165 HD
BRANCH   9  11
HETATM   11  C11 UNL     1      22.018  -0.132  52.608  1.00  0.00     0.043 A 
HETATM   12  C12 UNL     1      21.590  -0.853  53.702  1.00  0.00     0.038 A 
HETATM   13  C13 UNL     1      22.883  -0.862  54.176  1.00  0.00     0.119 A 
HETATM   14  N3  UNL     1      24.213  -0.533  54.076  1.00  0.00    -0.351 N 
HETATM   15  C19 UNL     1      23.322  -0.123  53.053  1.00  0.00     0.141 A 
BRANCH  14  16
HETATM   16  C14 UNL     1      25.566  -0.476  54.451  1.00  0.00     0.088 C 
HETATM   17  C15 UNL     1      26.598  -0.292  53.642  1.00  0.00     0.017 C 
BRANCH  17  18
HETATM   18  C16 UNL     1      26.429  -0.123  52.209  1.00  0.00    -0.003 C 
HETATM   19  C17 UNL     1      26.693   1.065  51.650  1.00  0.00    -0.031 C 
HETATM   20  C18 UNL     1      27.152   2.151  52.565  1.00  0.00     0.036 C 
ENDBRANCH  17  18
ENDBRANCH  14  16
ENDBRANCH   9  11
ENDBRANCH   8   9
BRANCH   1  21
HETATM   21  P1  UNL     1      19.751   3.623  50.257  1.00  0.00    -0.037 P 
HETATM   22  C1  UNL     1      19.451   3.059  48.741  1.00  0.00     0.026 C 
ENDBRANCH   1  21
BRANCH   5  23
HETATM   23  O1  UNL     1      24.441   4.642  49.043  1.00  0.00    -0.355 OA
BRANCH  23  24
HETATM   24  C6  UNL     1      25.684   5.082  49.556  1.00  0.00     0.170 C 
HETATM   25  C7  UNL     1      26.777   4.057  49.332  1.00  0.00     0.034 C 
ENDBRANCH  23  24
ENDBRANCH   5  23
TORSDOF 7
ENDMDL
MODEL 3
REMARK VINA RESULT:      -6.8      3.309      4.338
REMARK  7 active torsions:
REMARK  status: ('A' for Active; 'I' for Inactive)
REMARK    1  A    between atoms: P1_2  and  C2_3 
REMARK    2  A    between atoms: C5_7  and  O1_8 
REMARK    3  A    between atoms: O1_8  and  C6_9 
REMARK    4  A    between atoms: C10_13  and  N2_14 
REMARK    5  A    between atoms: N2_14  and  C11_15 
REMARK    6  A    between atoms: N3_18  and  C14_19 
REMARK    7  A    between atoms: C15_20  and  C16_21 
ROOT
HETATM    1  C2  UNL     1      22.322   3.009  52.069  1.00  0.00     0.192 C 
HETATM    2  N1  UNL     1      23.682   3.203  51.599  1.00  0.00    -0.285 NA
HETATM    3  C3  UNL     1      24.122   3.200  50.381  1.00  0.00     0.114 C 
HETATM    4  C4  UNL     1      23.632   3.036  49.015  1.00  0.00     0.051 C 
HETATM    5  C5  UNL     1      22.572   2.355  48.600  1.00  0.00     0.051 C 
HETATM    6  C8  UNL     1      21.425   1.510  49.005  1.00  0.00     0.093 C 
HETATM    7  C9  UNL     1      21.467   1.218  50.441  1.00  0.00     0.007 C 
HETATM    8  C10 UNL     1      21.772   1.685  51.634  1.00  0.00     0.036 C 
ENDROOT
BRANCH   8   9
HETATM    9  N2  UNL     1      21.550   0.796  52.725  1.00  0.00    -0.359 N 
HETATM   10  H14 UNL     1      20.588   0.654  53.049  1.00  0.00     0.165 HD
BRANCH   9  11
HETATM   11  C11 UNL     1      22.639   0.124  53.342  1.00  0.00     0.043 A 
HETATM   12  C12 UNL     1      22.756  -0.530  54.550  1.00  0.00     0.038 A 
HETATM   13  C13 UNL     1      24.070  -0.809  54.248  1.00  0.00     0.119 A 
HETATM   14  N3  UNL     1      25.162  -0.747  53.419  1.00  0.00    -0.351 N 
HETATM   15  C19 UNL     1      23.949  -0.139  53.009  1.00  0.00     0.141 A 
BRANCH  14  16
HETATM   16  C14 UNL     1      26.484  -0.969  52.996  1.00  0.00     0.088 C 
HETATM   17  C15 UNL     1      27.385  -0.042  52.715  1.00  0.00     0.017 C 
BRANCH  17  18
HETATM   18  C16 UNL     1      27.085   1.376  52.819  1.00  0.00    -0.003 C 
HETATM   19  C17 UNL     1      27.919   2.178  53.494  1.00  0.00    -0.031 C 
HETATM   20  C18 UNL     1      29.122   1.538  54.102  1.00  0.00     0.036 C 
ENDBRANCH  17  18
ENDBRANCH  14  16
ENDBRANCH   9  11
ENDBRANCH   8   9
BRANCH   1  21
HETATM   21  P1  UNL     1      21.227   4.415  51.589  1.00  0.00    -0.037 P 
HETATM   22  C1  UNL     1      21.740   5.907  51.124  1.00  0.00     0.026 C 
ENDBRANCH   1  21
BRANCH   5  23
HETATM   23  O1  UNL     1      22.419   2.426  47.215  1.00  0.00    -0.355 OA
BRANCH  23  24
HETATM   24  C6  UNL     1      21.483   3.368  46.726  1.00  0.00     0.170 C 
HETATM   25  C7  UNL     1      21.869   3.884  45.356  1.00  0.00     0.034 C 
ENDBRANCH  23  24
ENDBRANCH   5  23
TORSDOF 7
ENDMDL
MODEL 4
REMARK VINA RESULT:      -6.7      1.565      2.112
REMARK  7 active torsions:
REMARK  status: ('A' for Active; 'I' for Inactive)
REMARK    1  A    between atoms: P1_2  and  C2_3 
REMARK    2  A    between atoms: C5_7  and  O1_8 
REMARK    3  A    between atoms: O1_8  and  C6_9 
REMARK    4  A    between atoms: C10_13  and  N2_14 
REMARK    5  A    between atoms: N2_14  and  C11_15 
REMARK    6  A    between atoms: N3_18  and  C14_19 
REMARK    7  A    between atoms: C15_20  and  C16_21 
ROOT
HETATM    1  C2  UNL     1      24.574   6.992  49.767  1.00  0.00     0.192 C 
HETATM    2  N1  UNL     1      25.455   8.112  50.051  1.00  0.00    -0.285 NA
HETATM    3  C3  UNL     1      26.653   8.327  49.609  1.00  0.00     0.114 C 
HETATM    4  C4  UNL     1      27.651   7.714  48.738  1.00  0.00     0.051 C 
HETATM    5  C5  UNL     1      27.812   6.429  48.451  1.00  0.00     0.051 C 
HETATM    6  C8  UNL     1      27.312   5.053  48.679  1.00  0.00     0.093 C 
HETATM    7  C9  UNL     1      26.240   5.041  49.678  1.00  0.00     0.007 C 
HETATM    8  C10 UNL     1      25.198   5.687  50.159  1.00  0.00     0.036 C 
ENDROOT
BRANCH   8   9
HETATM    9  N2  UNL     1      24.524   5.059  51.245  1.00  0.00    -0.359 N 
HETATM   10  H14 UNL     1      24.281   5.629  52.061  1.00  0.00     0.165 HD
BRANCH   9  11
HETATM   11  C11 UNL     1      24.199   3.677  51.192  1.00  0.00     0.043 A 
HETATM   12  C12 UNL     1      23.616   2.902  50.213  1.00  0.00     0.038 A 
HETATM   13  C13 UNL     1      23.727   1.808  51.043  1.00  0.00     0.119 A 
HETATM   14  N3  UNL     1      24.097   1.217  52.226  1.00  0.00    -0.351 N 
HETATM   15  C19 UNL     1      24.325   2.604  52.047  1.00  0.00     0.141 A 
BRANCH  14  16
HETATM   16  C14 UNL     1      24.267   0.181  53.160  1.00  0.00     0.088 C 
HETATM   17  C15 UNL     1      25.334  -0.590  53.293  1.00  0.00     0.017 C 
BRANCH  17  18
HETATM   18  C16 UNL     1      26.502  -0.437  52.441  1.00  0.00    -0.003 C 
HETATM   19  C17 UNL     1      27.675  -0.094  52.987  1.00  0.00    -0.031 C 
HETATM   20  C18 UNL     1      27.695   0.110  54.466  1.00  0.00     0.036 C 
ENDBRANCH  17  18
ENDBRANCH  14  16
ENDBRANCH   9  11
ENDBRANCH   8   9
BRANCH   1  21
HETATM   21  P1  UNL     1      24.008   6.999  48.010  1.00  0.00    -0.037 P 
HETATM   22  C1  UNL     1      24.485   8.073  46.858  1.00  0.00     0.026 C 
ENDBRANCH   1  21
BRANCH   5  23
HETATM   23  O1  UNL     1      28.877   6.221  47.575  1.00  0.00    -0.355 OA
BRANCH  23  24
HETATM   24  C6  UNL     1      29.912   5.365  48.023  1.00  0.00     0.170 C 
HETATM   25  C7  UNL     1      30.992   6.128  48.761  1.00  0.00     0.034 C 
ENDBRANCH  23  24
ENDBRANCH   5  23
TORSDOF 7
ENDMDL
MODEL 5
REMARK VINA RESULT:      -6.6      3.734      6.993
REMARK  7 active torsions:
REMARK  status: ('A' for Active; 'I' for Inactive)
REMARK    1  A    between atoms: P1_2  and  C2_3 
REMARK    2  A    between atoms: C5_7  and  O1_8 
REMARK    3  A    between atoms: O1_8  and  C6_9 
REMARK    4  A    between atoms: C10_13  and  N2_14 
REMARK    5  A    between atoms: N2_14  and  C11_15 
REMARK    6  A    between atoms: N3_18  and  C14_19 
REMARK    7  A    between atoms: C15_20  and  C16_21 
ROOT
HETATM    1  C2  UNL     1      22.427   4.032  50.286  1.00  0.00     0.192 C 
HETATM    2  N1  UNL     1      22.371   3.024  49.242  1.00  0.00    -0.285 NA
HETATM    3  C3  UNL     1      22.094   1.764  49.354  1.00  0.00     0.114 C 
HETATM    4  C4  UNL     1      21.742   0.781  50.374  1.00  0.00     0.051 C 
HETATM    5  C5  UNL     1      22.045   0.795  51.665  1.00  0.00     0.051 C 
HETATM    6  C8  UNL     1      22.731   1.530  52.753  1.00  0.00     0.093 C 
HETATM    7  C9  UNL     1      23.443   2.700  52.231  1.00  0.00     0.007 C 
HETATM    8  C10 UNL     1      23.425   3.674  51.345  1.00  0.00     0.036 C 
ENDROOT
BRANCH   8   9
HETATM    9  N2  UNL     1      24.539   4.562  51.374  1.00  0.00    -0.359 N 
HETATM   10  H14 UNL     1      24.600   5.240  52.140  1.00  0.00     0.165 HD
BRANCH   9  11
HETATM   11  C11 UNL     1      25.536   4.502  50.365  1.00  0.00     0.043 A 
HETATM   12  C12 UNL     1      26.176   3.443  49.759  1.00  0.00     0.038 A 
HETATM   13  C13 UNL     1      26.892   4.338  48.996  1.00  0.00     0.119 A 
HETATM   14  N3  UNL     1      27.217   5.616  48.613  1.00  0.00    -0.351 N 
HETATM   15  C19 UNL     1      26.235   5.425  49.617  1.00  0.00     0.141 A 
BRANCH  14  16
HETATM   16  C14 UNL     1      27.881   6.625  47.895  1.00  0.00     0.088 C 
HETATM   17  C15 UNL     1      29.178   6.686  47.643  1.00  0.00     0.017 C 
BRANCH  17  18
HETATM   18  C16 UNL     1      30.099   5.662  48.107  1.00  0.00    -0.003 C 
HETATM   19  C17 UNL     1      31.160   6.014  48.844  1.00  0.00    -0.031 C 
HETATM   20  C18 UNL     1      31.319   7.468  49.140  1.00  0.00     0.036 C 
ENDBRANCH  17  18
ENDBRANCH  14  16
ENDBRANCH   9  11
ENDBRANCH   8   9
BRANCH   1  21
HETATM   21  P1  UNL     1      20.756   4.381  50.988  1.00  0.00    -0.037 P 
HETATM   22  C1  UNL     1      19.373   4.559  50.114  1.00  0.00     0.026 C 
ENDBRANCH   1  21
BRANCH   5  23
HETATM   23  O1  UNL     1      21.533  -0.319  52.331  1.00  0.00    -0.355 OA
BRANCH  23  24
HETATM   24  C6  UNL     1      22.341  -0.878  53.350  1.00  0.00     0.170 C 
HETATM   25  C7  UNL     1      21.515  -1.629  54.373  1.00  0.00     0.034 C 
ENDBRANCH  23  24
ENDBRANCH   5  23
TORSDOF 7
ENDMDL
MODEL 6
REMARK VINA RESULT:      -6.5      3.490      6.021
REMARK  7 active torsions:
REMARK  status: ('A' for Active; 'I' for Inactive)
REMARK    1  A    between atoms: P1_2  and  C2_3 
REMARK    2  A    between atoms: C5_7  and  O1_8 
REMARK    3  A    between atoms: O1_8  and  C6_9 
REMARK    4  A    between atoms: C10_13  and  N2_14 
REMARK    5  A    between atoms: N2_14  and  C11_15 
REMARK    6  A    between atoms: N3_18  and  C14_19 
REMARK    7  A    between atoms: C15_20  and  C16_21 
ROOT
HETATM    1  C2  UNL     1      21.678   3.356  49.472  1.00  0.00     0.192 C 
HETATM    2  N1  UNL     1      21.738   2.017  48.914  1.00  0.00    -0.285 NA
HETATM    3  C3  UNL     1      21.342   0.904  49.446  1.00  0.00     0.114 C 
HETATM    4  C4  UNL     1      20.724   0.407  50.671  1.00  0.00     0.051 C 
HETATM    5  C5  UNL     1      20.778   0.932  51.888  1.00  0.00     0.051 C 
HETATM    6  C8  UNL     1      21.305   2.037  52.722  1.00  0.00     0.093 C 
HETATM    7  C9  UNL     1      22.197   2.904  51.945  1.00  0.00     0.007 C 
HETATM    8  C10 UNL     1      22.426   3.447  50.768  1.00  0.00     0.036 C 
ENDROOT
BRANCH   8   9
HETATM    9  N2  UNL     1      23.583   4.272  50.679  1.00  0.00    -0.359 N 
HETATM   10  H14 UNL     1      23.454   5.289  50.643  1.00  0.00     0.165 HD
BRANCH   9  11
HETATM   11  C11 UNL     1      24.881   3.696  50.642  1.00  0.00     0.043 A 
HETATM   12  C12 UNL     1      25.821   3.598  49.638  1.00  0.00     0.038 A 
HETATM   13  C13 UNL     1      26.654   2.936  50.510  1.00  0.00     0.119 A 
HETATM   14  N3  UNL     1      26.942   2.402  51.743  1.00  0.00    -0.351 N 
HETATM   15  C19 UNL     1      25.690   3.035  51.540  1.00  0.00     0.141 A 
BRANCH  14  16
HETATM   16  C14 UNL     1      27.698   1.741  52.725  1.00  0.00     0.088 C 
HETATM   17  C15 UNL     1      27.642   0.453  53.025  1.00  0.00     0.017 C 
BRANCH  17  18
HETATM   18  C16 UNL     1      26.744  -0.457  52.334  1.00  0.00    -0.003 C 
HETATM   19  C17 UNL     1      25.632  -0.880  52.949  1.00  0.00    -0.031 C 
HETATM   20  C18 UNL     1      25.395  -0.371  54.332  1.00  0.00     0.036 C 
ENDBRANCH  17  18
ENDBRANCH  14  16
ENDBRANCH   9  11
ENDBRANCH   8   9
BRANCH   1  21
HETATM   21  P1  UNL     1      19.939   3.956  49.623  1.00  0.00    -0.037 P 
HETATM   22  C1  UNL     1      18.620   3.232  48.959  1.00  0.00     0.026 C 
ENDBRANCH   1  21
BRANCH   5  23
HETATM   23  O1  UNL     1      20.060   0.174  52.813  1.00  0.00    -0.355 OA
BRANCH  23  24
HETATM   24  C6  UNL     1      20.596   0.090  54.120  1.00  0.00     0.170 C 
HETATM   25  C7  UNL     1      21.204  -1.271  54.391  1.00  0.00     0.034 C 
ENDBRANCH  23  24
ENDBRANCH   5  23
TORSDOF 7
ENDMDL
MODEL 7
REMARK VINA RESULT:      -6.5      2.011      2.365
REMARK  7 active torsions:
REMARK  status: ('A' for Active; 'I' for Inactive)
REMARK    1  A    between atoms: P1_2  and  C2_3 
REMARK    2  A    between atoms: C5_7  and  O1_8 
REMARK    3  A    between atoms: O1_8  and  C6_9 
REMARK    4  A    between atoms: C10_13  and  N2_14 
REMARK    5  A    between atoms: N2_14  and  C11_15 
REMARK    6  A    between atoms: N3_18  and  C14_19 
REMARK    7  A    between atoms: C15_20  and  C16_21 
ROOT
HETATM    1  C2  UNL     1      22.232   4.980  51.126  1.00  0.00     0.192 C 
HETATM    2  N1  UNL     1      21.734   6.343  51.168  1.00  0.00    -0.285 NA
HETATM    3  C3  UNL     1      22.078   7.350  50.431  1.00  0.00     0.114 C 
HETATM    4  C4  UNL     1      22.985   7.676  49.334  1.00  0.00     0.051 C 
HETATM    5  C5  UNL     1      24.136   7.096  49.021  1.00  0.00     0.051 C 
HETATM    6  C8  UNL     1      25.108   6.035  49.377  1.00  0.00     0.093 C 
HETATM    7  C9  UNL     1      24.720   5.360  50.619  1.00  0.00     0.007 C 
HETATM    8  C10 UNL     1      23.714   4.928  51.349  1.00  0.00     0.036 C 
ENDROOT
BRANCH   8   9
HETATM    9  N2  UNL     1      24.063   4.293  52.576  1.00  0.00    -0.359 N 
HETATM   10  H14 UNL     1      23.935   4.816  53.448  1.00  0.00     0.165 HD
BRANCH   9  11
HETATM   11  C11 UNL     1      24.574   2.968  52.584  1.00  0.00     0.043 A 
HETATM   12  C12 UNL     1      24.562   1.967  51.636  1.00  0.00     0.038 A 
HETATM   13  C13 UNL     1      25.241   1.154  52.516  1.00  0.00     0.119 A 
HETATM   14  N3  UNL     1      25.840   0.914  53.728  1.00  0.00    -0.351 N 
HETATM   15  C19 UNL     1      25.253   2.181  53.488  1.00  0.00     0.141 A 
BRANCH  14  16
HETATM   16  C14 UNL     1      26.532   0.185  54.711  1.00  0.00     0.088 C 
HETATM   17  C15 UNL     1      27.845   0.132  54.870  1.00  0.00     0.017 C 
BRANCH  17  18
HETATM   18  C16 UNL     1      28.753   0.858  53.999  1.00  0.00    -0.003 C 
HETATM   19  C17 UNL     1      29.776   0.211  53.426  1.00  0.00    -0.031 C 
HETATM   20  C18 UNL     1      29.907  -1.244  53.733  1.00  0.00     0.036 C 
ENDBRANCH  17  18
ENDBRANCH  14  16
ENDBRANCH   9  11
ENDBRANCH   8   9
BRANCH   1  21
HETATM   21  P1  UNL     1      21.727   4.116  49.575  1.00  0.00    -0.037 P 
HETATM   22  C1  UNL     1      22.696   3.146  48.665  1.00  0.00     0.026 C 
ENDBRANCH   1  21
BRANCH   5  23
HETATM   23  O1  UNL     1      24.726   7.681  47.901  1.00  0.00    -0.355 OA
BRANCH  23  24
HETATM   24  C6  UNL     1      26.105   7.429  47.703  1.00  0.00     0.170 C 
HETATM   25  C7  UNL     1      26.833   8.657  47.197  1.00  0.00     0.034 C 
ENDBRANCH  23  24
ENDBRANCH   5  23
TORSDOF 7
ENDMDL
MODEL 8
REMARK VINA RESULT:      -6.5      2.588      6.582
REMARK  7 active torsions:
REMARK  status: ('A' for Active; 'I' for Inactive)
REMARK    1  A    between atoms: P1_2  and  C2_3 
REMARK    2  A    between atoms: C5_7  and  O1_8 
REMARK    3  A    between atoms: O1_8  and  C6_9 
REMARK    4  A    between atoms: C10_13  and  N2_14 
REMARK    5  A    between atoms: N2_14  and  C11_15 
REMARK    6  A    between atoms: N3_18  and  C14_19 
REMARK    7  A    between atoms: C15_20  and  C16_21 
ROOT
HETATM    1  C2  UNL     1      24.449   4.312  50.122  1.00  0.00     0.192 C 
HETATM    2  N1  UNL     1      25.857   3.994  49.964  1.00  0.00    -0.285 NA
HETATM    3  C3  UNL     1      26.514   2.987  50.444  1.00  0.00     0.114 C 
HETATM    4  C4  UNL     1      26.300   1.800  51.266  1.00  0.00     0.051 C 
HETATM    5  C5  UNL     1      25.383   1.607  52.205  1.00  0.00     0.051 C 
HETATM    6  C8  UNL     1      24.239   2.198  52.937  1.00  0.00     0.093 C 
HETATM    7  C9  UNL     1      24.033   3.597  52.552  1.00  0.00     0.007 C 
HETATM    8  C10 UNL     1      24.078   4.468  51.566  1.00  0.00     0.036 C 
ENDROOT
BRANCH   8   9
HETATM    9  N2  UNL     1      23.717   5.805  51.900  1.00  0.00    -0.359 N 
HETATM   10  H14 UNL     1      23.127   5.958  52.724  1.00  0.00     0.165 HD
BRANCH   9  11
HETATM   11  C11 UNL     1      24.166   6.894  51.107  1.00  0.00     0.043 A 
HETATM   12  C12 UNL     1      23.491   7.828  50.351  1.00  0.00     0.038 A 
HETATM   13  C13 UNL     1      24.698   8.395  50.010  1.00  0.00     0.119 A 
HETATM   14  N3  UNL     1      26.069   8.453  50.066  1.00  0.00    -0.351 N 
HETATM   15  C19 UNL     1      25.391   7.437  50.785  1.00  0.00     0.141 A 
BRANCH  14  16
HETATM   16  C14 UNL     1      27.359   8.940  49.794  1.00  0.00     0.088 C 
HETATM   17  C15 UNL     1      28.189   8.490  48.867  1.00  0.00     0.017 C 
BRANCH  17  18
HETATM   18  C16 UNL     1      27.834   7.387  47.990  1.00  0.00    -0.003 C 
HETATM   19  C17 UNL     1      28.724   6.411  47.766  1.00  0.00    -0.031 C 
HETATM   20  C18 UNL     1      30.044   6.534  48.451  1.00  0.00     0.036 C 
ENDBRANCH  17  18
ENDBRANCH  14  16
ENDBRANCH   9  11
ENDBRANCH   8   9
BRANCH   1  21
HETATM   21  P1  UNL     1      23.371   3.093  49.250  1.00  0.00    -0.037 P 
HETATM   22  C1  UNL     1      22.026   2.387  49.881  1.00  0.00     0.026 C 
ENDBRANCH   1  21
BRANCH   5  23
HETATM   23  O1  UNL     1      25.485   0.340  52.779  1.00  0.00    -0.355 OA
BRANCH  23  24
HETATM   24  C6  UNL     1      26.781  -0.225  52.848  1.00  0.00     0.170 C 
HETATM   25  C7  UNL     1      26.767  -1.703  52.520  1.00  0.00     0.034 C 
ENDBRANCH  23  24
ENDBRANCH   5  23
TORSDOF 7
ENDMDL
MODEL 9
REMARK VINA RESULT:      -6.5      2.251      2.739
REMARK  7 active torsions:
REMARK  status: ('A' for Active; 'I' for Inactive)
REMARK    1  A    between atoms: P1_2  and  C2_3 
REMARK    2  A    between atoms: C5_7  and  O1_8 
REMARK    3  A    between atoms: O1_8  and  C6_9 
REMARK    4  A    between atoms: C10_13  and  N2_14 
REMARK    5  A    between atoms: N2_14  and  C11_15 
REMARK    6  A    between atoms: N3_18  and  C14_19 
REMARK    7  A    between atoms: C15_20  and  C16_21 
ROOT
HETATM    1  C2  UNL     1      21.584   3.523  51.124  1.00  0.00     0.192 C 
HETATM    2  N1  UNL     1      21.975   4.424  52.193  1.00  0.00    -0.285 NA
HETATM    3  C3  UNL     1      22.909   5.322  52.189  1.00  0.00     0.114 C 
HETATM    4  C4  UNL     1      23.929   5.871  51.301  1.00  0.00     0.051 C 
HETATM    5  C5  UNL     1      24.546   5.272  50.291  1.00  0.00     0.051 C 
HETATM    6  C8  UNL     1      24.677   4.023  49.505  1.00  0.00     0.093 C 
HETATM    7  C9  UNL     1      23.857   2.951  50.078  1.00  0.00     0.007 C 
HETATM    8  C10 UNL     1      22.727   2.658  50.687  1.00  0.00     0.036 C 
ENDROOT
BRANCH   8   9
HETATM    9  N2  UNL     1      22.526   1.283  50.997  1.00  0.00    -0.359 N 
HETATM   10  H14 UNL     1      21.899   0.735  50.399  1.00  0.00     0.165 HD
BRANCH   9  11
HETATM   11  C11 UNL     1      23.183   0.689  52.108  1.00  0.00     0.043 A 
HETATM   12  C12 UNL     1      22.833  -0.353  52.940  1.00  0.00     0.038 A 
HETATM   13  C13 UNL     1      24.012  -0.172  53.628  1.00  0.00     0.119 A 
HETATM   14  N3  UNL     1      25.205   0.474  53.840  1.00  0.00    -0.351 N 
HETATM   15  C19 UNL     1      24.370   0.897  52.775  1.00  0.00     0.141 A 
BRANCH  14  16
HETATM   16  C14 UNL     1      26.435   0.756  54.458  1.00  0.00     0.088 C 
HETATM   17  C15 UNL     1      27.573   0.105  54.275  1.00  0.00     0.017 C 
BRANCH  17  18
HETATM   18  C16 UNL     1      27.673  -1.027  53.369  1.00  0.00    -0.003 C 
HETATM   19  C17 UNL     1      28.877  -1.538  53.084  1.00  0.00    -0.031 C 
HETATM   20  C18 UNL     1      30.054  -0.891  53.734  1.00  0.00     0.036 C 
ENDBRANCH  17  18
ENDBRANCH  14  16
ENDBRANCH   9  11
ENDBRANCH   8   9
BRANCH   1  21
HETATM   21  P1  UNL     1      20.812   4.430  49.715  1.00  0.00    -0.037 P 
HETATM   22  C1  UNL     1      21.099   4.138  48.121  1.00  0.00     0.026 C 
ENDBRANCH   1  21
BRANCH   5  23
HETATM   23  O1  UNL     1      25.466   6.116  49.668  1.00  0.00    -0.355 OA
BRANCH  23  24
HETATM   24  C6  UNL     1      25.690   7.373  50.278  1.00  0.00     0.170 C 
HETATM   25  C7  UNL     1      25.501   8.513  49.300  1.00  0.00     0.034 C 
ENDBRANCH  23  24
ENDBRANCH   5  23
TORSDOF 7
ENDMDL
