MODEL 1
REMARK VINA RESULT:      -9.4      0.000      0.000
REMARK  2 active torsions:
REMARK  status: ('A' for Active; 'I' for Inactive)
REMARK    1  A    between atoms: O1_1  and  C1_2 
REMARK    2  A    between atoms: C4_5  and  C5_6 
ROOT
HETATM    1  C5  UNL     1      26.556   1.771  52.854  1.00  0.00     0.151 A 
HETATM    2  N1  UNL     1      27.251   2.752  52.083  1.00  0.00    -0.362 N 
HETATM    3  C6  UNL     1      26.219   2.761  51.070  1.00  0.00     0.132 A 
HETATM    4  C7  UNL     1      25.552   1.853  51.763  1.00  0.00     0.010 A 
HETATM    5  C8  UNL     1      24.236   1.345  51.239  1.00  0.00     0.156 C 
HETATM    6  N2  UNL     1      23.310   2.392  50.981  1.00  0.00    -0.407 N 
HETATM    7  C9  UNL     1      22.820   3.091  52.130  1.00  0.00     0.125 C 
HETATM    8  C10 UNL     1      21.444   3.579  52.037  1.00  0.00     0.002 C 
HETATM    9  C11 UNL     1      20.853   4.624  51.486  1.00  0.00    -0.002 C 
HETATM   10  C12 UNL     1      21.554   5.883  51.146  1.00  0.00     0.002 C 
HETATM   11  C13 UNL     1      22.883   6.108  51.143  1.00  0.00     0.029 C 
HETATM   12  C14 UNL     1      23.982   5.174  51.477  1.00  0.00     0.031 C 
HETATM   13  C15 UNL     1      23.821   4.194  52.375  1.00  0.00     0.031 C 
HETATM   14  N3  UNL     1      25.094   5.602  50.654  1.00  0.00    -0.351 N 
HETATM   15  C16 UNL     1      25.660   4.677  49.730  1.00  0.00     0.209 C 
HETATM   16  N4  UNL     1      26.126   3.515  49.868  1.00  0.00    -0.226 NA
HETATM   17  H5  UNL     1      28.183   3.127  52.431  1.00  0.00     0.162 HD
HETATM   18  H8  UNL     1      23.400   2.917  50.113  1.00  0.00     0.154 HD
HETATM   19  H15 UNL     1      25.394   6.589  50.814  1.00  0.00     0.166 HD
ENDROOT
BRANCH   1  20
HETATM   20  C4  UNL     1      27.250   0.467  53.001  1.00  0.00    -0.031 A 
HETATM   21  C3  UNL     1      28.528   0.191  53.430  1.00  0.00     0.012 A 
HETATM   22  C2  UNL     1      28.949  -1.115  53.480  1.00  0.00     0.037 A 
HETATM   23  C1  UNL     1      28.129  -2.160  53.113  1.00  0.00     0.065 A 
HETATM   24  C18 UNL     1      26.825  -1.907  52.674  1.00  0.00     0.037 A 
HETATM   25  C17 UNL     1      26.423  -0.568  52.633  1.00  0.00     0.012 A 
BRANCH  23  26
HETATM   26  O1  UNL     1      28.621  -3.457  53.188  1.00  0.00    -0.361 OA
HETATM   27  H1  UNL     1      28.576  -3.958  54.086  1.00  0.00     0.217 HD
ENDBRANCH  23  26
ENDBRANCH   1  20
TORSDOF 2
ENDMDL
MODEL 2
REMARK VINA RESULT:      -9.1      3.074      4.949
REMARK  2 active torsions:
REMARK  status: ('A' for Active; 'I' for Inactive)
REMARK    1  A    between atoms: O1_1  and  C1_2 
REMARK    2  A    between atoms: C4_5  and  C5_6 
ROOT
HETATM    1  C5  UNL     1      22.720   1.936  51.455  1.00  0.00     0.151 A 
HETATM    2  N1  UNL     1      22.041   3.172  51.677  1.00  0.00    -0.362 N 
HETATM    3  C6  UNL     1      23.275   3.850  52.006  1.00  0.00     0.132 A 
HETATM    4  C7  UNL     1      23.932   2.719  51.807  1.00  0.00     0.010 A 
HETATM    5  C8  UNL     1      25.425   2.690  51.993  1.00  0.00     0.156 C 
HETATM    6  N2  UNL     1      26.092   3.668  51.205  1.00  0.00    -0.407 N 
HETATM    7  C9  UNL     1      26.054   3.464  49.789  1.00  0.00     0.125 C 
HETATM    8  C10 UNL     1      27.234   3.915  49.051  1.00  0.00     0.002 C 
HETATM    9  C11 UNL     1      27.671   5.077  48.599  1.00  0.00    -0.002 C 
HETATM   10  C12 UNL     1      26.797   6.246  48.350  1.00  0.00     0.002 C 
HETATM   11  C13 UNL     1      25.509   6.401  48.713  1.00  0.00     0.029 C 
HETATM   12  C14 UNL     1      24.632   5.457  49.443  1.00  0.00     0.031 C 
HETATM   13  C15 UNL     1      24.780   4.130  49.330  1.00  0.00     0.031 C 
HETATM   14  N3  UNL     1      23.719   6.300  50.187  1.00  0.00    -0.351 N 
HETATM   15  C16 UNL     1      23.681   6.185  51.606  1.00  0.00     0.209 C 
HETATM   16  N4  UNL     1      23.503   5.204  52.375  1.00  0.00    -0.226 NA
HETATM   17  H5  UNL     1      20.987   3.219  51.552  1.00  0.00     0.162 HD
HETATM   18  H8  UNL     1      26.115   4.629  51.542  1.00  0.00     0.154 HD
HETATM   19  H15 UNL     1      23.149   6.944  49.596  1.00  0.00     0.166 HD
ENDROOT
BRANCH   1  20
HETATM   20  C4  UNL     1      22.364   0.837  52.387  1.00  0.00    -0.031 A 
HETATM   21  C3  UNL     1      23.174  -0.072  53.030  1.00  0.00     0.012 A 
HETATM   22  C2  UNL     1      22.603  -1.010  53.855  1.00  0.00     0.037 A 
HETATM   23  C1  UNL     1      21.240  -1.069  54.060  1.00  0.00     0.065 A 
HETATM   24  C18 UNL     1      20.396  -0.156  53.418  1.00  0.00     0.037 A 
HETATM   25  C17 UNL     1      21.005   0.787  52.585  1.00  0.00     0.012 A 
BRANCH  23  26
HETATM   26  O1  UNL     1      20.731  -2.045  54.907  1.00  0.00    -0.361 OA
HETATM   27  H1  UNL     1      20.715  -1.867  55.920  1.00  0.00     0.217 HD
ENDBRANCH  23  26
ENDBRANCH   1  20
TORSDOF 2
ENDMDL
MODEL 3
REMARK VINA RESULT:      -8.8      2.933      4.686
REMARK  2 active torsions:
REMARK  status: ('A' for Active; 'I' for Inactive)
REMARK    1  A    between atoms: O1_1  and  C1_2 
REMARK    2  A    between atoms: C4_5  and  C5_6 
ROOT
HETATM    1  C5  UNL     1      22.494   1.557  51.669  1.00  0.00     0.151 A 
HETATM    2  N1  UNL     1      21.293   2.287  51.414  1.00  0.00    -0.362 N 
HETATM    3  C6  UNL     1      21.940   3.549  51.696  1.00  0.00     0.132 A 
HETATM    4  C7  UNL     1      23.067   2.901  51.936  1.00  0.00     0.010 A 
HETATM    5  C8  UNL     1      24.296   3.677  52.329  1.00  0.00     0.156 C 
HETATM    6  N2  UNL     1      24.625   4.689  51.387  1.00  0.00    -0.407 N 
HETATM    7  C9  UNL     1      25.069   4.231  50.105  1.00  0.00     0.125 C 
HETATM    8  C10 UNL     1      26.061   5.075  49.438  1.00  0.00     0.002 C 
HETATM    9  C11 UNL     1      26.022   6.187  48.726  1.00  0.00    -0.002 C 
HETATM   10  C12 UNL     1      24.814   6.671  48.020  1.00  0.00     0.002 C 
HETATM   11  C13 UNL     1      23.553   6.209  48.137  1.00  0.00     0.029 C 
HETATM   12  C14 UNL     1      23.045   5.107  48.985  1.00  0.00     0.031 C 
HETATM   13  C15 UNL     1      23.808   4.051  49.295  1.00  0.00     0.031 C 
HETATM   14  N3  UNL     1      21.686   5.486  49.309  1.00  0.00    -0.351 N 
HETATM   15  C16 UNL     1      21.323   5.638  50.678  1.00  0.00     0.209 C 
HETATM   16  N4  UNL     1      21.414   4.870  51.672  1.00  0.00    -0.226 NA
HETATM   17  H5  UNL     1      20.411   1.762  51.135  1.00  0.00     0.162 HD
HETATM   18  H8  UNL     1      24.115   5.569  51.422  1.00  0.00     0.154 HD
HETATM   19  H15 UNL     1      21.067   5.621  48.480  1.00  0.00     0.166 HD
ENDROOT
BRANCH   1  20
HETATM   20  C4  UNL     1      22.443   0.631  52.827  1.00  0.00    -0.031 A 
HETATM   21  C3  UNL     1      21.374   0.248  53.605  1.00  0.00     0.012 A 
HETATM   22  C2  UNL     1      21.581  -0.635  54.637  1.00  0.00     0.037 A 
HETATM   23  C1  UNL     1      22.828  -1.150  54.918  1.00  0.00     0.065 A 
HETATM   24  C18 UNL     1      23.931  -0.776  54.142  1.00  0.00     0.037 A 
HETATM   25  C17 UNL     1      23.692   0.123  53.099  1.00  0.00     0.012 A 
BRANCH  23  26
HETATM   26  O1  UNL     1      22.964  -2.037  55.978  1.00  0.00    -0.361 OA
HETATM   27  H1  UNL     1      23.818  -2.606  56.047  1.00  0.00     0.217 HD
ENDBRANCH  23  26
ENDBRANCH   1  20
TORSDOF 2
ENDMDL
MODEL 4
REMARK VINA RESULT:      -8.8      3.437      6.007
REMARK  2 active torsions:
REMARK  status: ('A' for Active; 'I' for Inactive)
REMARK    1  A    between atoms: O1_1  and  C1_2 
REMARK    2  A    between atoms: C4_5  and  C5_6 
ROOT
HETATM    1  C5  UNL     1      25.406   3.103  50.123  1.00  0.00     0.151 A 
HETATM    2  N1  UNL     1      26.408   2.364  50.822  1.00  0.00    -0.362 N 
HETATM    3  C6  UNL     1      25.751   2.576  52.092  1.00  0.00     0.132 A 
HETATM    4  C7  UNL     1      24.807   3.265  51.472  1.00  0.00     0.010 A 
HETATM    5  C8  UNL     1      23.673   3.849  52.271  1.00  0.00     0.156 C 
HETATM    6  N2  UNL     1      22.992   2.872  53.047  1.00  0.00    -0.407 N 
HETATM    7  C9  UNL     1      22.246   1.897  52.312  1.00  0.00     0.125 C 
HETATM    8  C10 UNL     1      21.029   1.409  52.958  1.00  0.00     0.002 C 
HETATM    9  C11 UNL     1      20.755   0.516  53.894  1.00  0.00    -0.002 C 
HETATM   10  C12 UNL     1      21.658  -0.599  54.258  1.00  0.00     0.002 C 
HETATM   11  C13 UNL     1      22.938  -0.779  53.875  1.00  0.00     0.029 C 
HETATM   12  C14 UNL     1      23.771   0.075  52.997  1.00  0.00     0.031 C 
HETATM   13  C15 UNL     1      23.234   0.798  52.006  1.00  0.00     0.031 C 
HETATM   14  N3  UNL     1      25.124  -0.104  53.483  1.00  0.00    -0.351 N 
HETATM   15  C16 UNL     1      25.846   1.036  53.936  1.00  0.00     0.209 C 
HETATM   16  N4  UNL     1      26.118   2.141  53.395  1.00  0.00    -0.226 NA
HETATM   17  H5  UNL     1      27.219   1.940  50.281  1.00  0.00     0.162 HD
HETATM   18  H8  UNL     1      23.404   2.582  53.932  1.00  0.00     0.154 HD
HETATM   19  H15 UNL     1      25.463  -1.091  53.460  1.00  0.00     0.166 HD
ENDROOT
BRANCH   1  20
HETATM   20  C4  UNL     1      25.874   4.349  49.467  1.00  0.00    -0.031 A 
HETATM   21  C3  UNL     1      25.190   5.510  49.187  1.00  0.00     0.012 A 
HETATM   22  C2  UNL     1      25.849   6.540  48.562  1.00  0.00     0.037 A 
HETATM   23  C1  UNL     1      27.177   6.447  48.206  1.00  0.00     0.065 A 
HETATM   24  C18 UNL     1      27.895   5.278  48.479  1.00  0.00     0.037 A 
HETATM   25  C17 UNL     1      27.199   4.246  49.115  1.00  0.00     0.012 A 
BRANCH  23  26
HETATM   26  O1  UNL     1      27.780   7.529  47.576  1.00  0.00    -0.361 OA
HETATM   27  H1  UNL     1      27.726   8.456  48.016  1.00  0.00     0.217 HD
ENDBRANCH  23  26
ENDBRANCH   1  20
TORSDOF 2
ENDMDL
MODEL 5
REMARK VINA RESULT:      -8.5      3.274      6.974
REMARK  2 active torsions:
REMARK  status: ('A' for Active; 'I' for Inactive)
REMARK    1  A    between atoms: O1_1  and  C1_2 
REMARK    2  A    between atoms: C4_5  and  C5_6 
ROOT
HETATM    1  C5  UNL     1      23.869   1.464  51.756  1.00  0.00     0.151 A 
HETATM    2  N1  UNL     1      24.628   2.589  52.199  1.00  0.00    -0.362 N 
HETATM    3  C6  UNL     1      25.168   1.850  53.318  1.00  0.00     0.132 A 
HETATM    4  C7  UNL     1      24.477   0.790  52.932  1.00  0.00     0.010 A 
HETATM    5  C8  UNL     1      24.573  -0.484  53.727  1.00  0.00     0.156 C 
HETATM    6  N2  UNL     1      25.914  -0.932  53.880  1.00  0.00    -0.407 N 
HETATM    7  C9  UNL     1      26.564  -1.382  52.687  1.00  0.00     0.125 C 
HETATM    8  C10 UNL     1      27.532  -2.465  52.862  1.00  0.00     0.002 C 
HETATM    9  C11 UNL     1      28.791  -2.545  53.255  1.00  0.00    -0.002 C 
HETATM   10  C12 UNL     1      29.739  -1.408  53.220  1.00  0.00     0.002 C 
HETATM   11  C13 UNL     1      29.457  -0.110  52.993  1.00  0.00     0.029 C 
HETATM   12  C14 UNL     1      28.145   0.519  52.718  1.00  0.00     0.031 C 
HETATM   13  C15 UNL     1      27.171  -0.141  52.079  1.00  0.00     0.031 C 
HETATM   14  N3  UNL     1      28.251   1.853  53.272  1.00  0.00    -0.351 N 
HETATM   15  C16 UNL     1      27.333   2.251  54.284  1.00  0.00     0.209 C 
HETATM   16  N4  UNL     1      26.074   2.261  54.334  1.00  0.00    -0.226 NA
HETATM   17  H5  UNL     1      24.578   3.501  51.655  1.00  0.00     0.162 HD
HETATM   18  H8  UNL     1      26.492  -0.496  54.596  1.00  0.00     0.154 HD
HETATM   19  H15 UNL     1      29.023   2.428  52.867  1.00  0.00     0.166 HD
ENDROOT
BRANCH   1  20
HETATM   20  C4  UNL     1      22.396   1.634  51.796  1.00  0.00    -0.031 A 
HETATM   21  C3  UNL     1      21.642   2.711  52.204  1.00  0.00     0.012 A 
HETATM   22  C2  UNL     1      20.272   2.629  52.148  1.00  0.00     0.037 A 
HETATM   23  C1  UNL     1      19.628   1.497  51.694  1.00  0.00     0.065 A 
HETATM   24  C18 UNL     1      20.371   0.388  51.274  1.00  0.00     0.037 A 
HETATM   25  C17 UNL     1      21.762   0.501  51.342  1.00  0.00     0.012 A 
BRANCH  23  26
HETATM   26  O1  UNL     1      18.239   1.483  51.666  1.00  0.00    -0.361 OA
HETATM   27  H1  UNL     1      17.721   1.554  52.551  1.00  0.00     0.217 HD
ENDBRANCH  23  26
ENDBRANCH   1  20
TORSDOF 2
ENDMDL
MODEL 6
REMARK VINA RESULT:      -8.4      2.866      3.891
REMARK  2 active torsions:
REMARK  status: ('A' for Active; 'I' for Inactive)
REMARK    1  A    between atoms: O1_1  and  C1_2 
REMARK    2  A    between atoms: C4_5  and  C5_6 
ROOT
HETATM    1  C5  UNL     1      24.510   2.962  52.150  1.00  0.00     0.151 A 
HETATM    2  N1  UNL     1      25.921   3.076  51.959  1.00  0.00    -0.362 N 
HETATM    3  C6  UNL     1      25.773   3.126  50.522  1.00  0.00     0.132 A 
HETATM    4  C7  UNL     1      24.462   3.022  50.667  1.00  0.00     0.010 A 
HETATM    5  C8  UNL     1      23.582   3.008  49.446  1.00  0.00     0.156 C 
HETATM    6  N2  UNL     1      23.790   4.139  48.611  1.00  0.00    -0.407 N 
HETATM    7  C9  UNL     1      23.377   5.399  49.150  1.00  0.00     0.125 C 
HETATM    8  C10 UNL     1      22.878   6.372  48.178  1.00  0.00     0.002 C 
HETATM    9  C11 UNL     1      23.431   7.222  47.331  1.00  0.00    -0.002 C 
HETATM   10  C12 UNL     1      24.814   7.735  47.463  1.00  0.00     0.002 C 
HETATM   11  C13 UNL     1      25.776   7.297  48.299  1.00  0.00     0.029 C 
HETATM   12  C14 UNL     1      25.710   6.207  49.299  1.00  0.00     0.031 C 
HETATM   13  C15 UNL     1      24.568   5.901  49.929  1.00  0.00     0.031 C 
HETATM   14  N3  UNL     1      27.056   5.677  49.358  1.00  0.00    -0.351 N 
HETATM   15  C16 UNL     1      27.267   4.303  49.050  1.00  0.00     0.209 C 
HETATM   16  N4  UNL     1      26.760   3.242  49.505  1.00  0.00    -0.226 NA
HETATM   17  H5  UNL     1      26.564   3.089  52.805  1.00  0.00     0.162 HD
HETATM   18  H8  UNL     1      24.588   4.135  47.979  1.00  0.00     0.154 HD
HETATM   19  H15 UNL     1      27.783   6.375  49.629  1.00  0.00     0.166 HD
ENDROOT
BRANCH   1  20
HETATM   20  C4  UNL     1      24.051   1.691  52.764  1.00  0.00    -0.031 A 
HETATM   21  C3  UNL     1      24.783   0.637  53.262  1.00  0.00     0.012 A 
HETATM   22  C2  UNL     1      24.122  -0.448  53.786  1.00  0.00     0.037 A 
HETATM   23  C1  UNL     1      22.746  -0.512  53.828  1.00  0.00     0.065 A 
HETATM   24  C18 UNL     1      21.979   0.546  53.328  1.00  0.00     0.037 A 
HETATM   25  C17 UNL     1      22.678   1.636  52.801  1.00  0.00     0.012 A 
BRANCH  23  26
HETATM   26  O1  UNL     1      22.144  -1.640  54.372  1.00  0.00    -0.361 OA
HETATM   27  H1  UNL     1      22.159  -2.520  53.839  1.00  0.00     0.217 HD
ENDBRANCH  23  26
ENDBRANCH   1  20
TORSDOF 2
ENDMDL
MODEL 7
REMARK VINA RESULT:      -8.2      2.735      4.193
REMARK  2 active torsions:
REMARK  status: ('A' for Active; 'I' for Inactive)
REMARK    1  A    between atoms: O1_1  and  C1_2 
REMARK    2  A    between atoms: C4_5  and  C5_6 
ROOT
HETATM    1  C5  UNL     1      25.224   0.578  52.407  1.00  0.00     0.151 A 
HETATM    2  N1  UNL     1      24.339  -0.351  53.034  1.00  0.00    -0.362 N 
HETATM    3  C6  UNL     1      23.333   0.668  53.237  1.00  0.00     0.132 A 
HETATM    4  C7  UNL     1      24.131   1.550  52.659  1.00  0.00     0.010 A 
HETATM    5  C8  UNL     1      23.672   2.976  52.514  1.00  0.00     0.156 C 
HETATM    6  N2  UNL     1      22.426   3.083  51.839  1.00  0.00    -0.407 N 
HETATM    7  C9  UNL     1      22.431   2.724  50.453  1.00  0.00     0.125 C 
HETATM    8  C10 UNL     1      21.505   3.470  49.601  1.00  0.00     0.002 C 
HETATM    9  C11 UNL     1      20.213   3.403  49.334  1.00  0.00    -0.002 C 
HETATM   10  C12 UNL     1      19.391   2.188  49.539  1.00  0.00     0.002 C 
HETATM   11  C13 UNL     1      19.739   1.061  50.192  1.00  0.00     0.029 C 
HETATM   12  C14 UNL     1      21.018   0.737  50.863  1.00  0.00     0.031 C 
HETATM   13  C15 UNL     1      22.184   1.236  50.433  1.00  0.00     0.031 C 
HETATM   14  N3  UNL     1      20.651  -0.147  51.951  1.00  0.00    -0.351 N 
HETATM   15  C16 UNL     1      20.968   0.238  53.284  1.00  0.00     0.209 C 
HETATM   16  N4  UNL     1      22.048   0.575  53.838  1.00  0.00    -0.226 NA
HETATM   17  H5  UNL     1      24.639  -1.364  53.148  1.00  0.00     0.162 HD
HETATM   18  H8  UNL     1      21.572   2.911  52.367  1.00  0.00     0.154 HD
HETATM   19  H15 UNL     1      20.165  -1.021  51.650  1.00  0.00     0.166 HD
ENDROOT
BRANCH   1  20
HETATM   20  C4  UNL     1      26.497   0.831  53.127  1.00  0.00    -0.031 A 
HETATM   21  C3  UNL     1      27.110   0.099  54.120  1.00  0.00     0.012 A 
HETATM   22  C2  UNL     1      28.301   0.544  54.639  1.00  0.00     0.037 A 
HETATM   23  C1  UNL     1      28.903   1.703  54.196  1.00  0.00     0.065 A 
HETATM   24  C18 UNL     1      28.300   2.464  53.189  1.00  0.00     0.037 A 
HETATM   25  C17 UNL     1      27.089   1.988  52.679  1.00  0.00     0.012 A 
BRANCH  23  26
HETATM   26  O1  UNL     1      30.108   2.093  54.767  1.00  0.00    -0.361 OA
HETATM   27  H1  UNL     1      30.762   1.371  55.095  1.00  0.00     0.217 HD
ENDBRANCH  23  26
ENDBRANCH   1  20
TORSDOF 2
ENDMDL
MODEL 8
REMARK VINA RESULT:      -8.1      2.260      3.968
REMARK  2 active torsions:
REMARK  status: ('A' for Active; 'I' for Inactive)
REMARK    1  A    between atoms: O1_1  and  C1_2 
REMARK    2  A    between atoms: C4_5  and  C5_6 
ROOT
HETATM    1  C5  UNL     1      23.476   1.882  51.439  1.00  0.00     0.151 A 
HETATM    2  N1  UNL     1      22.122   1.429  51.457  1.00  0.00    -0.362 N 
HETATM    3  C6  UNL     1      21.676   2.630  52.127  1.00  0.00     0.132 A 
HETATM    4  C7  UNL     1      22.922   3.077  52.125  1.00  0.00     0.010 A 
HETATM    5  C8  UNL     1      23.226   4.420  52.731  1.00  0.00     0.156 C 
HETATM    6  N2  UNL     1      22.441   5.463  52.169  1.00  0.00    -0.407 N 
HETATM    7  C9  UNL     1      22.715   5.786  50.801  1.00  0.00     0.125 C 
HETATM    8  C10 UNL     1      22.542   7.191  50.434  1.00  0.00     0.002 C 
HETATM    9  C11 UNL     1      21.513   7.961  50.127  1.00  0.00    -0.002 C 
HETATM   10  C12 UNL     1      20.214   7.445  49.638  1.00  0.00     0.002 C 
HETATM   11  C13 UNL     1      19.794   6.165  49.616  1.00  0.00     0.029 C 
HETATM   12  C14 UNL     1      20.509   4.947  50.062  1.00  0.00     0.031 C 
HETATM   13  C15 UNL     1      21.843   4.853  49.997  1.00  0.00     0.031 C 
HETATM   14  N3  UNL     1      19.465   4.050  50.514  1.00  0.00    -0.351 N 
HETATM   15  C16 UNL     1      19.489   3.593  51.861  1.00  0.00     0.209 C 
HETATM   16  N4  UNL     1      20.373   3.012  52.547  1.00  0.00    -0.226 NA
HETATM   17  H5  UNL     1      21.880   0.484  51.035  1.00  0.00     0.162 HD
HETATM   18  H8  UNL     1      21.485   5.583  52.499  1.00  0.00     0.154 HD
HETATM   19  H15 UNL     1      18.758   3.811  49.784  1.00  0.00     0.166 HD
ENDROOT
BRANCH   1  20
HETATM   20  C4  UNL     1      24.431   1.065  52.229  1.00  0.00    -0.031 A 
HETATM   21  C3  UNL     1      24.196   0.188  53.264  1.00  0.00     0.012 A 
HETATM   22  C2  UNL     1      25.259  -0.458  53.847  1.00  0.00     0.037 A 
HETATM   23  C1  UNL     1      26.556  -0.256  53.425  1.00  0.00     0.065 A 
HETATM   24  C18 UNL     1      26.821   0.630  52.375  1.00  0.00     0.037 A 
HETATM   25  C17 UNL     1      25.721   1.274  51.802  1.00  0.00     0.012 A 
BRANCH  23  26
HETATM   26  O1  UNL     1      27.583  -0.943  54.061  1.00  0.00    -0.361 OA
HETATM   27  H1  UNL     1      28.206  -1.539  53.500  1.00  0.00     0.217 HD
ENDBRANCH  23  26
ENDBRANCH   1  20
TORSDOF 2
ENDMDL
MODEL 9
REMARK VINA RESULT:      -8.1      1.459      1.995
REMARK  2 active torsions:
REMARK  status: ('A' for Active; 'I' for Inactive)
REMARK    1  A    between atoms: O1_1  and  C1_2 
REMARK    2  A    between atoms: C4_5  and  C5_6 
ROOT
HETATM    1  C5  UNL     1      25.722   2.314  52.653  1.00  0.00     0.151 A 
HETATM    2  N1  UNL     1      26.017   3.233  51.600  1.00  0.00    -0.362 N 
HETATM    3  C6  UNL     1      24.922   2.741  50.795  1.00  0.00     0.132 A 
HETATM    4  C7  UNL     1      24.623   1.879  51.753  1.00  0.00     0.010 A 
HETATM    5  C8  UNL     1      23.460   0.942  51.568  1.00  0.00     0.156 C 
HETATM    6  N2  UNL     1      22.250   1.628  51.274  1.00  0.00    -0.407 N 
HETATM    7  C9  UNL     1      21.708   2.425  52.332  1.00  0.00     0.125 C 
HETATM    8  C10 UNL     1      20.249   2.508  52.382  1.00  0.00     0.002 C 
HETATM    9  C11 UNL     1      19.325   3.208  51.747  1.00  0.00    -0.002 C 
HETATM   10  C12 UNL     1      19.593   4.490  51.057  1.00  0.00     0.002 C 
HETATM   11  C13 UNL     1      20.793   5.042  50.784  1.00  0.00     0.029 C 
HETATM   12  C14 UNL     1      22.144   4.525  51.101  1.00  0.00     0.031 C 
HETATM   13  C15 UNL     1      22.371   3.773  52.186  1.00  0.00     0.031 C 
HETATM   14  N3  UNL     1      22.989   5.020  50.034  1.00  0.00    -0.351 N 
HETATM   15  C16 UNL     1      23.691   4.083  49.225  1.00  0.00     0.209 C 
HETATM   16  N4  UNL     1      24.484   3.144  49.504  1.00  0.00    -0.226 NA
HETATM   17  H5  UNL     1      26.833   3.905  51.706  1.00  0.00     0.162 HD
HETATM   18  H8  UNL     1      22.089   1.941  50.319  1.00  0.00     0.154 HD
HETATM   19  H15 UNL     1      23.008   6.060  49.947  1.00  0.00     0.166 HD
ENDROOT
BRANCH   1  20
HETATM   20  C4  UNL     1      26.773   1.303  52.929  1.00  0.00    -0.031 A 
HETATM   21  C3  UNL     1      26.755  -0.061  52.745  1.00  0.00     0.012 A 
HETATM   22  C2  UNL     1      27.866  -0.796  53.083  1.00  0.00     0.037 A 
HETATM   23  C1  UNL     1      28.999  -0.207  53.602  1.00  0.00     0.065 A 
HETATM   24  C18 UNL     1      29.042   1.177  53.799  1.00  0.00     0.037 A 
HETATM   25  C17 UNL     1      27.898   1.899  53.447  1.00  0.00     0.012 A 
BRANCH  23  26
HETATM   26  O1  UNL     1      30.086  -1.012  53.922  1.00  0.00    -0.361 OA
HETATM   27  H1  UNL     1      30.283  -1.838  53.342  1.00  0.00     0.217 HD
ENDBRANCH  23  26
ENDBRANCH   1  20
TORSDOF 2
ENDMDL
