MODEL 1
REMARK VINA RESULT:      -7.6      0.000      0.000
REMARK  7 active torsions:
REMARK  status: ('A' for Active; 'I' for Inactive)
REMARK    1  A    between atoms: C2_2  and  O1_3 
REMARK    2  A    between atoms: O1_3  and  C3_4 
REMARK       I    between atoms: C3_4  and  N1_6 
REMARK    3  A    between atoms: N1_6  and  C4_7 
REMARK    4  A    between atoms: C7_10  and  N2_11 
REMARK    5  A    between atoms: N2_11  and  C8_12 
REMARK    6  A    between atoms: C12_18  and  O3_19 
REMARK    7  A    between atoms: C14_21  and  O4_22 
ROOT
HETATM    1  C8  UNL     1      21.222   2.754  50.579  1.00  0.00     0.137 A 
HETATM    2  N3  UNL     1      20.917   3.084  49.349  1.00  0.00    -0.252 NA
HETATM    3  C9  UNL     1      19.848   2.438  48.627  1.00  0.00     0.273 A 
HETATM    4  N4  UNL     1      19.172   1.409  49.393  1.00  0.00    -0.371 N 
HETATM    5  C10 UNL     1      19.508   1.055  50.726  1.00  0.00     0.046 A 
HETATM    6  C11 UNL     1      18.814   0.069  51.376  1.00  0.00     0.069 A 
HETATM    7  C12 UNL     1      19.197  -0.223  52.675  1.00  0.00     0.103 A 
HETATM    8  C14 UNL     1      20.231   0.436  53.308  1.00  0.00     0.102 A 
HETATM    9  C16 UNL     1      20.938   1.441  52.649  1.00  0.00     0.057 A 
HETATM   10  C17 UNL     1      20.540   1.720  51.349  1.00  0.00     0.039 A 
HETATM   11  H12 UNL     1      18.404   0.948  48.858  1.00  0.00     0.161 HD
ENDROOT
BRANCH   1  12
HETATM   12  N2  UNL     1      22.300   3.491  51.139  1.00  0.00    -0.341 N 
HETATM   13  H9  UNL     1      22.204   4.535  51.057  1.00  0.00     0.167 HD
BRANCH  12  14
HETATM   14  C7  UNL     1      23.452   2.959  51.773  1.00  0.00     0.033 A 
HETATM   15  C6  UNL     1      24.123   1.904  51.166  1.00  0.00     0.032 A 
HETATM   16  C5  UNL     1      25.243   1.343  51.736  1.00  0.00     0.032 A 
HETATM   17  C4  UNL     1      25.784   1.756  52.916  1.00  0.00     0.036 A 
HETATM   18  C19 UNL     1      25.112   2.801  53.510  1.00  0.00     0.032 A 
HETATM   19  C18 UNL     1      24.004   3.369  52.962  1.00  0.00     0.032 A 
BRANCH  17  20
HETATM   20  N1  UNL     1      26.903   1.242  53.547  1.00  0.00    -0.303 N 
HETATM   21  C3  UNL     1      27.015   0.132  54.423  1.00  0.00     0.365 C 
HETATM   22  O2  UNL     1      26.018  -0.530  54.719  1.00  0.00    -0.238 OA
HETATM   23  H6  UNL     1      27.853   1.686  53.410  1.00  0.00     0.171 HD
BRANCH  21  24
HETATM   24  O1  UNL     1      28.186  -0.314  55.014  1.00  0.00    -0.304 OA
BRANCH  24  25
HETATM   25  C2  UNL     1      29.366  -0.309  54.250  1.00  0.00     0.176 C 
HETATM   26  C1  UNL     1      29.574  -1.525  53.408  1.00  0.00     0.034 C 
ENDBRANCH  24  25
ENDBRANCH  21  24
ENDBRANCH  17  20
ENDBRANCH  12  14
ENDBRANCH   1  12
BRANCH   8  27
HETATM   27  O4  UNL     1      20.533   0.068  54.605  1.00  0.00    -0.353 OA
HETATM   28  C15 UNL     1      21.641  -0.736  54.958  1.00  0.00     0.210 C 
ENDBRANCH   8  27
BRANCH   7  29
HETATM   29  O3  UNL     1      18.509  -1.220  53.356  1.00  0.00    -0.353 OA
HETATM   30  C13 UNL     1      17.260  -1.708  52.972  1.00  0.00     0.210 C 
ENDBRANCH   7  29
TORSDOF 7
ENDMDL
MODEL 2
REMARK VINA RESULT:      -7.6      5.490      7.508
REMARK  7 active torsions:
REMARK  status: ('A' for Active; 'I' for Inactive)
REMARK    1  A    between atoms: C2_2  and  O1_3 
REMARK    2  A    between atoms: O1_3  and  C3_4 
REMARK       I    between atoms: C3_4  and  N1_6 
REMARK    3  A    between atoms: N1_6  and  C4_7 
REMARK    4  A    between atoms: C7_10  and  N2_11 
REMARK    5  A    between atoms: N2_11  and  C8_12 
REMARK    6  A    between atoms: C12_18  and  O3_19 
REMARK    7  A    between atoms: C14_21  and  O4_22 
ROOT
HETATM    1  C8  UNL     1      26.395   2.425  51.215  1.00  0.00     0.137 A 
HETATM    2  N3  UNL     1      27.548   2.540  51.825  1.00  0.00    -0.252 NA
HETATM    3  C9  UNL     1      27.765   2.018  53.153  1.00  0.00     0.273 A 
HETATM    4  N4  UNL     1      26.595   1.376  53.720  1.00  0.00    -0.371 N 
HETATM    5  C10 UNL     1      25.348   1.256  53.054  1.00  0.00     0.046 A 
HETATM    6  C11 UNL     1      24.293   0.631  53.665  1.00  0.00     0.069 A 
HETATM    7  C12 UNL     1      23.106   0.551  52.955  1.00  0.00     0.103 A 
HETATM    8  C14 UNL     1      22.968   1.072  51.684  1.00  0.00     0.102 A 
HETATM    9  C16 UNL     1      24.040   1.707  51.059  1.00  0.00     0.057 A 
HETATM   10  C17 UNL     1      25.220   1.778  51.786  1.00  0.00     0.039 A 
HETATM   11  H12 UNL     1      26.764   1.007  54.681  1.00  0.00     0.161 HD
ENDROOT
BRANCH   1  12
HETATM   12  N2  UNL     1      26.356   2.994  49.914  1.00  0.00    -0.341 N 
HETATM   13  H9  UNL     1      26.314   2.292  49.132  1.00  0.00     0.167 HD
BRANCH  12  14
HETATM   14  C7  UNL     1      26.373   4.375  49.590  1.00  0.00     0.033 A 
HETATM   15  C6  UNL     1      25.410   5.205  50.150  1.00  0.00     0.032 A 
HETATM   16  C5  UNL     1      25.372   6.553  49.869  1.00  0.00     0.032 A 
HETATM   17  C4  UNL     1      26.250   7.181  49.039  1.00  0.00     0.036 A 
HETATM   18  C19 UNL     1      27.201   6.350  48.488  1.00  0.00     0.032 A 
HETATM   19  C18 UNL     1      27.254   5.017  48.755  1.00  0.00     0.032 A 
BRANCH  17  20
HETATM   20  N1  UNL     1      26.274   8.525  48.710  1.00  0.00    -0.303 N 
HETATM   21  C3  UNL     1      26.775   9.626  49.450  1.00  0.00     0.365 C 
HETATM   22  O2  UNL     1      27.281   9.451  50.560  1.00  0.00    -0.238 OA
HETATM   23  H6  UNL     1      25.879   8.863  47.789  1.00  0.00     0.171 HD
BRANCH  21  24
HETATM   24  O1  UNL     1      26.757  10.949  49.039  1.00  0.00    -0.304 OA
BRANCH  24  25
HETATM   25  C2  UNL     1      27.838  11.430  48.280  1.00  0.00     0.176 C 
HETATM   26  C1  UNL     1      28.603  12.546  48.912  1.00  0.00     0.034 C 
ENDBRANCH  24  25
ENDBRANCH  21  24
ENDBRANCH  17  20
ENDBRANCH  12  14
ENDBRANCH   1  12
BRANCH   8  27
HETATM   27  O4  UNL     1      21.741   0.939  51.063  1.00  0.00    -0.353 OA
HETATM   28  C15 UNL     1      21.540   1.102  49.673  1.00  0.00     0.210 C 
ENDBRANCH   8  27
BRANCH   7  29
HETATM   29  O3  UNL     1      22.021  -0.078  53.553  1.00  0.00    -0.353 OA
HETATM   30  C13 UNL     1      22.133  -1.137  54.454  1.00  0.00     0.210 C 
ENDBRANCH   7  29
TORSDOF 7
ENDMDL
MODEL 3
REMARK VINA RESULT:      -7.6      6.942     10.607
REMARK  7 active torsions:
REMARK  status: ('A' for Active; 'I' for Inactive)
REMARK    1  A    between atoms: C2_2  and  O1_3 
REMARK    2  A    between atoms: O1_3  and  C3_4 
REMARK       I    between atoms: C3_4  and  N1_6 
REMARK    3  A    between atoms: N1_6  and  C4_7 
REMARK    4  A    between atoms: C7_10  and  N2_11 
REMARK    5  A    between atoms: N2_11  and  C8_12 
REMARK    6  A    between atoms: C12_18  and  O3_19 
REMARK    7  A    between atoms: C14_21  and  O4_22 
ROOT
HETATM    1  C8  UNL     1      28.747   7.328  48.526  1.00  0.00     0.137 A 
HETATM    2  N3  UNL     1      28.355   8.525  48.884  1.00  0.00    -0.252 NA
HETATM    3  C9  UNL     1      29.279   9.514  49.384  1.00  0.00     0.273 A 
HETATM    4  N4  UNL     1      30.650   9.045  49.446  1.00  0.00    -0.371 N 
HETATM    5  C10 UNL     1      31.068   7.746  49.057  1.00  0.00     0.046 A 
HETATM    6  C11 UNL     1      32.387   7.387  49.148  1.00  0.00     0.069 A 
HETATM    7  C12 UNL     1      32.722   6.103  48.751  1.00  0.00     0.103 A 
HETATM    8  C14 UNL     1      31.786   5.206  48.280  1.00  0.00     0.102 A 
HETATM    9  C16 UNL     1      30.442   5.569  48.184  1.00  0.00     0.057 A 
HETATM   10  C17 UNL     1      30.126   6.858  48.587  1.00  0.00     0.039 A 
HETATM   11  H12 UNL     1      31.307   9.768  49.813  1.00  0.00     0.161 HD
ENDROOT
BRANCH   1  12
HETATM   12  N2  UNL     1      27.707   6.482  48.056  1.00  0.00    -0.341 N 
HETATM   13  H9  UNL     1      27.584   6.478  47.012  1.00  0.00     0.167 HD
BRANCH  12  14
HETATM   14  C7  UNL     1      26.849   5.674  48.846  1.00  0.00     0.033 A 
HETATM   15  C6  UNL     1      27.130   4.319  48.967  1.00  0.00     0.032 A 
HETATM   16  C5  UNL     1      26.330   3.484  49.715  1.00  0.00     0.032 A 
HETATM   17  C4  UNL     1      25.219   3.896  50.387  1.00  0.00     0.036 A 
HETATM   18  C19 UNL     1      24.948   5.241  50.260  1.00  0.00     0.032 A 
HETATM   19  C18 UNL     1      25.727   6.081  49.526  1.00  0.00     0.032 A 
BRANCH  17  20
HETATM   20  N1  UNL     1      24.370   3.119  51.155  1.00  0.00    -0.303 N 
HETATM   21  C3  UNL     1      24.618   2.456  52.384  1.00  0.00     0.365 C 
HETATM   22  O2  UNL     1      25.726   2.531  52.918  1.00  0.00    -0.238 OA
HETATM   23  H6  UNL     1      23.373   2.944  50.849  1.00  0.00     0.171 HD
BRANCH  21  24
HETATM   24  O1  UNL     1      23.701   1.693  53.088  1.00  0.00    -0.304 OA
BRANCH  24  25
HETATM   25  C2  UNL     1      22.996   0.689  52.401  1.00  0.00     0.176 C 
HETATM   26  C1  UNL     1      22.145  -0.184  53.262  1.00  0.00     0.034 C 
ENDBRANCH  24  25
ENDBRANCH  21  24
ENDBRANCH  17  20
ENDBRANCH  12  14
ENDBRANCH   1  12
BRANCH   8  27
HETATM   27  O4  UNL     1      32.225   3.949  47.909  1.00  0.00    -0.353 OA
HETATM   28  C15 UNL     1      32.310   3.508  46.568  1.00  0.00     0.210 C 
ENDBRANCH   8  27
BRANCH   7  29
HETATM   29  O3  UNL     1      34.054   5.714  48.834  1.00  0.00    -0.353 OA
HETATM   30  C13 UNL     1      35.130   6.552  48.543  1.00  0.00     0.210 C 
ENDBRANCH   7  29
TORSDOF 7
ENDMDL
MODEL 4
REMARK VINA RESULT:      -7.4      5.699      7.685
REMARK  7 active torsions:
REMARK  status: ('A' for Active; 'I' for Inactive)
REMARK    1  A    between atoms: C2_2  and  O1_3 
REMARK    2  A    between atoms: O1_3  and  C3_4 
REMARK       I    between atoms: C3_4  and  N1_6 
REMARK    3  A    between atoms: N1_6  and  C4_7 
REMARK    4  A    between atoms: C7_10  and  N2_11 
REMARK    5  A    between atoms: N2_11  and  C8_12 
REMARK    6  A    between atoms: C12_18  and  O3_19 
REMARK    7  A    between atoms: C14_21  and  O4_22 
ROOT
HETATM    1  C8  UNL     1      25.215   2.667  50.398  1.00  0.00     0.137 A 
HETATM    2  N3  UNL     1      24.041   2.988  49.915  1.00  0.00    -0.252 NA
HETATM    3  C9  UNL     1      22.818   2.459  50.467  1.00  0.00     0.273 A 
HETATM    4  N4  UNL     1      23.029   1.556  51.582  1.00  0.00    -0.371 N 
HETATM    5  C10 UNL     1      24.304   1.212  52.101  1.00  0.00     0.046 A 
HETATM    6  C11 UNL     1      24.411   0.350  53.159  1.00  0.00     0.069 A 
HETATM    7  C12 UNL     1      25.688   0.060  53.612  1.00  0.00     0.103 A 
HETATM    8  C14 UNL     1      26.819   0.603  53.038  1.00  0.00     0.102 A 
HETATM    9  C16 UNL     1      26.712   1.482  51.960  1.00  0.00     0.057 A 
HETATM   10  C17 UNL     1      25.426   1.760  51.520  1.00  0.00     0.039 A 
HETATM   11  H12 UNL     1      22.136   1.178  51.969  1.00  0.00     0.161 HD
ENDROOT
BRANCH   1  12
HETATM   12  N2  UNL     1      26.314   3.278  49.736  1.00  0.00    -0.341 N 
HETATM   13  H9  UNL     1      27.079   2.614  49.455  1.00  0.00     0.167 HD
BRANCH  12  14
HETATM   14  C7  UNL     1      26.463   4.657  49.437  1.00  0.00     0.033 A 
HETATM   15  C6  UNL     1      27.540   5.059  48.656  1.00  0.00     0.032 A 
HETATM   16  C5  UNL     1      27.741   6.384  48.339  1.00  0.00     0.032 A 
HETATM   17  C4  UNL     1      26.927   7.396  48.749  1.00  0.00     0.036 A 
HETATM   18  C19 UNL     1      25.864   6.988  49.523  1.00  0.00     0.032 A 
HETATM   19  C18 UNL     1      25.648   5.684  49.847  1.00  0.00     0.032 A 
BRANCH  17  20
HETATM   20  N1  UNL     1      27.066   8.745  48.471  1.00  0.00    -0.303 N 
HETATM   21  C3  UNL     1      27.332   9.825  49.350  1.00  0.00     0.365 C 
HETATM   22  O2  UNL     1      27.476   9.623  50.558  1.00  0.00    -0.238 OA
HETATM   23  H6  UNL     1      26.973   9.104  47.480  1.00  0.00     0.171 HD
BRANCH  21  24
HETATM   24  O1  UNL     1      27.455  11.155  48.980  1.00  0.00    -0.304 OA
BRANCH  24  25
HETATM   25  C2  UNL     1      28.629  11.562  48.324  1.00  0.00     0.176 C 
HETATM   26  C1  UNL     1      29.399  12.634  49.021  1.00  0.00     0.034 C 
ENDBRANCH  24  25
ENDBRANCH  21  24
ENDBRANCH  17  20
ENDBRANCH  12  14
ENDBRANCH   1  12
BRANCH   8  27
HETATM   27  O4  UNL     1      28.045   0.248  53.566  1.00  0.00    -0.353 OA
HETATM   28  C15 UNL     1      28.977   1.175  54.086  1.00  0.00     0.210 C 
ENDBRANCH   8  27
BRANCH   7  29
HETATM   29  O3  UNL     1      25.824  -0.813  54.686  1.00  0.00    -0.353 OA
HETATM   30  C13 UNL     1      24.776  -1.178  55.530  1.00  0.00     0.210 C 
ENDBRANCH   7  29
TORSDOF 7
ENDMDL
MODEL 5
REMARK VINA RESULT:      -7.4      2.218      8.242
REMARK  7 active torsions:
REMARK  status: ('A' for Active; 'I' for Inactive)
REMARK    1  A    between atoms: C2_2  and  O1_3 
REMARK    2  A    between atoms: O1_3  and  C3_4 
REMARK       I    between atoms: C3_4  and  N1_6 
REMARK    3  A    between atoms: N1_6  and  C4_7 
REMARK    4  A    between atoms: C7_10  and  N2_11 
REMARK    5  A    between atoms: N2_11  and  C8_12 
REMARK    6  A    between atoms: C12_18  and  O3_19 
REMARK    7  A    between atoms: C14_21  and  O4_22 
ROOT
HETATM    1  C8  UNL     1      23.114   1.826  52.059  1.00  0.00     0.137 A 
HETATM    2  N3  UNL     1      22.645   3.044  51.957  1.00  0.00    -0.252 NA
HETATM    3  C9  UNL     1      23.315   4.173  52.555  1.00  0.00     0.273 A 
HETATM    4  N4  UNL     1      24.528   3.817  53.264  1.00  0.00    -0.371 N 
HETATM    5  C10 UNL     1      25.031   2.494  53.372  1.00  0.00     0.046 A 
HETATM    6  C11 UNL     1      26.188   2.247  54.062  1.00  0.00     0.069 A 
HETATM    7  C12 UNL     1      26.619   0.932  54.126  1.00  0.00     0.103 A 
HETATM    8  C14 UNL     1      25.929  -0.103  53.529  1.00  0.00     0.102 A 
HETATM    9  C16 UNL     1      24.751   0.146  52.824  1.00  0.00     0.057 A 
HETATM   10  C17 UNL     1      24.336   1.469  52.772  1.00  0.00     0.039 A 
HETATM   11  H12 UNL     1      25.001   4.642  53.695  1.00  0.00     0.161 HD
ENDROOT
BRANCH   1  12
HETATM   12  N2  UNL     1      22.330   0.834  51.411  1.00  0.00    -0.341 N 
HETATM   13  H9  UNL     1      22.800   0.375  50.589  1.00  0.00     0.167 HD
BRANCH  12  14
HETATM   14  C7  UNL     1      21.016   0.429  51.760  1.00  0.00     0.033 A 
HETATM   15  C6  UNL     1      20.823  -0.260  52.951  1.00  0.00     0.032 A 
HETATM   16  C5  UNL     1      19.572  -0.683  53.340  1.00  0.00     0.032 A 
HETATM   17  C4  UNL     1      18.438  -0.475  52.614  1.00  0.00     0.036 A 
HETATM   18  C19 UNL     1      18.640   0.208  51.435  1.00  0.00     0.032 A 
HETATM   19  C18 UNL     1      19.869   0.635  51.034  1.00  0.00     0.032 A 
BRANCH  17  20
HETATM   20  N1  UNL     1      17.153  -0.870  52.940  1.00  0.00    -0.303 N 
HETATM   21  C3  UNL     1      16.067  -1.198  52.089  1.00  0.00     0.365 C 
HETATM   22  O2  UNL     1      16.200  -1.150  50.864  1.00  0.00    -0.238 OA
HETATM   23  H6  UNL     1      16.857  -0.966  53.951  1.00  0.00     0.171 HD
BRANCH  21  24
HETATM   24  O1  UNL     1      14.804  -1.586  52.505  1.00  0.00    -0.304 OA
BRANCH  24  25
HETATM   25  C2  UNL     1      14.350  -2.870  52.157  1.00  0.00     0.176 C 
HETATM   26  C1  UNL     1      15.176  -3.994  52.689  1.00  0.00     0.034 C 
ENDBRANCH  24  25
ENDBRANCH  21  24
ENDBRANCH  17  20
ENDBRANCH  12  14
ENDBRANCH   1  12
BRANCH   8  27
HETATM   27  O4  UNL     1      26.444  -1.378  53.652  1.00  0.00    -0.353 OA
HETATM   28  C15 UNL     1      27.007  -2.108  52.580  1.00  0.00     0.210 C 
ENDBRANCH   8  27
BRANCH   7  29
HETATM   29  O3  UNL     1      27.791   0.655  54.821  1.00  0.00    -0.353 OA
HETATM   30  C13 UNL     1      29.068   0.948  54.343  1.00  0.00     0.210 C 
ENDBRANCH   7  29
TORSDOF 7
ENDMDL
MODEL 6
REMARK VINA RESULT:      -7.2      2.623      8.630
REMARK  7 active torsions:
REMARK  status: ('A' for Active; 'I' for Inactive)
REMARK    1  A    between atoms: C2_2  and  O1_3 
REMARK    2  A    between atoms: O1_3  and  C3_4 
REMARK       I    between atoms: C3_4  and  N1_6 
REMARK    3  A    between atoms: N1_6  and  C4_7 
REMARK    4  A    between atoms: C7_10  and  N2_11 
REMARK    5  A    between atoms: N2_11  and  C8_12 
REMARK    6  A    between atoms: C12_18  and  O3_19 
REMARK    7  A    between atoms: C14_21  and  O4_22 
ROOT
HETATM    1  C8  UNL     1      23.142   1.685  52.001  1.00  0.00     0.137 A 
HETATM    2  N3  UNL     1      22.655   2.894  51.870  1.00  0.00    -0.252 NA
HETATM    3  C9  UNL     1      23.300   4.045  52.453  1.00  0.00     0.273 A 
HETATM    4  N4  UNL     1      24.512   3.721  53.181  1.00  0.00    -0.371 N 
HETATM    5  C10 UNL     1      25.035   2.410  53.319  1.00  0.00     0.046 A 
HETATM    6  C11 UNL     1      26.188   2.195  54.026  1.00  0.00     0.069 A 
HETATM    7  C12 UNL     1      26.639   0.888  54.119  1.00  0.00     0.103 A 
HETATM    8  C14 UNL     1      25.972  -0.169  53.535  1.00  0.00     0.102 A 
HETATM    9  C16 UNL     1      24.797   0.047  52.814  1.00  0.00     0.057 A 
HETATM   10  C17 UNL     1      24.361   1.362  52.732  1.00  0.00     0.039 A 
HETATM   11  H12 UNL     1      24.966   4.562  53.600  1.00  0.00     0.161 HD
ENDROOT
BRANCH   1  12
HETATM   12  N2  UNL     1      22.380   0.669  51.363  1.00  0.00    -0.341 N 
HETATM   13  H9  UNL     1      22.953  -0.056  50.862  1.00  0.00     0.167 HD
BRANCH  12  14
HETATM   14  C7  UNL     1      20.966   0.555  51.343  1.00  0.00     0.033 A 
HETATM   15  C6  UNL     1      20.321   0.035  52.458  1.00  0.00     0.032 A 
HETATM   16  C5  UNL     1      18.951  -0.105  52.494  1.00  0.00     0.032 A 
HETATM   17  C4  UNL     1      18.124   0.242  51.469  1.00  0.00     0.036 A 
HETATM   18  C19 UNL     1      18.773   0.756  50.369  1.00  0.00     0.032 A 
HETATM   19  C18 UNL     1      20.125   0.903  50.315  1.00  0.00     0.032 A 
BRANCH  17  20
HETATM   20  N1  UNL     1      16.746   0.130  51.434  1.00  0.00    -0.303 N 
HETATM   21  C3  UNL     1      15.754   1.121  51.647  1.00  0.00     0.365 C 
HETATM   22  O2  UNL     1      16.080   2.281  51.910  1.00  0.00    -0.238 OA
HETATM   23  H6  UNL     1      16.284  -0.798  51.223  1.00  0.00     0.171 HD
BRANCH  21  24
HETATM   24  O1  UNL     1      14.385   0.918  51.592  1.00  0.00    -0.304 OA
BRANCH  24  25
HETATM   25  C2  UNL     1      13.671   1.463  50.510  1.00  0.00     0.176 C 
HETATM   26  C1  UNL     1      12.406   2.164  50.883  1.00  0.00     0.034 C 
ENDBRANCH  24  25
ENDBRANCH  21  24
ENDBRANCH  17  20
ENDBRANCH  12  14
ENDBRANCH   1  12
BRANCH   8  27
HETATM   27  O4  UNL     1      26.506  -1.434  53.688  1.00  0.00    -0.353 OA
HETATM   28  C15 UNL     1      27.193  -2.128  52.666  1.00  0.00     0.210 C 
ENDBRANCH   8  27
BRANCH   7  29
HETATM   29  O3  UNL     1      27.808   0.644  54.831  1.00  0.00    -0.353 OA
HETATM   30  C13 UNL     1      29.072   1.066  54.421  1.00  0.00     0.210 C 
ENDBRANCH   7  29
TORSDOF 7
ENDMDL
MODEL 7
REMARK VINA RESULT:      -7.0      4.727      6.943
REMARK  7 active torsions:
REMARK  status: ('A' for Active; 'I' for Inactive)
REMARK    1  A    between atoms: C2_2  and  O1_3 
REMARK    2  A    between atoms: O1_3  and  C3_4 
REMARK       I    between atoms: C3_4  and  N1_6 
REMARK    3  A    between atoms: N1_6  and  C4_7 
REMARK    4  A    between atoms: C7_10  and  N2_11 
REMARK    5  A    between atoms: N2_11  and  C8_12 
REMARK    6  A    between atoms: C12_18  and  O3_19 
REMARK    7  A    between atoms: C14_21  and  O4_22 
ROOT
HETATM    1  C8  UNL     1      22.925   3.029  52.279  1.00  0.00     0.137 A 
HETATM    2  N3  UNL     1      21.764   2.651  51.806  1.00  0.00    -0.252 NA
HETATM    3  C9  UNL     1      21.377   1.262  51.751  1.00  0.00     0.273 A 
HETATM    4  N4  UNL     1      22.391   0.359  52.260  1.00  0.00    -0.371 N 
HETATM    5  C10 UNL     1      23.648   0.774  52.770  1.00  0.00     0.046 A 
HETATM    6  C11 UNL     1      24.548  -0.149  53.232  1.00  0.00     0.069 A 
HETATM    7  C12 UNL     1      25.754   0.329  53.716  1.00  0.00     0.103 A 
HETATM    8  C14 UNL     1      26.061   1.674  53.741  1.00  0.00     0.102 A 
HETATM    9  C16 UNL     1      25.146   2.617  53.272  1.00  0.00     0.057 A 
HETATM   10  C17 UNL     1      23.944   2.119  52.792  1.00  0.00     0.039 A 
HETATM   11  H12 UNL     1      22.100  -0.642  52.210  1.00  0.00     0.161 HD
ENDROOT
BRANCH   1  12
HETATM   12  N2  UNL     1      23.143   4.433  52.260  1.00  0.00    -0.341 N 
HETATM   13  H9  UNL     1      22.716   4.952  53.070  1.00  0.00     0.167 HD
BRANCH  12  14
HETATM   14  C7  UNL     1      23.856   5.168  51.278  1.00  0.00     0.033 A 
HETATM   15  C6  UNL     1      24.209   4.534  50.093  1.00  0.00     0.032 A 
HETATM   16  C5  UNL     1      24.906   5.194  49.106  1.00  0.00     0.032 A 
HETATM   17  C4  UNL     1      25.305   6.493  49.196  1.00  0.00     0.036 A 
HETATM   18  C19 UNL     1      24.951   7.113  50.374  1.00  0.00     0.032 A 
HETATM   19  C18 UNL     1      24.262   6.477  51.360  1.00  0.00     0.032 A 
BRANCH  17  20
HETATM   20  N1  UNL     1      26.005   7.219  48.250  1.00  0.00    -0.303 N 
HETATM   21  C3  UNL     1      27.382   7.173  47.914  1.00  0.00     0.365 C 
HETATM   22  O2  UNL     1      28.141   6.399  48.503  1.00  0.00    -0.238 OA
HETATM   23  H6  UNL     1      25.514   7.936  47.646  1.00  0.00     0.171 HD
BRANCH  21  24
HETATM   24  O1  UNL     1      28.003   7.943  46.944  1.00  0.00    -0.304 OA
BRANCH  24  25
HETATM   25  C2  UNL     1      27.911   9.343  47.041  1.00  0.00     0.176 C 
HETATM   26  C1  UNL     1      28.465   9.923  48.300  1.00  0.00     0.034 C 
ENDBRANCH  24  25
ENDBRANCH  21  24
ENDBRANCH  17  20
ENDBRANCH  12  14
ENDBRANCH   1  12
BRANCH   8  27
HETATM   27  O4  UNL     1      27.292   2.047  54.244  1.00  0.00    -0.353 OA
HETATM   28  C15 UNL     1      28.406   2.375  53.437  1.00  0.00     0.210 C 
ENDBRANCH   8  27
BRANCH   7  29
HETATM   29  O3  UNL     1      26.685  -0.588  54.190  1.00  0.00    -0.353 OA
HETATM   30  C13 UNL     1      27.589  -1.272  53.378  1.00  0.00     0.210 C 
ENDBRANCH   7  29
TORSDOF 7
ENDMDL
MODEL 8
REMARK VINA RESULT:      -7.0      2.348      7.970
REMARK  7 active torsions:
REMARK  status: ('A' for Active; 'I' for Inactive)
REMARK    1  A    between atoms: C2_2  and  O1_3 
REMARK    2  A    between atoms: O1_3  and  C3_4 
REMARK       I    between atoms: C3_4  and  N1_6 
REMARK    3  A    between atoms: N1_6  and  C4_7 
REMARK    4  A    between atoms: C7_10  and  N2_11 
REMARK    5  A    between atoms: N2_11  and  C8_12 
REMARK    6  A    between atoms: C12_18  and  O3_19 
REMARK    7  A    between atoms: C14_21  and  O4_22 
ROOT
HETATM    1  C8  UNL     1      24.200   2.684  51.915  1.00  0.00     0.137 A 
HETATM    2  N3  UNL     1      24.476   3.523  50.948  1.00  0.00    -0.252 NA
HETATM    3  C9  UNL     1      25.767   3.549  50.305  1.00  0.00     0.273 A 
HETATM    4  N4  UNL     1      26.697   2.573  50.836  1.00  0.00    -0.371 N 
HETATM    5  C10 UNL     1      26.393   1.666  51.884  1.00  0.00     0.046 A 
HETATM    6  C11 UNL     1      27.334   0.775  52.325  1.00  0.00     0.069 A 
HETATM    7  C12 UNL     1      26.966  -0.079  53.352  1.00  0.00     0.103 A 
HETATM    8  C14 UNL     1      25.710  -0.052  53.923  1.00  0.00     0.102 A 
HETATM    9  C16 UNL     1      24.749   0.855  53.476  1.00  0.00     0.057 A 
HETATM   10  C17 UNL     1      25.136   1.702  52.447  1.00  0.00     0.039 A 
HETATM   11  H12 UNL     1      27.628   2.605  50.365  1.00  0.00     0.161 HD
ENDROOT
BRANCH   1  12
HETATM   12  N2  UNL     1      22.882   2.794  52.434  1.00  0.00    -0.341 N 
HETATM   13  H9  UNL     1      22.766   3.528  53.179  1.00  0.00     0.167 HD
BRANCH  12  14
HETATM   14  C7  UNL     1      21.752   2.026  52.052  1.00  0.00     0.033 A 
HETATM   15  C6  UNL     1      20.514   2.339  52.599  1.00  0.00     0.032 A 
HETATM   16  C5  UNL     1      19.383   1.625  52.271  1.00  0.00     0.032 A 
HETATM   17  C4  UNL     1      19.372   0.574  51.405  1.00  0.00     0.036 A 
HETATM   18  C19 UNL     1      20.604   0.270  50.869  1.00  0.00     0.032 A 
HETATM   19  C18 UNL     1      21.732   0.965  51.181  1.00  0.00     0.032 A 
BRANCH  17  20
HETATM   20  N1  UNL     1      18.280  -0.188  51.030  1.00  0.00    -0.303 N 
HETATM   21  C3  UNL     1      17.218   0.132  50.146  1.00  0.00     0.365 C 
HETATM   22  O2  UNL     1      17.183   1.230  49.586  1.00  0.00    -0.238 OA
HETATM   23  H6  UNL     1      18.144  -1.164  51.414  1.00  0.00     0.171 HD
BRANCH  21  24
HETATM   24  O1  UNL     1      16.157  -0.699  49.825  1.00  0.00    -0.304 OA
BRANCH  24  25
HETATM   25  C2  UNL     1      15.728  -0.751  48.488  1.00  0.00     0.176 C 
HETATM   26  C1  UNL     1      15.587  -2.128  47.926  1.00  0.00     0.034 C 
ENDBRANCH  24  25
ENDBRANCH  21  24
ENDBRANCH  17  20
ENDBRANCH  12  14
ENDBRANCH   1  12
BRANCH   8  27
HETATM   27  O4  UNL     1      25.445  -0.947  54.941  1.00  0.00    -0.353 OA
HETATM   28  C15 UNL     1      24.141  -1.283  55.375  1.00  0.00     0.210 C 
ENDBRANCH   8  27
BRANCH   7  29
HETATM   29  O3  UNL     1      27.904  -0.994  53.817  1.00  0.00    -0.353 OA
HETATM   30  C13 UNL     1      29.259  -0.707  53.976  1.00  0.00     0.210 C 
ENDBRANCH   7  29
TORSDOF 7
ENDMDL
MODEL 9
REMARK VINA RESULT:      -6.9      3.493      8.867
REMARK  7 active torsions:
REMARK  status: ('A' for Active; 'I' for Inactive)
REMARK    1  A    between atoms: C2_2  and  O1_3 
REMARK    2  A    between atoms: O1_3  and  C3_4 
REMARK       I    between atoms: C3_4  and  N1_6 
REMARK    3  A    between atoms: N1_6  and  C4_7 
REMARK    4  A    between atoms: C7_10  and  N2_11 
REMARK    5  A    between atoms: N2_11  and  C8_12 
REMARK    6  A    between atoms: C12_18  and  O3_19 
REMARK    7  A    between atoms: C14_21  and  O4_22 
ROOT
HETATM    1  C8  UNL     1      21.934   0.197  52.758  1.00  0.00     0.137 A 
HETATM    2  N3  UNL     1      20.983  -0.312  53.500  1.00  0.00    -0.252 NA
HETATM    3  C9  UNL     1      21.268  -1.093  54.678  1.00  0.00     0.273 A 
HETATM    4  N4  UNL     1      22.686  -1.252  54.938  1.00  0.00    -0.371 N 
HETATM    5  C10 UNL     1      23.713  -0.699  54.129  1.00  0.00     0.046 A 
HETATM    6  C11 UNL     1      25.030  -0.898  54.449  1.00  0.00     0.069 A 
HETATM    7  C12 UNL     1      25.977  -0.329  53.613  1.00  0.00     0.103 A 
HETATM    8  C14 UNL     1      25.634   0.410  52.500  1.00  0.00     0.102 A 
HETATM    9  C16 UNL     1      24.294   0.616  52.173  1.00  0.00     0.057 A 
HETATM   10  C17 UNL     1      23.360   0.038  53.021  1.00  0.00     0.039 A 
HETATM   11  H12 UNL     1      22.879  -1.822  55.790  1.00  0.00     0.161 HD
ENDROOT
BRANCH   1  12
HETATM   12  N2  UNL     1      21.476   0.939  51.637  1.00  0.00    -0.341 N 
HETATM   13  H9  UNL     1      22.196   1.083  50.884  1.00  0.00     0.167 HD
BRANCH  12  14
HETATM   14  C7  UNL     1      20.180   1.486  51.453  1.00  0.00     0.033 A 
HETATM   15  C6  UNL     1      19.217   0.723  50.803  1.00  0.00     0.032 A 
HETATM   16  C5  UNL     1      17.944   1.202  50.591  1.00  0.00     0.032 A 
HETATM   17  C4  UNL     1      17.520   2.435  50.986  1.00  0.00     0.036 A 
HETATM   18  C19 UNL     1      18.481   3.184  51.629  1.00  0.00     0.032 A 
HETATM   19  C18 UNL     1      19.743   2.727  51.848  1.00  0.00     0.032 A 
BRANCH  17  20
HETATM   20  N1  UNL     1      16.262   2.982  50.808  1.00  0.00    -0.303 N 
HETATM   21  C3  UNL     1      15.128   2.934  51.658  1.00  0.00     0.365 C 
HETATM   22  O2  UNL     1      15.183   2.336  52.735  1.00  0.00    -0.238 OA
HETATM   23  H6  UNL     1      16.031   3.533  49.935  1.00  0.00     0.171 HD
BRANCH  21  24
HETATM   24  O1  UNL     1      13.898   3.516  51.397  1.00  0.00    -0.304 OA
BRANCH  24  25
HETATM   25  C2  UNL     1      12.865   3.347  52.335  1.00  0.00     0.176 C 
HETATM   26  C1  UNL     1      12.485   4.584  53.080  1.00  0.00     0.034 C 
ENDBRANCH  24  25
ENDBRANCH  21  24
ENDBRANCH  17  20
ENDBRANCH  12  14
ENDBRANCH   1  12
BRANCH   8  27
HETATM   27  O4  UNL     1      26.656   0.935  51.733  1.00  0.00    -0.353 OA
HETATM   28  C15 UNL     1      26.798   2.312  51.444  1.00  0.00     0.210 C 
ENDBRANCH   8  27
BRANCH   7  29
HETATM   29  O3  UNL     1      27.321  -0.517  53.917  1.00  0.00    -0.353 OA
HETATM   30  C13 UNL     1      28.002   0.188  54.909  1.00  0.00     0.210 C 
ENDBRANCH   7  29
TORSDOF 7
ENDMDL
