MODEL 1
REMARK VINA RESULT:      -7.2      0.000      0.000
REMARK  8 active torsions:
REMARK  status: ('A' for Active; 'I' for Inactive)
REMARK    1  A    between atoms: C2_2  and  C3_3 
REMARK    2  A    between atoms: C3_3  and  C4_4 
REMARK    3  A    between atoms: C4_4  and  N1_5 
REMARK    4  A    between atoms: N1_5  and  C5_6 
REMARK    5  A    between atoms: N1_5  and  C11_14 
REMARK    6  A    between atoms: C10_12  and  O1_13 
REMARK    7  A    between atoms: C11_14  and  N2_16 
REMARK    8  A    between atoms: C17_21  and  S1_22 
ROOT
HETATM    1  N1  UNL     1      25.775   2.475  51.264  1.00  0.00    -0.349 N 
ENDROOT
BRANCH   1   2
HETATM    2  C4  UNL     1      26.413   3.062  50.111  1.00  0.00     0.125 C 
BRANCH   2   3
HETATM    3  C3  UNL     1      25.639   4.091  49.372  1.00  0.00     0.019 C 
BRANCH   3   4
HETATM    4  C2  UNL     1      26.456   5.368  49.149  1.00  0.00    -0.003 C 
HETATM    5  C1  UNL     1      27.788   4.932  48.579  1.00  0.00     0.005 C 
ENDBRANCH   3   4
ENDBRANCH   2   3
ENDBRANCH   1   2
BRANCH   1   6
HETATM    6  C5  UNL     1      26.495   1.445  51.970  1.00  0.00     0.067 A 
HETATM    7  C6  UNL     1      26.078   0.128  51.933  1.00  0.00     0.032 A 
HETATM    8  C7  UNL     1      26.707  -0.909  52.586  1.00  0.00     0.004 A 
HETATM    9  C8  UNL     1      27.834  -0.652  53.336  1.00  0.00     0.027 A 
HETATM   10  C9  UNL     1      28.299   0.641  53.412  1.00  0.00     0.069 A 
HETATM   11 CL1  UNL     1      29.728   0.981  54.362  1.00  0.00    -0.081 Cl
HETATM   12  C10 UNL     1      27.622   1.625  52.736  1.00  0.00     0.114 A 
BRANCH  12  13
HETATM   13  O1  UNL     1      28.158   2.894  52.864  1.00  0.00    -0.357 OA
HETATM   14  H13 UNL     1      28.883   3.184  53.478  1.00  0.00     0.218 HD
ENDBRANCH  12  13
ENDBRANCH   1   6
BRANCH   1  15
HETATM   15  C11 UNL     1      24.446   2.866  51.758  1.00  0.00     0.322 C 
HETATM   16  C12 UNL     1      24.543   3.146  53.245  1.00  0.00     0.066 C 
BRANCH  15  17
HETATM   17  N2  UNL     1      23.448   1.878  51.470  1.00  0.00     0.128 N 
HETATM   18  C13 UNL     1      22.783   2.052  50.224  1.00  0.00     0.304 C 
HETATM   19  C14 UNL     1      21.685   1.065  50.014  1.00  0.00    -0.001 C 
HETATM   20  C15 UNL     1      21.329   0.216  51.001  1.00  0.00    -0.026 C 
HETATM   21  C16 UNL     1      22.010   0.217  52.351  1.00  0.00     0.073 C 
HETATM   22  C17 UNL     1      22.492   1.669  52.509  1.00  0.00     0.287 C 
BRANCH  22  23
HETATM   23  S1  UNL     1      20.992   2.685  52.220  1.00  0.00    -0.146 SA
HETATM   24  H25 UNL     1      20.787   3.598  53.265  1.00  0.00     0.103 HD
ENDBRANCH  22  23
ENDBRANCH  15  17
ENDBRANCH   1  15
TORSDOF 8
ENDMDL
MODEL 2
REMARK VINA RESULT:      -6.6      2.080      4.176
REMARK  8 active torsions:
REMARK  status: ('A' for Active; 'I' for Inactive)
REMARK    1  A    between atoms: C2_2  and  C3_3 
REMARK    2  A    between atoms: C3_3  and  C4_4 
REMARK    3  A    between atoms: C4_4  and  N1_5 
REMARK    4  A    between atoms: N1_5  and  C5_6 
REMARK    5  A    between atoms: N1_5  and  C11_14 
REMARK    6  A    between atoms: C10_12  and  O1_13 
REMARK    7  A    between atoms: C11_14  and  N2_16 
REMARK    8  A    between atoms: C17_21  and  S1_22 
ROOT
HETATM    1  N1  UNL     1      24.859   0.619  52.920  1.00  0.00    -0.349 N 
ENDROOT
BRANCH   1   2
HETATM    2  C4  UNL     1      23.903   0.094  53.865  1.00  0.00     0.125 C 
BRANCH   2   3
HETATM    3  C3  UNL     1      22.937  -0.909  53.349  1.00  0.00     0.019 C 
BRANCH   3   4
HETATM    4  C2  UNL     1      21.798  -1.166  54.341  1.00  0.00    -0.003 C 
HETATM    5  C1  UNL     1      21.054   0.143  54.489  1.00  0.00     0.005 C 
ENDBRANCH   3   4
ENDBRANCH   2   3
ENDBRANCH   1   2
BRANCH   1   6
HETATM    6  C5  UNL     1      26.254   0.345  53.164  1.00  0.00     0.067 A 
HETATM    7  C6  UNL     1      26.811  -0.875  52.829  1.00  0.00     0.032 A 
HETATM    8  C7  UNL     1      28.130  -1.214  53.038  1.00  0.00     0.004 A 
HETATM    9  C8  UNL     1      28.981  -0.297  53.616  1.00  0.00     0.027 A 
HETATM   10  C9  UNL     1      28.484   0.937  53.971  1.00  0.00     0.069 A 
HETATM   11 CL1  UNL     1      29.555   2.108  54.707  1.00  0.00    -0.081 Cl
HETATM   12  C10 UNL     1      27.159   1.206  53.735  1.00  0.00     0.114 A 
BRANCH  12  13
HETATM   13  O1  UNL     1      26.744   2.468  54.121  1.00  0.00    -0.357 OA
HETATM   14  H13 UNL     1      26.420   2.749  55.017  1.00  0.00     0.218 HD
ENDBRANCH  12  13
ENDBRANCH   1   6
BRANCH   1  15
HETATM   15  C11 UNL     1      24.496   1.406  51.732  1.00  0.00     0.322 C 
HETATM   16  C12 UNL     1      25.767   1.883  51.057  1.00  0.00     0.066 C 
BRANCH  15  17
HETATM   17  N2  UNL     1      23.625   2.498  52.051  1.00  0.00     0.128 N 
HETATM   18  C13 UNL     1      22.277   2.326  51.630  1.00  0.00     0.304 C 
HETATM   19  C14 UNL     1      21.433   3.527  51.890  1.00  0.00    -0.001 C 
HETATM   20  C15 UNL     1      21.989   4.667  52.353  1.00  0.00    -0.026 C 
HETATM   21  C16 UNL     1      23.470   4.788  52.628  1.00  0.00     0.073 C 
HETATM   22  C17 UNL     1      24.101   3.783  51.651  1.00  0.00     0.287 C 
BRANCH  22  23
HETATM   23  S1  UNL     1      23.416   4.244  50.012  1.00  0.00    -0.146 SA
HETATM   24  H25 UNL     1      22.585   5.369  50.107  1.00  0.00     0.103 HD
ENDBRANCH  22  23
ENDBRANCH  15  17
ENDBRANCH   1  15
TORSDOF 8
ENDMDL
MODEL 3
REMARK VINA RESULT:      -6.5      2.035      3.751
REMARK  8 active torsions:
REMARK  status: ('A' for Active; 'I' for Inactive)
REMARK    1  A    between atoms: C2_2  and  C3_3 
REMARK    2  A    between atoms: C3_3  and  C4_4 
REMARK    3  A    between atoms: C4_4  and  N1_5 
REMARK    4  A    between atoms: N1_5  and  C5_6 
REMARK    5  A    between atoms: N1_5  and  C11_14 
REMARK    6  A    between atoms: C10_12  and  O1_13 
REMARK    7  A    between atoms: C11_14  and  N2_16 
REMARK    8  A    between atoms: C17_21  and  S1_22 
ROOT
HETATM    1  N1  UNL     1      24.359   1.139  52.883  1.00  0.00    -0.349 N 
ENDROOT
BRANCH   1   2
HETATM    2  C4  UNL     1      23.343   0.539  53.714  1.00  0.00     0.125 C 
BRANCH   2   3
HETATM    3  C3  UNL     1      22.902  -0.829  53.347  1.00  0.00     0.019 C 
BRANCH   3   4
HETATM    4  C2  UNL     1      21.498  -1.138  53.877  1.00  0.00    -0.003 C 
HETATM    5  C1  UNL     1      20.971   0.150  54.469  1.00  0.00     0.005 C 
ENDBRANCH   3   4
ENDBRANCH   2   3
ENDBRANCH   1   2
BRANCH   1   6
HETATM    6  C5  UNL     1      25.708   0.652  53.025  1.00  0.00     0.067 A 
HETATM    7  C6  UNL     1      26.061  -0.613  52.593  1.00  0.00     0.032 A 
HETATM    8  C7  UNL     1      27.324  -1.151  52.701  1.00  0.00     0.004 A 
HETATM    9  C8  UNL     1      28.331  -0.405  53.274  1.00  0.00     0.027 A 
HETATM   10  C9  UNL     1      28.042   0.863  53.724  1.00  0.00     0.069 A 
HETATM   11 CL1  UNL     1      29.311   1.820  54.454  1.00  0.00    -0.081 Cl
HETATM   12  C10 UNL     1      26.761   1.335  53.585  1.00  0.00     0.114 A 
BRANCH  12  13
HETATM   13  O1  UNL     1      26.559   2.618  54.062  1.00  0.00    -0.357 OA
HETATM   14  H13 UNL     1      25.734   2.985  54.478  1.00  0.00     0.218 HD
ENDBRANCH  12  13
ENDBRANCH   1   6
BRANCH   1  15
HETATM   15  C11 UNL     1      24.098   2.206  51.904  1.00  0.00     0.322 C 
HETATM   16  C12 UNL     1      23.534   3.408  52.636  1.00  0.00     0.066 C 
BRANCH  15  17
HETATM   17  N2  UNL     1      23.229   1.773  50.849  1.00  0.00     0.128 N 
HETATM   18  C13 UNL     1      23.430   2.434  49.606  1.00  0.00     0.304 C 
HETATM   19  C14 UNL     1      22.438   2.027  48.570  1.00  0.00    -0.001 C 
HETATM   20  C15 UNL     1      21.407   1.216  48.890  1.00  0.00    -0.026 C 
HETATM   21  C16 UNL     1      21.203   0.685  50.290  1.00  0.00     0.073 C 
HETATM   22  C17 UNL     1      21.841   1.765  51.180  1.00  0.00     0.287 C 
BRANCH  22  23
HETATM   23  S1  UNL     1      21.042   3.329  50.650  1.00  0.00    -0.146 SA
HETATM   24  H25 UNL     1      19.960   3.655  51.481  1.00  0.00     0.103 HD
ENDBRANCH  22  23
ENDBRANCH  15  17
ENDBRANCH   1  15
TORSDOF 8
ENDMDL
MODEL 4
REMARK VINA RESULT:      -6.5      1.558      2.071
REMARK  8 active torsions:
REMARK  status: ('A' for Active; 'I' for Inactive)
REMARK    1  A    between atoms: C2_2  and  C3_3 
REMARK    2  A    between atoms: C3_3  and  C4_4 
REMARK    3  A    between atoms: C4_4  and  N1_5 
REMARK    4  A    between atoms: N1_5  and  C5_6 
REMARK    5  A    between atoms: N1_5  and  C11_14 
REMARK    6  A    between atoms: C10_12  and  O1_13 
REMARK    7  A    between atoms: C11_14  and  N2_16 
REMARK    8  A    between atoms: C17_21  and  S1_22 
ROOT
HETATM    1  N1  UNL     1      25.748   1.091  52.302  1.00  0.00    -0.349 N 
ENDROOT
BRANCH   1   2
HETATM    2  C4  UNL     1      25.761   1.555  50.935  1.00  0.00     0.125 C 
BRANCH   2   3
HETATM    3  C3  UNL     1      26.359   2.891  50.690  1.00  0.00     0.019 C 
BRANCH   3   4
HETATM    4  C2  UNL     1      25.289   3.954  50.417  1.00  0.00    -0.003 C 
HETATM    5  C1  UNL     1      24.324   3.345  49.424  1.00  0.00     0.005 C 
ENDBRANCH   3   4
ENDBRANCH   2   3
ENDBRANCH   1   2
BRANCH   1   6
HETATM    6  C5  UNL     1      27.007   0.693  52.881  1.00  0.00     0.067 A 
HETATM    7  C6  UNL     1      27.501  -0.585  52.707  1.00  0.00     0.032 A 
HETATM    8  C7  UNL     1      28.689  -1.042  53.235  1.00  0.00     0.004 A 
HETATM    9  C8  UNL     1      29.464  -0.191  53.992  1.00  0.00     0.027 A 
HETATM   10  C9  UNL     1      29.025   1.097  54.201  1.00  0.00     0.069 A 
HETATM   11 CL1  UNL     1      30.000   2.186  55.161  1.00  0.00    -0.081 Cl
HETATM   12  C10 UNL     1      27.831   1.483  53.646  1.00  0.00     0.114 A 
BRANCH  12  13
HETATM   13  O1  UNL     1      27.466   2.793  53.904  1.00  0.00    -0.357 OA
HETATM   14  H13 UNL     1      27.631   3.313  54.734  1.00  0.00     0.218 HD
ENDBRANCH  12  13
ENDBRANCH   1   6
BRANCH   1  15
HETATM   15  C11 UNL     1      24.536   1.006  53.131  1.00  0.00     0.322 C 
HETATM   16  C12 UNL     1      24.472  -0.374  53.757  1.00  0.00     0.066 C 
BRANCH  15  17
HETATM   17  N2  UNL     1      23.348   1.304  52.386  1.00  0.00     0.128 N 
HETATM   18  C13 UNL     1      22.747   2.553  52.702  1.00  0.00     0.304 C 
HETATM   19  C14 UNL     1      21.461   2.774  51.980  1.00  0.00    -0.001 C 
HETATM   20  C15 UNL     1      20.920   1.792  51.229  1.00  0.00    -0.026 C 
HETATM   21  C16 UNL     1      21.575   0.437  51.079  1.00  0.00     0.073 C 
HETATM   22  C17 UNL     1      22.362   0.272  52.390  1.00  0.00     0.287 C 
BRANCH  22  23
HETATM   23  S1  UNL     1      21.123   0.569  53.710  1.00  0.00    -0.146 SA
HETATM   24  H25 UNL     1      21.228   1.870  54.224  1.00  0.00     0.103 HD
ENDBRANCH  22  23
ENDBRANCH  15  17
ENDBRANCH   1  15
TORSDOF 8
ENDMDL
MODEL 5
REMARK VINA RESULT:      -6.3      3.017      5.121
REMARK  8 active torsions:
REMARK  status: ('A' for Active; 'I' for Inactive)
REMARK    1  A    between atoms: C2_2  and  C3_3 
REMARK    2  A    between atoms: C3_3  and  C4_4 
REMARK    3  A    between atoms: C4_4  and  N1_5 
REMARK    4  A    between atoms: N1_5  and  C5_6 
REMARK    5  A    between atoms: N1_5  and  C11_14 
REMARK    6  A    between atoms: C10_12  and  O1_13 
REMARK    7  A    between atoms: C11_14  and  N2_16 
REMARK    8  A    between atoms: C17_21  and  S1_22 
ROOT
HETATM    1  N1  UNL     1      23.258   3.004  52.078  1.00  0.00    -0.349 N 
ENDROOT
BRANCH   1   2
HETATM    2  C4  UNL     1      24.270   2.735  53.071  1.00  0.00     0.125 C 
BRANCH   2   3
HETATM    3  C3  UNL     1      25.496   2.042  52.603  1.00  0.00     0.019 C 
BRANCH   3   4
HETATM    4  C2  UNL     1      25.683   0.687  53.292  1.00  0.00    -0.003 C 
HETATM    5  C1  UNL     1      26.426  -0.194  52.312  1.00  0.00     0.005 C 
ENDBRANCH   3   4
ENDBRANCH   2   3
ENDBRANCH   1   2
BRANCH   1   6
HETATM    6  C5  UNL     1      23.551   4.005  51.082  1.00  0.00     0.067 A 
HETATM    7  C6  UNL     1      23.620   3.679  49.741  1.00  0.00     0.032 A 
HETATM    8  C7  UNL     1      23.903   4.575  48.734  1.00  0.00     0.004 A 
HETATM    9  C8  UNL     1      24.137   5.896  49.049  1.00  0.00     0.027 A 
HETATM   10  C9  UNL     1      24.082   6.282  50.369  1.00  0.00     0.069 A 
HETATM   11 CL1  UNL     1      24.378   7.956  50.782  1.00  0.00    -0.081 Cl
HETATM   12  C10 UNL     1      23.796   5.335  51.321  1.00  0.00     0.114 A 
BRANCH  12  13
HETATM   13  O1  UNL     1      23.759   5.809  52.620  1.00  0.00    -0.357 OA
HETATM   14  H13 UNL     1      23.160   5.512  53.355  1.00  0.00     0.218 HD
ENDBRANCH  12  13
ENDBRANCH   1   6
BRANCH   1  15
HETATM   15  C11 UNL     1      21.957   2.318  52.022  1.00  0.00     0.322 C 
HETATM   16  C12 UNL     1      20.867   3.316  52.362  1.00  0.00     0.066 C 
BRANCH  15  17
HETATM   17  N2  UNL     1      21.912   1.171  52.880  1.00  0.00     0.128 N 
HETATM   18  C13 UNL     1      22.296  -0.050  52.260  1.00  0.00     0.304 C 
HETATM   19  C14 UNL     1      22.135  -1.229  53.158  1.00  0.00    -0.001 C 
HETATM   20  C15 UNL     1      21.552  -1.093  54.369  1.00  0.00    -0.026 C 
HETATM   21  C16 UNL     1      21.041   0.237  54.872  1.00  0.00     0.073 C 
HETATM   22  C17 UNL     1      20.683   0.996  53.584  1.00  0.00     0.287 C 
BRANCH  22  23
HETATM   23  S1  UNL     1      19.573  -0.145  52.672  1.00  0.00    -0.146 SA
HETATM   24  H25 UNL     1      18.225   0.126  52.949  1.00  0.00     0.103 HD
ENDBRANCH  22  23
ENDBRANCH  15  17
ENDBRANCH   1  15
TORSDOF 8
ENDMDL
MODEL 6
REMARK VINA RESULT:      -6.3      3.022      4.947
REMARK  8 active torsions:
REMARK  status: ('A' for Active; 'I' for Inactive)
REMARK    1  A    between atoms: C2_2  and  C3_3 
REMARK    2  A    between atoms: C3_3  and  C4_4 
REMARK    3  A    between atoms: C4_4  and  N1_5 
REMARK    4  A    between atoms: N1_5  and  C5_6 
REMARK    5  A    between atoms: N1_5  and  C11_14 
REMARK    6  A    between atoms: C10_12  and  O1_13 
REMARK    7  A    between atoms: C11_14  and  N2_16 
REMARK    8  A    between atoms: C17_21  and  S1_22 
ROOT
HETATM    1  N1  UNL     1      22.300   1.629  51.508  1.00  0.00    -0.349 N 
ENDROOT
BRANCH   1   2
HETATM    2  C4  UNL     1      22.125   1.086  50.183  1.00  0.00     0.125 C 
BRANCH   2   3
HETATM    3  C3  UNL     1      20.799   1.292  49.547  1.00  0.00     0.019 C 
BRANCH   3   4
HETATM    4  C2  UNL     1      20.902   2.146  48.279  1.00  0.00    -0.003 C 
HETATM    5  C1  UNL     1      22.300   1.942  47.737  1.00  0.00     0.005 C 
ENDBRANCH   3   4
ENDBRANCH   2   3
ENDBRANCH   1   2
BRANCH   1   6
HETATM    6  C5  UNL     1      22.211   0.715  52.619  1.00  0.00     0.067 A 
HETATM    7  C6  UNL     1      20.988   0.249  53.065  1.00  0.00     0.032 A 
HETATM    8  C7  UNL     1      20.820  -0.618  54.122  1.00  0.00     0.004 A 
HETATM    9  C8  UNL     1      21.927  -1.073  54.805  1.00  0.00     0.027 A 
HETATM   10  C9  UNL     1      23.174  -0.645  54.408  1.00  0.00     0.069 A 
HETATM   11 CL1  UNL     1      24.586  -1.216  55.268  1.00  0.00    -0.081 Cl
HETATM   12  C10 UNL     1      23.266   0.220  53.347  1.00  0.00     0.114 A 
BRANCH  12  13
HETATM   13  O1  UNL     1      24.555   0.598  53.014  1.00  0.00    -0.357 OA
HETATM   14  H13 UNL     1      25.403   0.250  53.397  1.00  0.00     0.218 HD
ENDBRANCH  12  13
ENDBRANCH   1   6
BRANCH   1  15
HETATM   15  C11 UNL     1      22.567   3.049  51.787  1.00  0.00     0.322 C 
HETATM   16  C12 UNL     1      21.245   3.760  51.998  1.00  0.00     0.066 C 
BRANCH  15  17
HETATM   17  N2  UNL     1      23.342   3.668  50.753  1.00  0.00     0.128 N 
HETATM   18  C13 UNL     1      24.749   3.622  50.957  1.00  0.00     0.304 C 
HETATM   19  C14 UNL     1      25.508   4.367  49.911  1.00  0.00    -0.001 C 
HETATM   20  C15 UNL     1      24.856   5.096  48.980  1.00  0.00    -0.026 C 
HETATM   21  C16 UNL     1      23.348   5.196  48.945  1.00  0.00     0.073 C 
HETATM   22  C17 UNL     1      22.940   4.995  50.414  1.00  0.00     0.287 C 
BRANCH  22  23
HETATM   23  S1  UNL     1      23.936   6.227  51.340  1.00  0.00    -0.146 SA
HETATM   24  H25 UNL     1      24.074   5.861  52.687  1.00  0.00     0.103 HD
ENDBRANCH  22  23
ENDBRANCH  15  17
ENDBRANCH   1  15
TORSDOF 8
ENDMDL
MODEL 7
REMARK VINA RESULT:      -6.2      3.259      5.185
REMARK  8 active torsions:
REMARK  status: ('A' for Active; 'I' for Inactive)
REMARK    1  A    between atoms: C2_2  and  C3_3 
REMARK    2  A    between atoms: C3_3  and  C4_4 
REMARK    3  A    between atoms: C4_4  and  N1_5 
REMARK    4  A    between atoms: N1_5  and  C5_6 
REMARK    5  A    between atoms: N1_5  and  C11_14 
REMARK    6  A    between atoms: C10_12  and  O1_13 
REMARK    7  A    between atoms: C11_14  and  N2_16 
REMARK    8  A    between atoms: C17_21  and  S1_22 
ROOT
HETATM    1  N1  UNL     1      23.399   4.656  51.222  1.00  0.00    -0.349 N 
ENDROOT
BRANCH   1   2
HETATM    2  C4  UNL     1      23.645   4.250  52.584  1.00  0.00     0.125 C 
BRANCH   2   3
HETATM    3  C3  UNL     1      24.499   3.052  52.780  1.00  0.00     0.019 C 
BRANCH   3   4
HETATM    4  C2  UNL     1      23.667   1.807  53.105  1.00  0.00    -0.003 C 
HETATM    5  C1  UNL     1      24.431   0.624  52.551  1.00  0.00     0.005 C 
ENDBRANCH   3   4
ENDBRANCH   2   3
ENDBRANCH   1   2
BRANCH   1   6
HETATM    6  C5  UNL     1      24.464   5.335  50.527  1.00  0.00     0.067 A 
HETATM    7  C6  UNL     1      25.275   4.663  49.632  1.00  0.00     0.032 A 
HETATM    8  C7  UNL     1      26.316   5.238  48.937  1.00  0.00     0.004 A 
HETATM    9  C8  UNL     1      26.595   6.575  49.121  1.00  0.00     0.027 A 
HETATM   10  C9  UNL     1      25.821   7.299  50.000  1.00  0.00     0.069 A 
HETATM   11 CL1  UNL     1      26.166   8.996  50.243  1.00  0.00    -0.081 Cl
HETATM   12  C10 UNL     1      24.801   6.660  50.659  1.00  0.00     0.114 A 
BRANCH  12  13
HETATM   13  O1  UNL     1      24.074   7.461  51.521  1.00  0.00    -0.357 OA
HETATM   14  H13 UNL     1      23.315   7.190  52.102  1.00  0.00     0.218 HD
ENDBRANCH  12  13
ENDBRANCH   1   6
BRANCH   1  15
HETATM   15  C11 UNL     1      22.136   4.415  50.506  1.00  0.00     0.322 C 
HETATM   16  C12 UNL     1      21.122   5.452  50.948  1.00  0.00     0.066 C 
BRANCH  15  17
HETATM   17  N2  UNL     1      21.648   3.081  50.702  1.00  0.00     0.128 N 
HETATM   18  C13 UNL     1      22.141   2.127  49.770  1.00  0.00     0.304 C 
HETATM   19  C14 UNL     1      21.529   0.778  49.948  1.00  0.00    -0.001 C 
HETATM   20  C15 UNL     1      20.522   0.594  50.829  1.00  0.00    -0.026 C 
HETATM   21  C16 UNL     1      19.970   1.722  51.669  1.00  0.00     0.073 C 
HETATM   22  C17 UNL     1      20.230   2.971  50.811  1.00  0.00     0.287 C 
BRANCH  22  23
HETATM   23  S1  UNL     1      19.487   2.571  49.182  1.00  0.00    -0.146 SA
HETATM   24  H25 UNL     1      20.097   3.301  48.151  1.00  0.00     0.103 HD
ENDBRANCH  22  23
ENDBRANCH  15  17
ENDBRANCH   1  15
TORSDOF 8
ENDMDL
MODEL 8
REMARK VINA RESULT:      -6.2      2.916      5.699
REMARK  8 active torsions:
REMARK  status: ('A' for Active; 'I' for Inactive)
REMARK    1  A    between atoms: C2_2  and  C3_3 
REMARK    2  A    between atoms: C3_3  and  C4_4 
REMARK    3  A    between atoms: C4_4  and  N1_5 
REMARK    4  A    between atoms: N1_5  and  C5_6 
REMARK    5  A    between atoms: N1_5  and  C11_14 
REMARK    6  A    between atoms: C10_12  and  O1_13 
REMARK    7  A    between atoms: C11_14  and  N2_16 
REMARK    8  A    between atoms: C17_21  and  S1_22 
ROOT
HETATM    1  N1  UNL     1      24.127   2.333  51.180  1.00  0.00    -0.349 N 
ENDROOT
BRANCH   1   2
HETATM    2  C4  UNL     1      23.019   1.731  50.478  1.00  0.00     0.125 C 
BRANCH   2   3
HETATM    3  C3  UNL     1      21.726   1.663  51.205  1.00  0.00     0.019 C 
BRANCH   3   4
HETATM    4  C2  UNL     1      21.249   0.218  51.384  1.00  0.00    -0.003 C 
HETATM    5  C1  UNL     1      19.745   0.278  51.535  1.00  0.00     0.005 C 
ENDBRANCH   3   4
ENDBRANCH   2   3
ENDBRANCH   1   2
BRANCH   1   6
HETATM    6  C5  UNL     1      24.880   3.349  50.487  1.00  0.00     0.067 A 
HETATM    7  C6  UNL     1      26.129   3.078  49.960  1.00  0.00     0.032 A 
HETATM    8  C7  UNL     1      26.911   3.995  49.294  1.00  0.00     0.004 A 
HETATM    9  C8  UNL     1      26.447   5.281  49.122  1.00  0.00     0.027 A 
HETATM   10  C9  UNL     1      25.210   5.613  49.625  1.00  0.00     0.069 A 
HETATM   11 CL1  UNL     1      24.611   7.243  49.414  1.00  0.00    -0.081 Cl
HETATM   12  C10 UNL     1      24.485   4.648  50.279  1.00  0.00     0.114 A 
BRANCH  12  13
HETATM   13  O1  UNL     1      23.253   5.066  50.750  1.00  0.00    -0.357 OA
HETATM   14  H13 UNL     1      23.068   5.594  51.571  1.00  0.00     0.218 HD
ENDBRANCH  12  13
ENDBRANCH   1   6
BRANCH   1  15
HETATM   15  C11 UNL     1      24.525   1.976  52.550  1.00  0.00     0.322 C 
HETATM   16  C12 UNL     1      24.551   3.236  53.393  1.00  0.00     0.066 C 
BRANCH  15  17
HETATM   17  N2  UNL     1      25.783   1.289  52.587  1.00  0.00     0.128 N 
HETATM   18  C13 UNL     1      25.700  -0.112  52.355  1.00  0.00     0.304 C 
HETATM   19  C14 UNL     1      27.016  -0.800  52.506  1.00  0.00    -0.001 C 
HETATM   20  C15 UNL     1      28.096  -0.122  52.949  1.00  0.00    -0.026 C 
HETATM   21  C16 UNL     1      28.035   1.344  53.312  1.00  0.00     0.073 C 
HETATM   22  C17 UNL     1      26.574   1.547  53.746  1.00  0.00     0.287 C 
BRANCH  22  23
HETATM   23  S1  UNL     1      26.290   0.258  55.021  1.00  0.00    -0.146 SA
HETATM   24  H25 UNL     1      27.477  -0.427  55.325  1.00  0.00     0.103 HD
ENDBRANCH  22  23
ENDBRANCH  15  17
ENDBRANCH   1  15
TORSDOF 8
ENDMDL
MODEL 9
REMARK VINA RESULT:      -6.2      3.379      6.079
REMARK  8 active torsions:
REMARK  status: ('A' for Active; 'I' for Inactive)
REMARK    1  A    between atoms: C2_2  and  C3_3 
REMARK    2  A    between atoms: C3_3  and  C4_4 
REMARK    3  A    between atoms: C4_4  and  N1_5 
REMARK    4  A    between atoms: N1_5  and  C5_6 
REMARK    5  A    between atoms: N1_5  and  C11_14 
REMARK    6  A    between atoms: C10_12  and  O1_13 
REMARK    7  A    between atoms: C11_14  and  N2_16 
REMARK    8  A    between atoms: C17_21  and  S1_22 
ROOT
HETATM    1  N1  UNL     1      24.246   2.978  51.647  1.00  0.00    -0.349 N 
ENDROOT
BRANCH   1   2
HETATM    2  C4  UNL     1      23.143   2.236  52.208  1.00  0.00     0.125 C 
BRANCH   2   3
HETATM    3  C3  UNL     1      22.678   1.052  51.444  1.00  0.00     0.019 C 
BRANCH   3   4
HETATM    4  C2  UNL     1      21.847   0.103  52.314  1.00  0.00    -0.003 C 
HETATM    5  C1  UNL     1      22.820  -0.588  53.245  1.00  0.00     0.005 C 
ENDBRANCH   3   4
ENDBRANCH   2   3
ENDBRANCH   1   2
BRANCH   1   6
HETATM    6  C5  UNL     1      23.932   4.045  50.729  1.00  0.00     0.067 A 
HETATM    7  C6  UNL     1      23.664   3.786  49.398  1.00  0.00     0.032 A 
HETATM    8  C7  UNL     1      23.364   4.749  48.460  1.00  0.00     0.004 A 
HETATM    9  C8  UNL     1      23.318   6.073  48.841  1.00  0.00     0.027 A 
HETATM   10  C9  UNL     1      23.575   6.394  50.154  1.00  0.00     0.069 A 
HETATM   11 CL1  UNL     1      23.519   8.071  50.649  1.00  0.00    -0.081 Cl
HETATM   12  C10 UNL     1      23.868   5.383  51.034  1.00  0.00     0.114 A 
BRANCH  12  13
HETATM   13  O1  UNL     1      24.111   5.794  52.333  1.00  0.00    -0.357 OA
HETATM   14  H13 UNL     1      24.674   5.341  53.014  1.00  0.00     0.218 HD
ENDBRANCH  12  13
ENDBRANCH   1   6
BRANCH   1  15
HETATM   15  C11 UNL     1      25.660   2.715  51.958  1.00  0.00     0.322 C 
HETATM   16  C12 UNL     1      26.461   2.780  50.673  1.00  0.00     0.066 C 
BRANCH  15  17
HETATM   17  N2  UNL     1      25.842   1.463  52.633  1.00  0.00     0.128 N 
HETATM   18  C13 UNL     1      25.893   1.554  54.051  1.00  0.00     0.304 C 
HETATM   19  C14 UNL     1      26.186   0.245  54.703  1.00  0.00    -0.001 C 
HETATM   20  C15 UNL     1      26.493  -0.837  53.957  1.00  0.00    -0.026 C 
HETATM   21  C16 UNL     1      26.557  -0.786  52.448  1.00  0.00     0.073 C 
HETATM   22  C17 UNL     1      26.932   0.676  52.154  1.00  0.00     0.287 C 
BRANCH  22  23
HETATM   23  S1  UNL     1      28.436   0.976  53.161  1.00  0.00    -0.146 SA
HETATM   24  H25 UNL     1      29.189  -0.197  53.312  1.00  0.00     0.103 HD
ENDBRANCH  22  23
ENDBRANCH  15  17
ENDBRANCH   1  15
TORSDOF 8
ENDMDL
