MODEL 1
REMARK VINA RESULT:      -7.3      0.000      0.000
REMARK  5 active torsions:
REMARK  status: ('A' for Active; 'I' for Inactive)
REMARK    1  A    between atoms: C2_2  and  C13_17 
REMARK    2  A    between atoms: C3_3  and  C4_4 
REMARK    3  A    between atoms: N1_5  and  C5_6 
REMARK    4  A    between atoms: C6_7  and  C7_8 
REMARK    5  A    between atoms: C13_17  and  C14_18 
ROOT
HETATM    1  C4  UNL     1      23.808   3.511  52.501  1.00  0.00     0.117 C 
HETATM    2  N1  UNL     1      22.546   3.454  52.192  1.00  0.00    -0.264 NA
ENDROOT
BRANCH   2   3
HETATM    3  C5  UNL     1      22.149   2.559  51.161  1.00  0.00     0.052 C 
HETATM    4  C6  UNL     1      21.780   1.296  51.231  1.00  0.00     0.001 C 
HETATM    5  C11 UNL     1      21.426   0.640  49.919  1.00  0.00     0.116 C 
HETATM    6  S1  UNL     1      21.081   2.108  48.914  1.00  0.00    -0.158 SA
HETATM    7  C12 UNL     1      22.190   3.242  49.848  1.00  0.00     0.134 C 
BRANCH   4   8
HETATM    8  C7  UNL     1      21.744   0.633  52.558  1.00  0.00     0.046 A 
HETATM    9  N2  UNL     1      20.747   0.821  53.347  1.00  0.00    -0.246 NA
HETATM   10  C8  UNL     1      20.743   0.175  54.610  1.00  0.00     0.226 A 
HETATM   11  N3  UNL     1      21.698  -0.583  54.977  1.00  0.00    -0.282 NA
HETATM   12  C9  UNL     1      22.853  -0.859  54.182  1.00  0.00     0.156 A 
HETATM   13  C10 UNL     1      22.922  -0.212  52.837  1.00  0.00     0.082 A 
ENDBRANCH   4   8
ENDBRANCH   2   3
BRANCH   1  14
HETATM   14  C3  UNL     1      24.897   2.760  51.915  1.00  0.00     0.022 C 
HETATM   15  C2  UNL     1      25.792   2.083  52.579  1.00  0.00    -0.079 C 
HETATM   16  C1  UNL     1      25.759   2.029  54.055  1.00  0.00     0.044 C 
BRANCH  15  17
HETATM   17  C13 UNL     1      26.868   1.352  51.866  1.00  0.00     0.066 C 
BRANCH  17  18
HETATM   18  C14 UNL     1      26.685  -0.110  51.965  1.00  0.00     0.044 C 
HETATM   19  C15 UNL     1      27.291  -0.988  52.754  1.00  0.00     0.213 C 
HETATM   20  O1  UNL     1      27.153  -2.367  52.883  1.00  0.00    -0.300 OA
HETATM   21  O3  UNL     1      28.262  -0.768  53.701  1.00  0.00    -0.170 OA
HETATM   22  C16 UNL     1      28.464  -2.884  53.112  1.00  0.00     0.388 C 
HETATM   23  O2  UNL     1      29.132  -1.803  53.653  1.00  0.00    -0.207 OA
ENDBRANCH  17  18
ENDBRANCH  15  17
ENDBRANCH   1  14
TORSDOF 5
ENDMDL
MODEL 2
REMARK VINA RESULT:      -7.3      2.274      4.224
REMARK  5 active torsions:
REMARK  status: ('A' for Active; 'I' for Inactive)
REMARK    1  A    between atoms: C2_2  and  C13_17 
REMARK    2  A    between atoms: C3_3  and  C4_4 
REMARK    3  A    between atoms: N1_5  and  C5_6 
REMARK    4  A    between atoms: C6_7  and  C7_8 
REMARK    5  A    between atoms: C13_17  and  C14_18 
ROOT
HETATM    1  C4  UNL     1      22.737   3.374  52.407  1.00  0.00     0.117 C 
HETATM    2  N1  UNL     1      22.285   3.988  51.353  1.00  0.00    -0.264 NA
ENDROOT
BRANCH   2   3
HETATM    3  C5  UNL     1      22.163   3.245  50.147  1.00  0.00     0.052 C 
HETATM    4  C6  UNL     1      22.978   3.167  49.114  1.00  0.00     0.001 C 
HETATM    5  C11 UNL     1      22.527   2.275  47.985  1.00  0.00     0.116 C 
HETATM    6  S1  UNL     1      21.337   1.228  48.865  1.00  0.00    -0.158 SA
HETATM    7  C12 UNL     1      20.899   2.476  50.146  1.00  0.00     0.134 C 
BRANCH   4   8
HETATM    8  C7  UNL     1      24.242   3.945  49.139  1.00  0.00     0.046 A 
HETATM    9  N2  UNL     1      24.251   5.173  48.757  1.00  0.00    -0.246 NA
HETATM   10  C8  UNL     1      25.475   5.890  48.791  1.00  0.00     0.226 A 
HETATM   11  N3  UNL     1      26.557   5.349  49.190  1.00  0.00    -0.282 NA
HETATM   12  C9  UNL     1      26.660   3.995  49.634  1.00  0.00     0.156 A 
HETATM   13  C10 UNL     1      25.407   3.181  49.627  1.00  0.00     0.082 A 
ENDBRANCH   4   8
ENDBRANCH   2   3
BRANCH   1  14
HETATM   14  C3  UNL     1      23.145   1.990  52.519  1.00  0.00     0.022 C 
HETATM   15  C2  UNL     1      24.301   1.575  52.956  1.00  0.00    -0.079 C 
HETATM   16  C1  UNL     1      25.333   2.537  53.393  1.00  0.00     0.044 C 
BRANCH  15  17
HETATM   17  C13 UNL     1      24.607   0.126  53.021  1.00  0.00     0.066 C 
BRANCH  17  18
HETATM   18  C14 UNL     1      25.997  -0.152  52.607  1.00  0.00     0.044 C 
HETATM   19  C15 UNL     1      27.048  -0.493  53.342  1.00  0.00     0.213 C 
HETATM   20  O1  UNL     1      28.369  -0.764  53.000  1.00  0.00    -0.300 OA
HETATM   21  O3  UNL     1      27.123  -0.681  54.701  1.00  0.00    -0.170 OA
HETATM   22  C16 UNL     1      29.177  -0.217  54.042  1.00  0.00     0.388 C 
HETATM   23  O2  UNL     1      28.316  -0.199  55.121  1.00  0.00    -0.207 OA
ENDBRANCH  17  18
ENDBRANCH  15  17
ENDBRANCH   1  14
TORSDOF 5
ENDMDL
MODEL 3
REMARK VINA RESULT:      -6.6      1.956      2.786
REMARK  5 active torsions:
REMARK  status: ('A' for Active; 'I' for Inactive)
REMARK    1  A    between atoms: C2_2  and  C13_17 
REMARK    2  A    between atoms: C3_3  and  C4_4 
REMARK    3  A    between atoms: N1_5  and  C5_6 
REMARK    4  A    between atoms: C6_7  and  C7_8 
REMARK    5  A    between atoms: C13_17  and  C14_18 
ROOT
HETATM    1  C4  UNL     1      24.377   2.608  53.397  1.00  0.00     0.117 C 
HETATM    2  N1  UNL     1      23.761   3.528  52.712  1.00  0.00    -0.264 NA
ENDROOT
BRANCH   2   3
HETATM    3  C5  UNL     1      23.797   3.443  51.294  1.00  0.00     0.052 C 
HETATM    4  C6  UNL     1      22.924   2.922  50.455  1.00  0.00     0.001 C 
HETATM    5  C11 UNL     1      23.289   3.000  48.993  1.00  0.00     0.116 C 
HETATM    6  S1  UNL     1      24.496   4.351  49.040  1.00  0.00    -0.158 SA
HETATM    7  C12 UNL     1      25.038   4.060  50.775  1.00  0.00     0.134 C 
BRANCH   4   8
HETATM    8  C7  UNL     1      21.685   2.311  50.998  1.00  0.00     0.046 A 
HETATM    9  N2  UNL     1      20.751   3.057  51.469  1.00  0.00    -0.246 NA
HETATM   10  C8  UNL     1      19.579   2.443  51.983  1.00  0.00     0.226 A 
HETATM   11  N3  UNL     1      19.433   1.178  51.986  1.00  0.00    -0.282 NA
HETATM   12  C9  UNL     1      20.407   0.257  51.490  1.00  0.00     0.156 A 
HETATM   13  C10 UNL     1      21.666   0.836  50.931  1.00  0.00     0.082 A 
ENDBRANCH   4   8
ENDBRANCH   2   3
BRANCH   1  14
HETATM   14  C3  UNL     1      25.116   1.473  52.888  1.00  0.00     0.022 C 
HETATM   15  C2  UNL     1      24.799   0.221  53.068  1.00  0.00    -0.079 C 
HETATM   16  C1  UNL     1      23.599  -0.150  53.845  1.00  0.00     0.044 C 
BRANCH  15  17
HETATM   17  C13 UNL     1      25.639  -0.860  52.499  1.00  0.00     0.066 C 
BRANCH  17  18
HETATM   18  C14 UNL     1      27.053  -0.447  52.392  1.00  0.00     0.044 C 
HETATM   19  C15 UNL     1      27.944  -0.226  53.350  1.00  0.00     0.213 C 
HETATM   20  O1  UNL     1      29.280   0.161  53.300  1.00  0.00    -0.300 OA
HETATM   21  O3  UNL     1      27.788  -0.325  54.711  1.00  0.00    -0.170 OA
HETATM   22  C16 UNL     1      29.483   1.051  54.397  1.00  0.00     0.388 C 
HETATM   23  O2  UNL     1      28.493   0.679  55.284  1.00  0.00    -0.207 OA
ENDBRANCH  17  18
ENDBRANCH  15  17
ENDBRANCH   1  14
TORSDOF 5
ENDMDL
MODEL 4
REMARK VINA RESULT:      -6.6      4.182      6.631
REMARK  5 active torsions:
REMARK  status: ('A' for Active; 'I' for Inactive)
REMARK    1  A    between atoms: C2_2  and  C13_17 
REMARK    2  A    between atoms: C3_3  and  C4_4 
REMARK    3  A    between atoms: N1_5  and  C5_6 
REMARK    4  A    between atoms: C6_7  and  C7_8 
REMARK    5  A    between atoms: C13_17  and  C14_18 
ROOT
HETATM    1  C4  UNL     1      23.787  -0.470  54.152  1.00  0.00     0.117 C 
HETATM    2  N1  UNL     1      24.925   0.125  54.360  1.00  0.00    -0.264 NA
ENDROOT
BRANCH   2   3
HETATM    3  C5  UNL     1      25.438   0.967  53.337  1.00  0.00     0.052 C 
HETATM    4  C6  UNL     1      26.539   0.857  52.621  1.00  0.00     0.001 C 
HETATM    5  C11 UNL     1      26.780   1.951  51.611  1.00  0.00     0.116 C 
HETATM    6  S1  UNL     1      25.094   2.591  51.429  1.00  0.00    -0.158 SA
HETATM    7  C12 UNL     1      24.528   2.113  53.114  1.00  0.00     0.134 C 
BRANCH   4   8
HETATM    8  C7  UNL     1      27.435  -0.302  52.861  1.00  0.00     0.046 A 
HETATM    9  N2  UNL     1      28.593  -0.124  53.391  1.00  0.00    -0.246 NA
HETATM   10  C8  UNL     1      29.427  -1.251  53.606  1.00  0.00     0.226 A 
HETATM   11  N3  UNL     1      29.057  -2.427  53.289  1.00  0.00    -0.282 NA
HETATM   12  C9  UNL     1      27.795  -2.738  52.694  1.00  0.00     0.156 A 
HETATM   13  C10 UNL     1      26.864  -1.597  52.441  1.00  0.00     0.082 A 
ENDBRANCH   4   8
ENDBRANCH   2   3
BRANCH   1  14
HETATM   14  C3  UNL     1      22.946  -0.383  52.977  1.00  0.00     0.022 C 
HETATM   15  C2  UNL     1      21.678  -0.083  52.975  1.00  0.00    -0.079 C 
HETATM   16  C1  UNL     1      20.967   0.207  54.237  1.00  0.00     0.044 C 
BRANCH  15  17
HETATM   17  C13 UNL     1      20.916  -0.027  51.703  1.00  0.00     0.066 C 
BRANCH  17  18
HETATM   18  C14 UNL     1      21.369   1.091  50.851  1.00  0.00     0.044 C 
HETATM   19  C15 UNL     1      21.259   2.399  51.042  1.00  0.00     0.213 C 
HETATM   20  O1  UNL     1      21.668   3.484  50.272  1.00  0.00    -0.300 OA
HETATM   21  O3  UNL     1      20.689   3.071  52.096  1.00  0.00    -0.170 OA
HETATM   22  C16 UNL     1      20.645   4.473  50.393  1.00  0.00     0.388 C 
HETATM   23  O2  UNL     1      20.053   4.158  51.600  1.00  0.00    -0.207 OA
ENDBRANCH  17  18
ENDBRANCH  15  17
ENDBRANCH   1  14
TORSDOF 5
ENDMDL
MODEL 5
REMARK VINA RESULT:      -6.5      3.608      5.647
REMARK  5 active torsions:
REMARK  status: ('A' for Active; 'I' for Inactive)
REMARK    1  A    between atoms: C2_2  and  C13_17 
REMARK    2  A    between atoms: C3_3  and  C4_4 
REMARK    3  A    between atoms: N1_5  and  C5_6 
REMARK    4  A    between atoms: C6_7  and  C7_8 
REMARK    5  A    between atoms: C13_17  and  C14_18 
ROOT
HETATM    1  C4  UNL     1      23.663   4.434  52.733  1.00  0.00     0.117 C 
HETATM    2  N1  UNL     1      23.311   5.350  51.879  1.00  0.00    -0.264 NA
ENDROOT
BRANCH   2   3
HETATM    3  C5  UNL     1      22.644   4.940  50.693  1.00  0.00     0.052 C 
HETATM    4  C6  UNL     1      23.132   4.659  49.501  1.00  0.00     0.001 C 
HETATM    5  C11 UNL     1      22.122   4.256  48.455  1.00  0.00     0.116 C 
HETATM    6  S1  UNL     1      20.749   3.745  49.521  1.00  0.00    -0.158 SA
HETATM    7  C12 UNL     1      21.187   4.841  50.933  1.00  0.00     0.134 C 
BRANCH   4   8
HETATM    8  C7  UNL     1      24.596   4.763  49.285  1.00  0.00     0.046 A 
HETATM    9  N2  UNL     1      25.113   5.869  48.882  1.00  0.00    -0.246 NA
HETATM   10  C8  UNL     1      26.516   5.936  48.683  1.00  0.00     0.226 A 
HETATM   11  N3  UNL     1      27.270   4.932  48.893  1.00  0.00    -0.282 NA
HETATM   12  C9  UNL     1      26.803   3.657  49.339  1.00  0.00     0.156 A 
HETATM   13  C10 UNL     1      25.333   3.516  49.572  1.00  0.00     0.082 A 
ENDBRANCH   4   8
ENDBRANCH   2   3
BRANCH   1  14
HETATM   14  C3  UNL     1      23.457   3.005  52.631  1.00  0.00     0.022 C 
HETATM   15  C2  UNL     1      24.319   2.090  52.978  1.00  0.00    -0.079 C 
HETATM   16  C1  UNL     1      25.637   2.464  53.530  1.00  0.00     0.044 C 
BRANCH  15  17
HETATM   17  C13 UNL     1      23.997   0.651  52.823  1.00  0.00     0.066 C 
BRANCH  17  18
HETATM   18  C14 UNL     1      22.539   0.430  52.738  1.00  0.00     0.044 C 
HETATM   19  C15 UNL     1      21.721  -0.166  53.597  1.00  0.00     0.213 C 
HETATM   20  O1  UNL     1      20.349  -0.397  53.561  1.00  0.00    -0.300 OA
HETATM   21  O3  UNL     1      22.016  -0.741  54.809  1.00  0.00    -0.170 OA
HETATM   22  C16 UNL     1      20.143  -1.688  54.133  1.00  0.00     0.388 C 
HETATM   23  O2  UNL     1      21.251  -1.850  54.940  1.00  0.00    -0.207 OA
ENDBRANCH  17  18
ENDBRANCH  15  17
ENDBRANCH   1  14
TORSDOF 5
ENDMDL
MODEL 6
REMARK VINA RESULT:      -6.4      2.566      3.963
REMARK  5 active torsions:
REMARK  status: ('A' for Active; 'I' for Inactive)
REMARK    1  A    between atoms: C2_2  and  C13_17 
REMARK    2  A    between atoms: C3_3  and  C4_4 
REMARK    3  A    between atoms: N1_5  and  C5_6 
REMARK    4  A    between atoms: C6_7  and  C7_8 
REMARK    5  A    between atoms: C13_17  and  C14_18 
ROOT
HETATM    1  C4  UNL     1      23.255   3.285  52.481  1.00  0.00     0.117 C 
HETATM    2  N1  UNL     1      22.622   4.336  52.050  1.00  0.00    -0.264 NA
ENDROOT
BRANCH   2   3
HETATM    3  C5  UNL     1      23.219   5.099  51.010  1.00  0.00     0.052 C 
HETATM    4  C6  UNL     1      23.086   4.999  49.703  1.00  0.00     0.001 C 
HETATM    5  C11 UNL     1      23.884   5.982  48.883  1.00  0.00     0.116 C 
HETATM    6  S1  UNL     1      24.184   7.264  50.129  1.00  0.00    -0.158 SA
HETATM    7  C12 UNL     1      24.107   6.136  51.581  1.00  0.00     0.134 C 
BRANCH   4   8
HETATM    8  C7  UNL     1      22.188   3.953  49.152  1.00  0.00     0.046 A 
HETATM    9  N2  UNL     1      20.925   4.172  49.056  1.00  0.00    -0.246 NA
HETATM   10  C8  UNL     1      20.093   3.151  48.527  1.00  0.00     0.226 A 
HETATM   11  N3  UNL     1      20.566   2.032  48.148  1.00  0.00    -0.282 NA
HETATM   12  C9  UNL     1      21.951   1.683  48.213  1.00  0.00     0.156 A 
HETATM   13  C10 UNL     1      22.886   2.713  48.757  1.00  0.00     0.082 A 
ENDBRANCH   4   8
ENDBRANCH   2   3
BRANCH   1  14
HETATM   14  C3  UNL     1      24.529   2.772  52.025  1.00  0.00     0.022 C 
HETATM   15  C2  UNL     1      24.976   1.564  52.230  1.00  0.00    -0.079 C 
HETATM   16  C1  UNL     1      24.172   0.578  52.981  1.00  0.00     0.044 C 
BRANCH  15  17
HETATM   17  C13 UNL     1      26.304   1.153  51.715  1.00  0.00     0.066 C 
BRANCH  17  18
HETATM   18  C14 UNL     1      26.809  -0.044  52.419  1.00  0.00     0.044 C 
HETATM   19  C15 UNL     1      27.898  -0.191  53.163  1.00  0.00     0.213 C 
HETATM   20  O1  UNL     1      28.413  -1.291  53.843  1.00  0.00    -0.300 OA
HETATM   21  O3  UNL     1      28.855   0.741  53.483  1.00  0.00    -0.170 OA
HETATM   22  C16 UNL     1      29.831  -1.225  53.701  1.00  0.00     0.388 C 
HETATM   23  O2  UNL     1      30.058   0.119  53.480  1.00  0.00    -0.207 OA
ENDBRANCH  17  18
ENDBRANCH  15  17
ENDBRANCH   1  14
TORSDOF 5
ENDMDL
MODEL 7
REMARK VINA RESULT:      -6.3      2.939      4.343
REMARK  5 active torsions:
REMARK  status: ('A' for Active; 'I' for Inactive)
REMARK    1  A    between atoms: C2_2  and  C13_17 
REMARK    2  A    between atoms: C3_3  and  C4_4 
REMARK    3  A    between atoms: N1_5  and  C5_6 
REMARK    4  A    between atoms: C6_7  and  C7_8 
REMARK    5  A    between atoms: C13_17  and  C14_18 
ROOT
HETATM    1  C4  UNL     1      23.280   2.550  49.501  1.00  0.00     0.117 C 
HETATM    2  N1  UNL     1      22.827   3.607  48.894  1.00  0.00    -0.264 NA
ENDROOT
BRANCH   2   3
HETATM    3  C5  UNL     1      22.980   4.866  49.537  1.00  0.00     0.052 C 
HETATM    4  C6  UNL     1      22.114   5.568  50.240  1.00  0.00     0.001 C 
HETATM    5  C11 UNL     1      22.618   6.884  50.779  1.00  0.00     0.116 C 
HETATM    6  S1  UNL     1      24.405   6.587  50.719  1.00  0.00    -0.158 SA
HETATM    7  C12 UNL     1      24.350   5.384  49.327  1.00  0.00     0.134 C 
BRANCH   4   8
HETATM    8  C7  UNL     1      20.747   5.027  50.439  1.00  0.00     0.046 A 
HETATM    9  N2  UNL     1      19.796   5.367  49.644  1.00  0.00    -0.246 NA
HETATM   10  C8  UNL     1      18.499   4.834  49.861  1.00  0.00     0.226 A 
HETATM   11  N3  UNL     1      18.258   4.031  50.819  1.00  0.00    -0.282 NA
HETATM   12  C9  UNL     1      19.238   3.589  51.761  1.00  0.00     0.156 A 
HETATM   13  C10 UNL     1      20.628   4.110  51.590  1.00  0.00     0.082 A 
ENDBRANCH   4   8
ENDBRANCH   2   3
BRANCH   1  14
HETATM   14  C3  UNL     1      23.941   2.484  50.787  1.00  0.00     0.022 C 
HETATM   15  C2  UNL     1      23.577   1.732  51.788  1.00  0.00    -0.079 C 
HETATM   16  C1  UNL     1      22.401   0.844  51.677  1.00  0.00     0.044 C 
BRANCH  15  17
HETATM   17  C13 UNL     1      24.334   1.752  53.063  1.00  0.00     0.066 C 
BRANCH  17  18
HETATM   18  C14 UNL     1      25.233   0.585  53.175  1.00  0.00     0.044 C 
HETATM   19  C15 UNL     1      26.247   0.376  54.005  1.00  0.00     0.213 C 
HETATM   20  O1  UNL     1      27.118  -0.700  54.150  1.00  0.00    -0.300 OA
HETATM   21  O3  UNL     1      26.735   1.196  54.993  1.00  0.00    -0.170 OA
HETATM   22  C16 UNL     1      28.399  -0.145  54.447  1.00  0.00     0.388 C 
HETATM   23  O2  UNL     1      28.084   1.079  55.002  1.00  0.00    -0.207 OA
ENDBRANCH  17  18
ENDBRANCH  15  17
ENDBRANCH   1  14
TORSDOF 5
ENDMDL
MODEL 8
REMARK VINA RESULT:      -6.3      4.204      6.121
REMARK  5 active torsions:
REMARK  status: ('A' for Active; 'I' for Inactive)
REMARK    1  A    between atoms: C2_2  and  C13_17 
REMARK    2  A    between atoms: C3_3  and  C4_4 
REMARK    3  A    between atoms: N1_5  and  C5_6 
REMARK    4  A    between atoms: C6_7  and  C7_8 
REMARK    5  A    between atoms: C13_17  and  C14_18 
ROOT
HETATM    1  C4  UNL     1      24.527   3.001  51.502  1.00  0.00     0.117 C 
HETATM    2  N1  UNL     1      24.455   2.582  52.731  1.00  0.00    -0.264 NA
ENDROOT
BRANCH   2   3
HETATM    3  C5  UNL     1      23.689   1.414  52.996  1.00  0.00     0.052 C 
HETATM    4  C6  UNL     1      24.077   0.221  53.401  1.00  0.00     0.001 C 
HETATM    5  C11 UNL     1      22.982  -0.802  53.578  1.00  0.00     0.116 C 
HETATM    6  S1  UNL     1      21.548   0.295  53.743  1.00  0.00    -0.158 SA
HETATM    7  C12 UNL     1      22.253   1.677  52.754  1.00  0.00     0.134 C 
BRANCH   4   8
HETATM    8  C7  UNL     1      25.521  -0.020  53.640  1.00  0.00     0.046 A 
HETATM    9  N2  UNL     1      26.072   0.390  54.727  1.00  0.00    -0.246 NA
HETATM   10  C8  UNL     1      27.456   0.146  54.926  1.00  0.00     0.226 A 
HETATM   11  N3  UNL     1      28.159  -0.466  54.059  1.00  0.00    -0.282 NA
HETATM   12  C9  UNL     1      27.650  -0.961  52.818  1.00  0.00     0.156 A 
HETATM   13  C10 UNL     1      26.198  -0.741  52.544  1.00  0.00     0.082 A 
ENDBRANCH   4   8
ENDBRANCH   2   3
BRANCH   1  14
HETATM   14  C3  UNL     1      23.911   2.417  50.331  1.00  0.00     0.022 C 
HETATM   15  C2  UNL     1      23.370   3.082  49.349  1.00  0.00    -0.079 C 
HETATM   16  C1  UNL     1      23.345   4.559  49.359  1.00  0.00     0.044 C 
BRANCH  15  17
HETATM   17  C13 UNL     1      22.763   2.371  48.198  1.00  0.00     0.066 C 
BRANCH  17  18
HETATM   18  C14 UNL     1      21.655   1.494  48.627  1.00  0.00     0.044 C 
HETATM   19  C15 UNL     1      20.513   1.807  49.226  1.00  0.00     0.213 C 
HETATM   20  O1  UNL     1      19.444   1.022  49.648  1.00  0.00    -0.300 OA
HETATM   21  O3  UNL     1      20.051   3.042  49.610  1.00  0.00    -0.170 OA
HETATM   22  C16 UNL     1      18.992   1.583  50.880  1.00  0.00     0.388 C 
HETATM   23  O2  UNL     1      19.407   2.896  50.792  1.00  0.00    -0.207 OA
ENDBRANCH  17  18
ENDBRANCH  15  17
ENDBRANCH   1  14
TORSDOF 5
ENDMDL
MODEL 9
REMARK VINA RESULT:      -6.3      4.430      6.622
REMARK  5 active torsions:
REMARK  status: ('A' for Active; 'I' for Inactive)
REMARK    1  A    between atoms: C2_2  and  C13_17 
REMARK    2  A    between atoms: C3_3  and  C4_4 
REMARK    3  A    between atoms: N1_5  and  C5_6 
REMARK    4  A    between atoms: C6_7  and  C7_8 
REMARK    5  A    between atoms: C13_17  and  C14_18 
ROOT
HETATM    1  C4  UNL     1      22.981   1.621  52.781  1.00  0.00     0.117 C 
HETATM    2  N1  UNL     1      23.992   2.392  53.058  1.00  0.00    -0.264 NA
ENDROOT
BRANCH   2   3
HETATM    3  C5  UNL     1      24.822   2.819  51.986  1.00  0.00     0.052 C 
HETATM    4  C6  UNL     1      25.999   2.371  51.596  1.00  0.00     0.001 C 
HETATM    5  C11 UNL     1      26.608   3.071  50.406  1.00  0.00     0.116 C 
HETATM    6  S1  UNL     1      25.121   3.812  49.680  1.00  0.00    -0.158 SA
HETATM    7  C12 UNL     1      24.183   3.938  51.258  1.00  0.00     0.134 C 
BRANCH   4   8
HETATM    8  C7  UNL     1      26.619   1.246  52.339  1.00  0.00     0.046 A 
HETATM    9  N2  UNL     1      26.370   0.032  51.998  1.00  0.00    -0.246 NA
HETATM   10  C8  UNL     1      26.977  -1.021  52.729  1.00  0.00     0.226 A 
HETATM   11  N3  UNL     1      27.758  -0.793  53.708  1.00  0.00    -0.282 NA
HETATM   12  C9  UNL     1      28.102   0.515  54.172  1.00  0.00     0.156 A 
HETATM   13  C10 UNL     1      27.499   1.673  53.445  1.00  0.00     0.082 A 
ENDBRANCH   4   8
ENDBRANCH   2   3
BRANCH   1  14
HETATM   14  C3  UNL     1      22.577   1.126  51.483  1.00  0.00     0.022 C 
HETATM   15  C2  UNL     1      21.393   1.263  50.955  1.00  0.00    -0.079 C 
HETATM   16  C1  UNL     1      20.319   1.972  51.682  1.00  0.00     0.044 C 
BRANCH  15  17
HETATM   17  C13 UNL     1      21.094   0.707  49.614  1.00  0.00     0.066 C 
BRANCH  17  18
HETATM   18  C14 UNL     1      21.836   1.422  48.555  1.00  0.00     0.044 C 
HETATM   19  C15 UNL     1      21.535   2.550  47.926  1.00  0.00     0.213 C 
HETATM   20  O1  UNL     1      22.198   3.259  46.928  1.00  0.00    -0.300 OA
HETATM   21  O3  UNL     1      20.441   3.365  48.093  1.00  0.00    -0.170 OA
HETATM   22  C16 UNL     1      21.189   3.771  46.058  1.00  0.00     0.388 C 
HETATM   23  O2  UNL     1      20.077   3.827  46.874  1.00  0.00    -0.207 OA
ENDBRANCH  17  18
ENDBRANCH  15  17
ENDBRANCH   1  14
TORSDOF 5
ENDMDL
