MODEL 1
REMARK VINA RESULT:      -7.6      0.000      0.000
REMARK  5 active torsions:
REMARK  status: ('A' for Active; 'I' for Inactive)
REMARK    1  A    between atoms: C5_7  and  N1_8 
REMARK    2  A    between atoms: N1_8  and  C6_9 
REMARK    3  A    between atoms: N4_13  and  C8_14 
REMARK    4  A    between atoms: C9_15  and  N5_16 
REMARK    5  A    between atoms: N5_16  and  C10_17 
ROOT
HETATM    1  C6  UNL     1      24.736   3.198  50.976  1.00  0.00     0.125 A 
HETATM    2  N2  UNL     1      24.592   3.008  49.695  1.00  0.00    -0.225 NA
HETATM    3  C7  UNL     1      23.279   2.998  49.147  1.00  0.00     0.257 A 
HETATM    4  N3  UNL     1      22.242   3.173  49.899  1.00  0.00    -0.166 NA
HETATM    5  N4  UNL     1      22.352   3.379  51.271  1.00  0.00    -0.272 N 
HETATM    6  C14 UNL     1      23.620   3.411  51.930  1.00  0.00     0.229 A 
ENDROOT
BRANCH   5   7
HETATM    7  C8  UNL     1      21.165   3.562  52.030  1.00  0.00     0.129 C 
HETATM    8  C9  UNL     1      20.351   2.688  52.578  1.00  0.00     0.103 C 
BRANCH   8   9
HETATM    9  N5  UNL     1      20.622   1.301  52.443  1.00  0.00    -0.369 N 
HETATM   10  H7  UNL     1      20.264   0.801  51.601  1.00  0.00     0.161 HD
BRANCH   9  11
HETATM   11  C10 UNL     1      21.401   0.778  53.573  1.00  0.00     0.322 C 
HETATM   12  C11 UNL     1      22.596   0.071  52.986  1.00  0.00     0.087 C 
HETATM   13  C12 UNL     1      23.333  -0.710  54.055  1.00  0.00     0.275 C 
HETATM   14  N6  UNL     1      22.444  -1.546  54.819  1.00  0.00     0.111 N 
HETATM   15  C13 UNL     1      21.076  -1.445  54.412  1.00  0.00     0.539 C 
HETATM   16  H13 UNL     1      22.739  -2.545  54.694  1.00  0.00     0.318 HD
HETATM   17  N7  UNL     1      20.583  -0.096  54.398  1.00  0.00     0.134 N 
HETATM   18  H16 UNL     1      19.632  -0.131  53.963  1.00  0.00     0.320 HD
ENDBRANCH   9  11
ENDBRANCH   8   9
ENDBRANCH   5   7
BRANCH   1  19
HETATM   19  N1  UNL     1      26.080   3.193  51.436  1.00  0.00    -0.343 N 
HETATM   20  H3  UNL     1      26.651   4.083  51.295  1.00  0.00     0.167 HD
BRANCH  19  21
HETATM   21  C5  UNL     1      26.715   2.110  52.064  1.00  0.00     0.036 A 
HETATM   22  C4  UNL     1      27.748   2.328  52.986  1.00  0.00     0.053 A 
HETATM   23  C3  UNL     1      28.414   1.331  53.642  1.00  0.00     0.037 A 
HETATM   24  C2  UNL     1      28.085   0.017  53.418  1.00  0.00     0.048 A 
HETATM   25 CL2  UNL     1      29.690   1.723  54.775  1.00  0.00    -0.084 Cl
HETATM   26  C1  UNL     1      27.072  -0.259  52.517  1.00  0.00     0.037 A 
HETATM   27 CL1  UNL     1      26.654  -1.920  52.230  1.00  0.00    -0.084 Cl
HETATM   28  C15 UNL     1      26.439   0.793  51.887  1.00  0.00     0.053 A 
ENDBRANCH  19  21
ENDBRANCH   1  19
TORSDOF 5
ENDMDL
MODEL 2
REMARK VINA RESULT:      -7.6      4.362      7.373
REMARK  5 active torsions:
REMARK  status: ('A' for Active; 'I' for Inactive)
REMARK    1  A    between atoms: C5_7  and  N1_8 
REMARK    2  A    between atoms: N1_8  and  C6_9 
REMARK    3  A    between atoms: N4_13  and  C8_14 
REMARK    4  A    between atoms: C9_15  and  N5_16 
REMARK    5  A    between atoms: N5_16  and  C10_17 
ROOT
HETATM    1  C6  UNL     1      25.829   3.360  50.446  1.00  0.00     0.125 A 
HETATM    2  N2  UNL     1      26.882   3.248  49.686  1.00  0.00    -0.225 NA
HETATM    3  C7  UNL     1      27.302   4.374  48.926  1.00  0.00     0.257 A 
HETATM    4  N3  UNL     1      26.657   5.494  48.982  1.00  0.00    -0.166 NA
HETATM    5  N4  UNL     1      25.528   5.656  49.781  1.00  0.00    -0.272 N 
HETATM    6  C14 UNL     1      25.017   4.593  50.588  1.00  0.00     0.229 A 
ENDROOT
BRANCH   5   7
HETATM    7  C8  UNL     1      24.873   6.917  49.787  1.00  0.00     0.129 C 
HETATM    8  C9  UNL     1      25.304   8.108  50.134  1.00  0.00     0.103 C 
BRANCH   8   9
HETATM    9  N5  UNL     1      26.639   8.262  50.594  1.00  0.00    -0.369 N 
HETATM   10  H7  UNL     1      27.007   7.585  51.298  1.00  0.00     0.161 HD
BRANCH   9  11
HETATM   11  C10 UNL     1      27.309   9.408  49.968  1.00  0.00     0.322 C 
HETATM   12  C11 UNL     1      26.899   9.412  48.517  1.00  0.00     0.087 C 
HETATM   13  C12 UNL     1      27.726  10.409  47.732  1.00  0.00     0.275 C 
HETATM   14  N6  UNL     1      29.136  10.242  47.966  1.00  0.00     0.111 N 
HETATM   15  C13 UNL     1      29.440   9.192  48.889  1.00  0.00     0.539 C 
HETATM   16  H13 UNL     1      29.599  10.007  47.055  1.00  0.00     0.318 HD
HETATM   17  N7  UNL     1      28.750   9.317  50.143  1.00  0.00     0.134 N 
HETATM   18  H16 UNL     1      28.942   8.437  50.676  1.00  0.00     0.320 HD
ENDBRANCH   9  11
ENDBRANCH   8   9
ENDBRANCH   5   7
BRANCH   1  19
HETATM   19  N1  UNL     1      25.483   2.188  51.168  1.00  0.00    -0.343 N 
HETATM   20  H3  UNL     1      24.460   1.884  51.151  1.00  0.00     0.167 HD
BRANCH  19  21
HETATM   21  C5  UNL     1      26.380   1.394  51.899  1.00  0.00     0.036 A 
HETATM   22  C4  UNL     1      27.343   1.986  52.729  1.00  0.00     0.053 A 
HETATM   23  C3  UNL     1      28.249   1.286  53.475  1.00  0.00     0.037 A 
HETATM   24  C2  UNL     1      28.255  -0.086  53.444  1.00  0.00     0.048 A 
HETATM   25 CL2  UNL     1      29.406   2.136  54.478  1.00  0.00    -0.084 Cl
HETATM   26  C1  UNL     1      27.328  -0.727  52.642  1.00  0.00     0.037 A 
HETATM   27 CL1  UNL     1      27.335  -2.463  52.600  1.00  0.00    -0.084 Cl
HETATM   28  C15 UNL     1      26.440   0.038  51.913  1.00  0.00     0.053 A 
ENDBRANCH  19  21
ENDBRANCH   1  19
TORSDOF 5
ENDMDL
MODEL 3
REMARK VINA RESULT:      -7.5      2.655      5.959
REMARK  5 active torsions:
REMARK  status: ('A' for Active; 'I' for Inactive)
REMARK    1  A    between atoms: C5_7  and  N1_8 
REMARK    2  A    between atoms: N1_8  and  C6_9 
REMARK    3  A    between atoms: N4_13  and  C8_14 
REMARK    4  A    between atoms: C9_15  and  N5_16 
REMARK    5  A    between atoms: N5_16  and  C10_17 
ROOT
HETATM    1  C6  UNL     1      21.887   2.810  51.684  1.00  0.00     0.125 A 
HETATM    2  N2  UNL     1      21.742   3.938  52.320  1.00  0.00    -0.225 NA
HETATM    3  C7  UNL     1      22.787   4.901  52.257  1.00  0.00     0.257 A 
HETATM    4  N3  UNL     1      23.866   4.669  51.583  1.00  0.00    -0.166 NA
HETATM    5  N4  UNL     1      24.061   3.477  50.890  1.00  0.00    -0.272 N 
HETATM    6  C14 UNL     1      23.078   2.440  50.882  1.00  0.00     0.229 A 
ENDROOT
BRANCH   5   7
HETATM    7  C8  UNL     1      25.275   3.296  50.174  1.00  0.00     0.129 C 
HETATM    8  C9  UNL     1      26.473   2.948  50.586  1.00  0.00     0.103 C 
BRANCH   8   9
HETATM    9  N5  UNL     1      26.689   2.687  51.965  1.00  0.00    -0.369 N 
HETATM   10  H7  UNL     1      26.594   3.473  52.644  1.00  0.00     0.161 HD
BRANCH   9  11
HETATM   11  C10 UNL     1      27.028   1.280  52.213  1.00  0.00     0.322 C 
HETATM   12  C11 UNL     1      25.772   0.613  52.714  1.00  0.00     0.087 C 
HETATM   13  C12 UNL     1      26.076  -0.779  53.228  1.00  0.00     0.275 C 
HETATM   14  N6  UNL     1      27.179  -0.782  54.154  1.00  0.00     0.111 N 
HETATM   15  C13 UNL     1      27.744   0.514  54.370  1.00  0.00     0.539 C 
HETATM   16  H13 UNL     1      26.834  -1.136  55.079  1.00  0.00     0.318 HD
HETATM   17  N7  UNL     1      28.130   1.178  53.156  1.00  0.00     0.134 N 
HETATM   18  H16 UNL     1      28.400   2.153  53.423  1.00  0.00     0.320 HD
ENDBRANCH   9  11
ENDBRANCH   8   9
ENDBRANCH   5   7
BRANCH   1  19
HETATM   19  N1  UNL     1      20.795   1.910  51.803  1.00  0.00    -0.343 N 
HETATM   20  H3  UNL     1      19.934   2.101  51.204  1.00  0.00     0.167 HD
BRANCH  19  21
HETATM   21  C5  UNL     1      20.762   0.787  52.644  1.00  0.00     0.036 A 
HETATM   22  C4  UNL     1      19.615  -0.017  52.713  1.00  0.00     0.053 A 
HETATM   23  C3  UNL     1      19.502  -1.127  53.502  1.00  0.00     0.037 A 
HETATM   24  C2  UNL     1      20.553  -1.521  54.293  1.00  0.00     0.048 A 
HETATM   25 CL2  UNL     1      18.017  -2.055  53.507  1.00  0.00    -0.084 Cl
HETATM   26  C1  UNL     1      21.711  -0.767  54.266  1.00  0.00     0.037 A 
HETATM   27 CL1  UNL     1      23.041  -1.262  55.266  1.00  0.00    -0.084 Cl
HETATM   28  C15 UNL     1      21.761   0.344  53.448  1.00  0.00     0.053 A 
ENDBRANCH  19  21
ENDBRANCH   1  19
TORSDOF 5
ENDMDL
MODEL 4
REMARK VINA RESULT:      -7.5      3.905      7.137
REMARK  5 active torsions:
REMARK  status: ('A' for Active; 'I' for Inactive)
REMARK    1  A    between atoms: C5_7  and  N1_8 
REMARK    2  A    between atoms: N1_8  and  C6_9 
REMARK    3  A    between atoms: N4_13  and  C8_14 
REMARK    4  A    between atoms: C9_15  and  N5_16 
REMARK    5  A    between atoms: N5_16  and  C10_17 
ROOT
HETATM    1  C6  UNL     1      24.574   2.732  51.975  1.00  0.00     0.125 A 
HETATM    2  N2  UNL     1      23.690   3.357  52.701  1.00  0.00    -0.225 NA
HETATM    3  C7  UNL     1      23.367   4.704  52.381  1.00  0.00     0.257 A 
HETATM    4  N3  UNL     1      23.935   5.308  51.388  1.00  0.00    -0.166 NA
HETATM    5  N4  UNL     1      24.884   4.677  50.588  1.00  0.00    -0.272 N 
HETATM    6  C14 UNL     1      25.285   3.325  50.816  1.00  0.00     0.229 A 
ENDROOT
BRANCH   5   7
HETATM    7  C8  UNL     1      25.465   5.408  49.517  1.00  0.00     0.129 C 
HETATM    8  C9  UNL     1      26.012   6.602  49.487  1.00  0.00     0.103 C 
BRANCH   8   9
HETATM    9  N5  UNL     1      26.080   7.369  50.680  1.00  0.00    -0.369 N 
HETATM   10  H7  UNL     1      25.984   6.880  51.596  1.00  0.00     0.161 HD
BRANCH   9  11
HETATM   11  C10 UNL     1      26.285   8.797  50.407  1.00  0.00     0.322 C 
HETATM   12  C11 UNL     1      25.984   9.006  48.945  1.00  0.00     0.087 C 
HETATM   13  C12 UNL     1      26.399  10.397  48.508  1.00  0.00     0.275 C 
HETATM   14  N6  UNL     1      27.749  10.704  48.903  1.00  0.00     0.111 N 
HETATM   15  C13 UNL     1      28.387   9.646  49.623  1.00  0.00     0.539 C 
HETATM   16  H13 UNL     1      28.314  10.886  48.038  1.00  0.00     0.318 HD
HETATM   17  N7  UNL     1      27.637   9.198  50.763  1.00  0.00     0.134 N 
HETATM   18  H16 UNL     1      28.126   8.347  51.126  1.00  0.00     0.320 HD
ENDBRANCH   9  11
ENDBRANCH   8   9
ENDBRANCH   5   7
BRANCH   1  19
HETATM   19  N1  UNL     1      24.834   1.393  52.367  1.00  0.00    -0.343 N 
HETATM   20  H3  UNL     1      24.018   0.705  52.338  1.00  0.00     0.167 HD
BRANCH  19  21
HETATM   21  C5  UNL     1      26.080   0.900  52.785  1.00  0.00     0.036 A 
HETATM   22  C4  UNL     1      26.408  -0.451  52.607  1.00  0.00     0.053 A 
HETATM   23  C3  UNL     1      27.598  -1.008  52.982  1.00  0.00     0.037 A 
HETATM   24  C2  UNL     1      28.566  -0.234  53.575  1.00  0.00     0.048 A 
HETATM   25 CL2  UNL     1      27.898  -2.711  52.708  1.00  0.00    -0.084 Cl
HETATM   26  C1  UNL     1      28.298   1.107  53.777  1.00  0.00     0.037 A 
HETATM   27 CL1  UNL     1      29.519   2.087  54.527  1.00  0.00    -0.084 Cl
HETATM   28  C15 UNL     1      27.076   1.608  53.375  1.00  0.00     0.053 A 
ENDBRANCH  19  21
ENDBRANCH   1  19
TORSDOF 5
ENDMDL
MODEL 5
REMARK VINA RESULT:      -7.5      2.657      5.746
REMARK  5 active torsions:
REMARK  status: ('A' for Active; 'I' for Inactive)
REMARK    1  A    between atoms: C5_7  and  N1_8 
REMARK    2  A    between atoms: N1_8  and  C6_9 
REMARK    3  A    between atoms: N4_13  and  C8_14 
REMARK    4  A    between atoms: C9_15  and  N5_16 
REMARK    5  A    between atoms: N5_16  and  C10_17 
ROOT
HETATM    1  C6  UNL     1      21.868   2.762  51.619  1.00  0.00     0.125 A 
HETATM    2  N2  UNL     1      21.735   3.833  52.348  1.00  0.00    -0.225 NA
HETATM    3  C7  UNL     1      22.799   4.776  52.384  1.00  0.00     0.257 A 
HETATM    4  N3  UNL     1      23.884   4.582  51.708  1.00  0.00    -0.166 NA
HETATM    5  N4  UNL     1      24.067   3.451  50.916  1.00  0.00    -0.272 N 
HETATM    6  C14 UNL     1      23.065   2.438  50.804  1.00  0.00     0.229 A 
ENDROOT
BRANCH   5   7
HETATM    7  C8  UNL     1      25.289   3.308  50.204  1.00  0.00     0.129 C 
HETATM    8  C9  UNL     1      26.490   2.972  50.617  1.00  0.00     0.103 C 
BRANCH   8   9
HETATM    9  N5  UNL     1      26.702   2.684  51.991  1.00  0.00    -0.369 N 
HETATM   10  H7  UNL     1      26.590   3.453  52.687  1.00  0.00     0.161 HD
BRANCH   9  11
HETATM   11  C10 UNL     1      27.063   1.277  52.211  1.00  0.00     0.322 C 
HETATM   12  C11 UNL     1      25.791   0.556  52.578  1.00  0.00     0.087 C 
HETATM   13  C12 UNL     1      26.095  -0.848  53.060  1.00  0.00     0.275 C 
HETATM   14  N6  UNL     1      27.117  -0.860  54.074  1.00  0.00     0.111 N 
HETATM   15  C13 UNL     1      27.623   0.441  54.387  1.00  0.00     0.539 C 
HETATM   16  H13 UNL     1      26.709  -1.262  54.952  1.00  0.00     0.318 HD
HETATM   17  N7  UNL     1      28.087   1.166  53.237  1.00  0.00     0.134 N 
HETATM   18  H16 UNL     1      28.304   2.136  53.564  1.00  0.00     0.320 HD
ENDBRANCH   9  11
ENDBRANCH   8   9
ENDBRANCH   5   7
BRANCH   1  19
HETATM   19  N1  UNL     1      20.758   1.877  51.643  1.00  0.00    -0.343 N 
HETATM   20  H3  UNL     1      19.955   2.079  50.971  1.00  0.00     0.167 HD
BRANCH  19  21
HETATM   21  C5  UNL     1      20.635   0.757  52.480  1.00  0.00     0.036 A 
HETATM   22  C4  UNL     1      21.706   0.351  53.289  1.00  0.00     0.053 A 
HETATM   23  C3  UNL     1      21.667  -0.724  54.132  1.00  0.00     0.037 A 
HETATM   24  C2  UNL     1      20.528  -1.485  54.228  1.00  0.00     0.048 A 
HETATM   25 CL2  UNL     1      23.068  -1.136  55.098  1.00  0.00    -0.084 Cl
HETATM   26  C1  UNL     1      19.439  -1.133  53.452  1.00  0.00     0.037 A 
HETATM   27 CL1  UNL     1      17.998  -2.094  53.570  1.00  0.00    -0.084 Cl
HETATM   28  C15 UNL     1      19.542  -0.036  52.620  1.00  0.00     0.053 A 
ENDBRANCH  19  21
ENDBRANCH   1  19
TORSDOF 5
ENDMDL
MODEL 6
REMARK VINA RESULT:      -7.2      4.324      7.431
REMARK  5 active torsions:
REMARK  status: ('A' for Active; 'I' for Inactive)
REMARK    1  A    between atoms: C5_7  and  N1_8 
REMARK    2  A    between atoms: N1_8  and  C6_9 
REMARK    3  A    between atoms: N4_13  and  C8_14 
REMARK    4  A    between atoms: C9_15  and  N5_16 
REMARK    5  A    between atoms: N5_16  and  C10_17 
ROOT
HETATM    1  C6  UNL     1      23.881   3.200  51.048  1.00  0.00     0.125 A 
HETATM    2  N2  UNL     1      23.378   3.907  52.020  1.00  0.00    -0.225 NA
HETATM    3  C7  UNL     1      23.570   5.316  52.014  1.00  0.00     0.257 A 
HETATM    4  N3  UNL     1      24.231   5.894  51.065  1.00  0.00    -0.166 NA
HETATM    5  N4  UNL     1      24.784   5.176  50.008  1.00  0.00    -0.272 N 
HETATM    6  C14 UNL     1      24.653   3.756  49.910  1.00  0.00     0.229 A 
ENDROOT
BRANCH   5   7
HETATM    7  C8  UNL     1      25.499   5.883  49.004  1.00  0.00     0.129 C 
HETATM    8  C9  UNL     1      26.261   6.950  49.081  1.00  0.00     0.103 C 
BRANCH   8   9
HETATM    9  N5  UNL     1      26.465   7.573  50.340  1.00  0.00    -0.369 N 
HETATM   10  H7  UNL     1      26.426   6.987  51.202  1.00  0.00     0.161 HD
BRANCH   9  11
HETATM   11  C10 UNL     1      26.710   9.016  50.209  1.00  0.00     0.322 C 
HETATM   12  C11 UNL     1      26.272   9.405  48.820  1.00  0.00     0.087 C 
HETATM   13  C12 UNL     1      26.707  10.821  48.501  1.00  0.00     0.275 C 
HETATM   14  N6  UNL     1      28.103  11.031  48.781  1.00  0.00     0.111 N 
HETATM   15  C13 UNL     1      28.760   9.873  49.305  1.00  0.00     0.539 C 
HETATM   16  H13 UNL     1      28.585  11.292  47.887  1.00  0.00     0.318 HD
HETATM   17  N7  UNL     1      28.109   9.323  50.461  1.00  0.00     0.134 N 
HETATM   18  H16 UNL     1      28.591   8.417  50.671  1.00  0.00     0.320 HD
ENDBRANCH   9  11
ENDBRANCH   8   9
ENDBRANCH   5   7
BRANCH   1  19
HETATM   19  N1  UNL     1      23.640   1.803  51.135  1.00  0.00    -0.343 N 
HETATM   20  H3  UNL     1      23.022   1.363  50.385  1.00  0.00     0.167 HD
BRANCH  19  21
HETATM   21  C5  UNL     1      24.155   0.955  52.128  1.00  0.00     0.036 A 
HETATM   22  C4  UNL     1      25.529   0.688  52.195  1.00  0.00     0.053 A 
HETATM   23  C3  UNL     1      26.109  -0.122  53.131  1.00  0.00     0.037 A 
HETATM   24  C2  UNL     1      25.338  -0.734  54.087  1.00  0.00     0.048 A 
HETATM   25 CL2  UNL     1      27.841  -0.382  53.116  1.00  0.00    -0.084 Cl
HETATM   26  C1  UNL     1      23.974  -0.508  54.072  1.00  0.00     0.037 A 
HETATM   27 CL1  UNL     1      22.996  -1.281  55.280  1.00  0.00    -0.084 Cl
HETATM   28  C15 UNL     1      23.450   0.321  53.099  1.00  0.00     0.053 A 
ENDBRANCH  19  21
ENDBRANCH   1  19
TORSDOF 5
ENDMDL
MODEL 7
REMARK VINA RESULT:      -7.1      4.793      7.948
REMARK  5 active torsions:
REMARK  status: ('A' for Active; 'I' for Inactive)
REMARK    1  A    between atoms: C5_7  and  N1_8 
REMARK    2  A    between atoms: N1_8  and  C6_9 
REMARK    3  A    between atoms: N4_13  and  C8_14 
REMARK    4  A    between atoms: C9_15  and  N5_16 
REMARK    5  A    between atoms: N5_16  and  C10_17 
ROOT
HETATM    1  C6  UNL     1      26.070   3.952  49.758  1.00  0.00     0.125 A 
HETATM    2  N2  UNL     1      27.210   3.842  49.137  1.00  0.00    -0.225 NA
HETATM    3  C7  UNL     1      27.794   5.005  48.564  1.00  0.00     0.257 A 
HETATM    4  N3  UNL     1      27.211   6.156  48.652  1.00  0.00    -0.166 NA
HETATM    5  N4  UNL     1      25.992   6.317  49.307  1.00  0.00    -0.272 N 
HETATM    6  C14 UNL     1      25.315   5.218  49.921  1.00  0.00     0.229 A 
ENDROOT
BRANCH   5   7
HETATM    7  C8  UNL     1      25.413   7.614  49.360  1.00  0.00     0.129 C 
HETATM    8  C9  UNL     1      25.826   8.716  49.942  1.00  0.00     0.103 C 
BRANCH   8   9
HETATM    9  N5  UNL     1      27.048   8.709  50.665  1.00  0.00    -0.369 N 
HETATM   10  H7  UNL     1      27.112   8.140  51.537  1.00  0.00     0.161 HD
BRANCH   9  11
HETATM   11  C10 UNL     1      28.070   9.551  50.028  1.00  0.00     0.322 C 
HETATM   12  C11 UNL     1      27.377  10.323  48.935  1.00  0.00     0.087 C 
HETATM   13  C12 UNL     1      28.389  11.038  48.063  1.00  0.00     0.275 C 
HETATM   14  N6  UNL     1      29.433  10.153  47.616  1.00  0.00     0.111 N 
HETATM   15  C13 UNL     1      29.293   8.815  48.101  1.00  0.00     0.539 C 
HETATM   16  H13 UNL     1      29.410  10.115  46.568  1.00  0.00     0.318 HD
HETATM   17  N7  UNL     1      29.166   8.736  49.530  1.00  0.00     0.134 N 
HETATM   18  H16 UNL     1      28.937   7.739  49.753  1.00  0.00     0.320 HD
ENDBRANCH   9  11
ENDBRANCH   8   9
ENDBRANCH   5   7
BRANCH   1  19
HETATM   19  N1  UNL     1      25.562   2.741  50.298  1.00  0.00    -0.343 N 
HETATM   20  H3  UNL     1      24.805   2.235  49.743  1.00  0.00     0.167 HD
BRANCH  19  21
HETATM   21  C5  UNL     1      25.979   2.156  51.504  1.00  0.00     0.036 A 
HETATM   22  C4  UNL     1      25.167   1.221  52.161  1.00  0.00     0.053 A 
HETATM   23  C3  UNL     1      25.501   0.604  53.334  1.00  0.00     0.037 A 
HETATM   24  C2  UNL     1      26.698   0.884  53.944  1.00  0.00     0.048 A 
HETATM   25 CL2  UNL     1      24.405  -0.550  54.064  1.00  0.00    -0.084 Cl
HETATM   26  C1  UNL     1      27.542   1.799  53.342  1.00  0.00     0.037 A 
HETATM   27 CL1  UNL     1      29.056   2.156  54.113  1.00  0.00    -0.084 Cl
HETATM   28  C15 UNL     1      27.146   2.388  52.158  1.00  0.00     0.053 A 
ENDBRANCH  19  21
ENDBRANCH   1  19
TORSDOF 5
ENDMDL
MODEL 8
REMARK VINA RESULT:      -7.1      2.285      5.259
REMARK  5 active torsions:
REMARK  status: ('A' for Active; 'I' for Inactive)
REMARK    1  A    between atoms: C5_7  and  N1_8 
REMARK    2  A    between atoms: N1_8  and  C6_9 
REMARK    3  A    between atoms: N4_13  and  C8_14 
REMARK    4  A    between atoms: C9_15  and  N5_16 
REMARK    5  A    between atoms: N5_16  and  C10_17 
ROOT
HETATM    1  C6  UNL     1      22.912   2.009  52.298  1.00  0.00     0.125 A 
HETATM    2  N2  UNL     1      21.622   1.976  52.483  1.00  0.00    -0.225 NA
HETATM    3  C7  UNL     1      20.771   2.501  51.471  1.00  0.00     0.257 A 
HETATM    4  N3  UNL     1      21.259   3.004  50.385  1.00  0.00    -0.166 NA
HETATM    5  N4  UNL     1      22.630   3.059  50.149  1.00  0.00    -0.272 N 
HETATM    6  C14 UNL     1      23.579   2.560  51.094  1.00  0.00     0.229 A 
ENDROOT
BRANCH   5   7
HETATM    7  C8  UNL     1      23.089   3.630  48.931  1.00  0.00     0.129 C 
HETATM    8  C9  UNL     1      23.699   4.768  48.690  1.00  0.00     0.103 C 
BRANCH   8   9
HETATM    9  N5  UNL     1      23.991   5.645  49.768  1.00  0.00    -0.369 N 
HETATM   10  H7  UNL     1      23.206   5.986  50.364  1.00  0.00     0.161 HD
BRANCH   9  11
HETATM   11  C10 UNL     1      25.427   5.940  49.865  1.00  0.00     0.322 C 
HETATM   12  C11 UNL     1      25.849   6.486  48.525  1.00  0.00     0.087 C 
HETATM   13  C12 UNL     1      27.358   6.594  48.444  1.00  0.00     0.275 C 
HETATM   14  N6  UNL     1      28.007   5.370  48.835  1.00  0.00     0.111 N 
HETATM   15  C13 UNL     1      27.093   4.339  49.222  1.00  0.00     0.539 C 
HETATM   16  H13 UNL     1      28.561   5.013  48.020  1.00  0.00     0.318 HD
HETATM   17  N7  UNL     1      26.170   4.749  50.244  1.00  0.00     0.134 N 
HETATM   18  H16 UNL     1      25.476   3.971  50.347  1.00  0.00     0.320 HD
ENDBRANCH   9  11
ENDBRANCH   8   9
ENDBRANCH   5   7
BRANCH   1  19
HETATM   19  N1  UNL     1      23.684   1.465  53.358  1.00  0.00    -0.343 N 
HETATM   20  H3  UNL     1      23.230   1.418  54.322  1.00  0.00     0.167 HD
BRANCH  19  21
HETATM   21  C5  UNL     1      24.995   0.979  53.237  1.00  0.00     0.036 A 
HETATM   22  C4  UNL     1      26.091   1.827  53.451  1.00  0.00     0.053 A 
HETATM   23  C3  UNL     1      27.396   1.433  53.356  1.00  0.00     0.037 A 
HETATM   24  C2  UNL     1      27.704   0.135  53.034  1.00  0.00     0.048 A 
HETATM   25 CL2  UNL     1      28.685   2.583  53.647  1.00  0.00    -0.084 Cl
HETATM   26  C1  UNL     1      26.663  -0.748  52.811  1.00  0.00     0.037 A 
HETATM   27 CL1  UNL     1      27.049  -2.391  52.403  1.00  0.00    -0.084 Cl
HETATM   28  C15 UNL     1      25.366  -0.288  52.922  1.00  0.00     0.053 A 
ENDBRANCH  19  21
ENDBRANCH   1  19
TORSDOF 5
ENDMDL
MODEL 9
REMARK VINA RESULT:      -7.1      3.532      6.607
REMARK  5 active torsions:
REMARK  status: ('A' for Active; 'I' for Inactive)
REMARK    1  A    between atoms: C5_7  and  N1_8 
REMARK    2  A    between atoms: N1_8  and  C6_9 
REMARK    3  A    between atoms: N4_13  and  C8_14 
REMARK    4  A    between atoms: C9_15  and  N5_16 
REMARK    5  A    between atoms: N5_16  and  C10_17 
ROOT
HETATM    1  C6  UNL     1      24.630   2.102  52.191  1.00  0.00     0.125 A 
HETATM    2  N2  UNL     1      23.472   2.633  52.460  1.00  0.00    -0.225 NA
HETATM    3  C7  UNL     1      23.042   3.760  51.706  1.00  0.00     0.257 A 
HETATM    4  N3  UNL     1      23.782   4.257  50.769  1.00  0.00    -0.166 NA
HETATM    5  N4  UNL     1      25.027   3.719  50.450  1.00  0.00    -0.272 N 
HETATM    6  C14 UNL     1      25.558   2.586  51.140  1.00  0.00     0.229 A 
ENDROOT
BRANCH   5   7
HETATM    7  C8  UNL     1      25.782   4.322  49.408  1.00  0.00     0.129 C 
HETATM    8  C9  UNL     1      26.262   5.539  49.287  1.00  0.00     0.103 C 
BRANCH   8   9
HETATM    9  N5  UNL     1      26.038   6.485  50.323  1.00  0.00    -0.369 N 
HETATM   10  H7  UNL     1      25.873   6.136  51.292  1.00  0.00     0.161 HD
BRANCH   9  11
HETATM   11  C10 UNL     1      26.078   7.866  49.827  1.00  0.00     0.322 C 
HETATM   12  C11 UNL     1      26.440   7.792  48.365  1.00  0.00     0.087 C 
HETATM   13  C12 UNL     1      26.744   9.172  47.820  1.00  0.00     0.275 C 
HETATM   14  N6  UNL     1      27.686   9.881  48.646  1.00  0.00     0.111 N 
HETATM   15  C13 UNL     1      28.111   9.139  49.793  1.00  0.00     0.539 C 
HETATM   16  H13 UNL     1      28.538  10.093  48.072  1.00  0.00     0.318 HD
HETATM   17  N7  UNL     1      27.022   8.660  50.598  1.00  0.00     0.134 N 
HETATM   18  H16 UNL     1      27.441   8.028  51.319  1.00  0.00     0.320 HD
ENDBRANCH   9  11
ENDBRANCH   8   9
ENDBRANCH   5   7
BRANCH   1  19
HETATM   19  N1  UNL     1      24.977   0.982  52.991  1.00  0.00    -0.343 N 
HETATM   20  H3  UNL     1      24.181   0.442  53.452  1.00  0.00     0.167 HD
BRANCH  19  21
HETATM   21  C5  UNL     1      26.285   0.527  53.222  1.00  0.00     0.036 A 
HETATM   22  C4  UNL     1      27.259   1.393  53.739  1.00  0.00     0.053 A 
HETATM   23  C3  UNL     1      28.551   1.028  53.995  1.00  0.00     0.037 A 
HETATM   24  C2  UNL     1      28.968  -0.256  53.748  1.00  0.00     0.048 A 
HETATM   25 CL2  UNL     1      29.683   2.198  54.643  1.00  0.00    -0.084 Cl
HETATM   26  C1  UNL     1      28.051  -1.155  53.237  1.00  0.00     0.037 A 
HETATM   27 CL1  UNL     1      28.575  -2.780  52.923  1.00  0.00    -0.084 Cl
HETATM   28  C15 UNL     1      26.760  -0.725  53.000  1.00  0.00     0.053 A 
ENDBRANCH  19  21
ENDBRANCH   1  19
TORSDOF 5
ENDMDL
