MODEL 1
REMARK VINA RESULT:      -7.8      0.000      0.000
REMARK  3 active torsions:
REMARK  status: ('A' for Active; 'I' for Inactive)
REMARK    1  A    between atoms: C5_6  and  C6_7 
REMARK       I    between atoms: C6_7  and  N1_9 
REMARK    2  A    between atoms: C11_17  and  S2_18 
REMARK    3  A    between atoms: S2_18  and  N5_19 
ROOT
HETATM    1  C6  UNL     1      25.359  -0.509  53.949  1.00  0.00     0.362 C 
HETATM    2  O1  UNL     1      25.177  -1.254  55.017  1.00  0.00    -0.158 OA
HETATM    3  N1  UNL     1      24.620   0.275  52.870  1.00  0.00     0.360 N 
HETATM    4  N2  UNL     1      24.185   1.051  51.777  1.00  0.00     0.211 NA
HETATM    5  C7  UNL     1      22.872   1.183  51.867  1.00  0.00     0.391 A 
HETATM    6  N3  UNL     1      23.849   0.696  52.393  1.00  0.00     0.364 N 
HETATM    7  C8  UNL     1      23.466   0.027  53.497  1.00  0.00     0.535 A 
HETATM    8  N4  UNL     1      22.466  -0.462  54.440  1.00  0.00    -0.206 NA
HETATM    9  C9  UNL     1      21.267  -1.006  54.118  1.00  0.00     0.123 C 
HETATM   10  C10 UNL     1      20.240  -0.303  53.274  1.00  0.00     0.063 C 
HETATM   11  C11 UNL     1      20.343   0.669  52.323  1.00  0.00     0.149 C 
HETATM   12  N6  UNL     1      21.514   1.353  51.912  1.00  0.00    -0.304 N 
HETATM   13  C12 UNL     1      21.594   2.632  51.350  1.00  0.00     0.160 C 
ENDROOT
BRANCH   1  14
HETATM   14  C5  UNL     1      26.811  -0.455  53.823  1.00  0.00     0.077 A 
HETATM   15  C2  UNL     1      27.742  -1.211  53.151  1.00  0.00    -0.040 A 
HETATM   16  C1  UNL     1      27.221  -2.385  52.423  1.00  0.00     0.049 C 
HETATM   17  C3  UNL     1      29.059  -0.881  53.205  1.00  0.00     0.015 A 
HETATM   18  C4  UNL     1      29.398   0.284  53.996  1.00  0.00     0.051 A 
HETATM   19  S1  UNL     1      27.797   0.861  54.633  1.00  0.00    -0.097 SA
ENDBRANCH   1  14
BRANCH  11  20
HETATM   20  S2  UNL     1      19.049   1.270  51.424  1.00  0.00     0.255 S 
HETATM   21  O2  UNL     1      17.837   0.395  51.809  1.00  0.00    -0.205 OA
HETATM   22  O3  UNL     1      18.639   2.628  51.810  1.00  0.00    -0.205 OA
BRANCH  20  23
HETATM   23  N5  UNL     1      19.192   1.040  49.718  1.00  0.00    -0.224 NA
HETATM   24  H8  UNL     1      18.402   0.504  49.323  1.00  0.00     0.136 HD
HETATM   25  H9  UNL     1      19.253   1.944  49.237  1.00  0.00     0.136 HD
ENDBRANCH  20  23
ENDBRANCH  11  20
TORSDOF 3
ENDMDL
MODEL 2
REMARK VINA RESULT:      -7.4      3.472      4.115
REMARK  3 active torsions:
REMARK  status: ('A' for Active; 'I' for Inactive)
REMARK    1  A    between atoms: C5_6  and  C6_7 
REMARK       I    between atoms: C6_7  and  N1_9 
REMARK    2  A    between atoms: C11_17  and  S2_18 
REMARK    3  A    between atoms: S2_18  and  N5_19 
ROOT
HETATM    1  C6  UNL     1      26.455   0.994  53.123  1.00  0.00     0.362 C 
HETATM    2  O1  UNL     1      25.720   0.672  54.164  1.00  0.00    -0.158 OA
HETATM    3  N1  UNL     1      26.497   1.894  51.892  1.00  0.00     0.360 N 
HETATM    4  N2  UNL     1      26.773   2.605  50.707  1.00  0.00     0.211 NA
HETATM    5  C7  UNL     1      25.819   3.505  50.539  1.00  0.00     0.391 A 
HETATM    6  N3  UNL     1      26.215   2.616  51.261  1.00  0.00     0.364 N 
HETATM    7  C8  UNL     1      25.365   2.478  52.296  1.00  0.00     0.535 A 
HETATM    8  N4  UNL     1      24.164   2.827  53.048  1.00  0.00    -0.206 NA
HETATM    9  C9  UNL     1      22.937   3.064  52.524  1.00  0.00     0.123 C 
HETATM   10  C10 UNL     1      22.675   4.107  51.473  1.00  0.00     0.063 C 
HETATM   11  C11 UNL     1      23.472   4.673  50.523  1.00  0.00     0.149 C 
HETATM   12  N6  UNL     1      24.858   4.455  50.317  1.00  0.00    -0.304 N 
HETATM   13  C12 UNL     1      25.776   5.335  49.732  1.00  0.00     0.160 C 
ENDROOT
BRANCH   1  14
HETATM   14  C5  UNL     1      27.637   0.153  53.274  1.00  0.00     0.077 A 
HETATM   15  C2  UNL     1      27.923  -1.158  52.975  1.00  0.00    -0.040 A 
HETATM   16  C1  UNL     1      26.809  -1.957  52.427  1.00  0.00     0.049 C 
HETATM   17  C3  UNL     1      29.164  -1.659  53.214  1.00  0.00     0.015 A 
HETATM   18  C4  UNL     1      30.127  -0.743  53.788  1.00  0.00     0.051 A 
HETATM   19  S1  UNL     1      29.203   0.812  53.961  1.00  0.00    -0.097 SA
ENDBRANCH   1  14
BRANCH  11  20
HETATM   20  S2  UNL     1      22.946   5.787  49.370  1.00  0.00     0.255 S 
HETATM   21  O2  UNL     1      21.422   5.910  49.580  1.00  0.00    -0.205 OA
HETATM   22  O3  UNL     1      23.444   7.151  49.594  1.00  0.00    -0.205 OA
BRANCH  20  23
HETATM   23  N5  UNL     1      23.090   5.249  47.734  1.00  0.00    -0.224 NA
HETATM   24  H8  UNL     1      24.073   5.105  47.450  1.00  0.00     0.136 HD
HETATM   25  H9  UNL     1      22.572   4.374  47.598  1.00  0.00     0.136 HD
ENDBRANCH  20  23
ENDBRANCH  11  20
TORSDOF 3
ENDMDL
MODEL 3
REMARK VINA RESULT:      -7.2      2.377      7.476
REMARK  3 active torsions:
REMARK  status: ('A' for Active; 'I' for Inactive)
REMARK    1  A    between atoms: C5_6  and  C6_7 
REMARK       I    between atoms: C6_7  and  N1_9 
REMARK    2  A    between atoms: C11_17  and  S2_18 
REMARK    3  A    between atoms: S2_18  and  N5_19 
ROOT
HETATM    1  C6  UNL     1      21.855   1.343  51.698  1.00  0.00     0.362 C 
HETATM    2  O1  UNL     1      21.794   2.474  51.030  1.00  0.00    -0.158 OA
HETATM    3  N1  UNL     1      22.801   0.445  52.488  1.00  0.00     0.360 N 
HETATM    4  N2  UNL     1      23.459  -0.548  53.241  1.00  0.00     0.211 NA
HETATM    5  C7  UNL     1      24.684  -0.120  53.498  1.00  0.00     0.391 A 
HETATM    6  N3  UNL     1      23.640   0.161  52.952  1.00  0.00     0.364 N 
HETATM    7  C8  UNL     1      23.755   1.375  52.380  1.00  0.00     0.535 A 
HETATM    8  N4  UNL     1      24.493   2.585  52.036  1.00  0.00    -0.206 NA
HETATM    9  C9  UNL     1      25.771   2.638  51.587  1.00  0.00     0.123 C 
HETATM   10  C10 UNL     1      26.935   2.049  52.336  1.00  0.00     0.063 C 
HETATM   11  C11 UNL     1      27.023   1.035  53.242  1.00  0.00     0.149 C 
HETATM   12  N6  UNL     1      25.962   0.274  53.794  1.00  0.00    -0.304 N 
HETATM   13  C12 UNL     1      25.944  -0.384  55.029  1.00  0.00     0.160 C 
ENDROOT
BRANCH   1  14
HETATM   14  C5  UNL     1      20.493   0.829  51.611  1.00  0.00     0.077 A 
HETATM   15  C2  UNL     1      19.636   0.235  52.507  1.00  0.00    -0.040 A 
HETATM   16  C1  UNL     1      20.179  -0.013  53.857  1.00  0.00     0.049 C 
HETATM   17  C3  UNL     1      18.381  -0.115  52.122  1.00  0.00     0.015 A 
HETATM   18  C4  UNL     1      18.026   0.171  50.748  1.00  0.00     0.051 A 
HETATM   19  S1  UNL     1      19.522   0.939  50.060  1.00  0.00    -0.097 SA
ENDBRANCH   1  14
BRANCH  11  20
HETATM   20  S2  UNL     1      28.466   0.471  53.911  1.00  0.00     0.255 S 
HETATM   21  O2  UNL     1      29.589   1.088  53.050  1.00  0.00    -0.205 OA
HETATM   22  O3  UNL     1      28.735   0.988  55.261  1.00  0.00    -0.205 OA
BRANCH  20  23
HETATM   23  N5  UNL     1      28.716  -1.230  53.750  1.00  0.00    -0.224 NA
HETATM   24  H8  UNL     1      28.211  -1.774  54.469  1.00  0.00     0.136 HD
HETATM   25  H9  UNL     1      28.420  -1.550  52.822  1.00  0.00     0.136 HD
ENDBRANCH  20  23
ENDBRANCH  11  20
TORSDOF 3
ENDMDL
MODEL 4
REMARK VINA RESULT:      -7.2      2.274      3.362
REMARK  3 active torsions:
REMARK  status: ('A' for Active; 'I' for Inactive)
REMARK    1  A    between atoms: C5_6  and  C6_7 
REMARK       I    between atoms: C6_7  and  N1_9 
REMARK    2  A    between atoms: C11_17  and  S2_18 
REMARK    3  A    between atoms: S2_18  and  N5_19 
ROOT
HETATM    1  C6  UNL     1      26.307   1.959  51.840  1.00  0.00     0.362 C 
HETATM    2  O1  UNL     1      27.047   2.677  51.025  1.00  0.00    -0.158 OA
HETATM    3  N1  UNL     1      24.863   1.621  52.197  1.00  0.00     0.360 N 
HETATM    4  N2  UNL     1      23.640   1.154  52.719  1.00  0.00     0.211 NA
HETATM    5  C7  UNL     1      22.665   1.625  51.958  1.00  0.00     0.391 A 
HETATM    6  N3  UNL     1      23.867   1.606  52.116  1.00  0.00     0.364 N 
HETATM    7  C8  UNL     1      24.448   2.345  51.153  1.00  0.00     0.535 A 
HETATM    8  N4  UNL     1      24.415   3.207  49.976  1.00  0.00    -0.206 NA
HETATM    9  C9  UNL     1      23.564   4.242  49.771  1.00  0.00     0.123 C 
HETATM   10  C10 UNL     1      22.067   4.100  49.804  1.00  0.00     0.063 C 
HETATM   11  C11 UNL     1      21.244   3.211  50.431  1.00  0.00     0.149 C 
HETATM   12  N6  UNL     1      21.618   2.084  51.204  1.00  0.00    -0.304 N 
HETATM   13  C12 UNL     1      20.871   0.922  51.424  1.00  0.00     0.160 C 
ENDROOT
BRANCH   1  14
HETATM   14  C5  UNL     1      27.292   1.260  52.659  1.00  0.00     0.077 A 
HETATM   15  C2  UNL     1      27.549  -0.064  52.925  1.00  0.00    -0.040 A 
HETATM   16  C1  UNL     1      26.621  -1.039  52.319  1.00  0.00     0.049 C 
HETATM   17  C3  UNL     1      28.588  -0.410  53.728  1.00  0.00     0.015 A 
HETATM   18  C4  UNL     1      29.376   0.679  54.267  1.00  0.00     0.051 A 
HETATM   19  S1  UNL     1      28.584   2.168  53.589  1.00  0.00    -0.097 SA
ENDBRANCH   1  14
BRANCH  11  20
HETATM   20  S2  UNL     1      19.558   3.282  50.401  1.00  0.00     0.255 S 
HETATM   21  O2  UNL     1      19.214   4.636  49.745  1.00  0.00    -0.205 OA
HETATM   22  O3  UNL     1      18.940   2.291  49.508  1.00  0.00    -0.205 OA
BRANCH  20  23
HETATM   23  N5  UNL     1      18.816   3.382  51.957  1.00  0.00    -0.224 NA
HETATM   24  H8  UNL     1      17.990   2.768  52.042  1.00  0.00     0.136 HD
HETATM   25  H9  UNL     1      19.489   3.137  52.692  1.00  0.00     0.136 HD
ENDBRANCH  20  23
ENDBRANCH  11  20
TORSDOF 3
ENDMDL
MODEL 5
REMARK VINA RESULT:      -7.1      2.795      7.556
REMARK  3 active torsions:
REMARK  status: ('A' for Active; 'I' for Inactive)
REMARK    1  A    between atoms: C5_6  and  C6_7 
REMARK       I    between atoms: C6_7  and  N1_9 
REMARK    2  A    between atoms: C11_17  and  S2_18 
REMARK    3  A    between atoms: S2_18  and  N5_19 
ROOT
HETATM    1  C6  UNL     1      22.468   2.797  50.893  1.00  0.00     0.362 C 
HETATM    2  O1  UNL     1      22.883   3.928  50.366  1.00  0.00    -0.158 OA
HETATM    3  N1  UNL     1      22.936   1.572  51.672  1.00  0.00     0.360 N 
HETATM    4  N2  UNL     1      23.110   0.360  52.369  1.00  0.00     0.211 NA
HETATM    5  C7  UNL     1      24.354   0.322  52.817  1.00  0.00     0.391 A 
HETATM    6  N3  UNL     1      23.554   0.984  52.191  1.00  0.00     0.364 N 
HETATM    7  C8  UNL     1      24.147   2.124  51.790  1.00  0.00     0.535 A 
HETATM    8  N4  UNL     1      25.285   3.031  51.683  1.00  0.00    -0.206 NA
HETATM    9  C9  UNL     1      26.561   2.677  51.395  1.00  0.00     0.123 C 
HETATM   10  C10 UNL     1      27.340   1.670  52.196  1.00  0.00     0.063 C 
HETATM   11  C11 UNL     1      26.953   0.621  52.976  1.00  0.00     0.149 C 
HETATM   12  N6  UNL     1      25.631   0.231  53.304  1.00  0.00    -0.304 N 
HETATM   13  C12 UNL     1      25.212  -0.473  54.439  1.00  0.00     0.160 C 
ENDROOT
BRANCH   1  14
HETATM   14  C5  UNL     1      21.042   2.788  50.587  1.00  0.00     0.077 A 
HETATM   15  C2  UNL     1      20.284   2.253  49.573  1.00  0.00    -0.040 A 
HETATM   16  C1  UNL     1      21.029   1.572  48.497  1.00  0.00     0.049 C 
HETATM   17  C3  UNL     1      18.932   2.392  49.584  1.00  0.00     0.015 A 
HETATM   18  C4  UNL     1      18.369   3.122  50.701  1.00  0.00     0.051 A 
HETATM   19  S1  UNL     1      19.818   3.580  51.698  1.00  0.00    -0.097 SA
ENDBRANCH   1  14
BRANCH  11  20
HETATM   20  S2  UNL     1      28.013  -0.451  53.734  1.00  0.00     0.255 S 
HETATM   21  O2  UNL     1      29.426  -0.013  53.295  1.00  0.00    -0.205 OA
HETATM   22  O3  UNL     1      28.042  -0.320  55.198  1.00  0.00    -0.205 OA
BRANCH  20  23
HETATM   23  N5  UNL     1      27.901  -2.083  53.179  1.00  0.00    -0.224 NA
HETATM   24  H8  UNL     1      27.378  -2.688  53.833  1.00  0.00     0.136 HD
HETATM   25  H9  UNL     1      27.450  -2.119  52.259  1.00  0.00     0.136 HD
ENDBRANCH  20  23
ENDBRANCH  11  20
TORSDOF 3
ENDMDL
MODEL 6
REMARK VINA RESULT:      -7.1      2.345      7.184
REMARK  3 active torsions:
REMARK  status: ('A' for Active; 'I' for Inactive)
REMARK    1  A    between atoms: C5_6  and  C6_7 
REMARK       I    between atoms: C6_7  and  N1_9 
REMARK    2  A    between atoms: C11_17  and  S2_18 
REMARK    3  A    between atoms: S2_18  and  N5_19 
ROOT
HETATM    1  C6  UNL     1      21.247   0.956  51.656  1.00  0.00     0.362 C 
HETATM    2  O1  UNL     1      20.537   0.015  52.239  1.00  0.00    -0.158 OA
HETATM    3  N1  UNL     1      22.654   1.534  51.554  1.00  0.00     0.360 N 
HETATM    4  N2  UNL     1      23.841   2.247  51.292  1.00  0.00     0.211 NA
HETATM    5  C7  UNL     1      24.836   1.623  51.902  1.00  0.00     0.391 A 
HETATM    6  N3  UNL     1      23.642   1.602  51.695  1.00  0.00     0.364 N 
HETATM    7  C8  UNL     1      23.106   0.538  52.323  1.00  0.00     0.535 A 
HETATM    8  N4  UNL     1      23.184  -0.651  53.165  1.00  0.00    -0.206 NA
HETATM    9  C9  UNL     1      23.887  -0.764  54.319  1.00  0.00     0.123 C 
HETATM   10  C10 UNL     1      25.365  -0.504  54.415  1.00  0.00     0.063 C 
HETATM   11  C11 UNL     1      26.210   0.268  53.675  1.00  0.00     0.149 C 
HETATM   12  N6  UNL     1      25.901   1.017  52.512  1.00  0.00    -0.304 N 
HETATM   13  C12 UNL     1      26.777   1.385  51.485  1.00  0.00     0.160 C 
ENDROOT
BRANCH   1  14
HETATM   14  C5  UNL     1      20.269   1.643  50.820  1.00  0.00     0.077 A 
HETATM   15  C2  UNL     1      20.135   1.836  49.465  1.00  0.00    -0.040 A 
HETATM   16  C1  UNL     1      21.221   1.297  48.623  1.00  0.00     0.049 C 
HETATM   17  C3  UNL     1      19.066   2.515  48.974  1.00  0.00     0.015 A 
HETATM   18  C4  UNL     1      18.113   3.005  49.948  1.00  0.00     0.051 A 
HETATM   19  S1  UNL     1      18.798   2.465  51.541  1.00  0.00    -0.097 SA
ENDBRANCH   1  14
BRANCH  11  20
HETATM   20  S2  UNL     1      27.850   0.486  54.011  1.00  0.00     0.255 S 
HETATM   21  O2  UNL     1      28.074  -0.147  55.401  1.00  0.00    -0.205 OA
HETATM   22  O3  UNL     1      28.742  -0.279  53.128  1.00  0.00    -0.205 OA
BRANCH  20  23
HETATM   23  N5  UNL     1      28.325   2.132  54.231  1.00  0.00    -0.224 NA
HETATM   24  H8  UNL     1      29.352   2.248  54.247  1.00  0.00     0.136 HD
HETATM   25  H9  UNL     1      27.935   2.721  53.487  1.00  0.00     0.136 HD
ENDBRANCH  20  23
ENDBRANCH  11  20
TORSDOF 3
ENDMDL
MODEL 7
REMARK VINA RESULT:      -6.8      7.529      9.339
REMARK  3 active torsions:
REMARK  status: ('A' for Active; 'I' for Inactive)
REMARK    1  A    between atoms: C5_6  and  C6_7 
REMARK       I    between atoms: C6_7  and  N1_9 
REMARK    2  A    between atoms: C11_17  and  S2_18 
REMARK    3  A    between atoms: S2_18  and  N5_19 
ROOT
HETATM    1  C6  UNL     1      25.754   3.776  49.981  1.00  0.00     0.362 C 
HETATM    2  O1  UNL     1      26.524   2.836  49.481  1.00  0.00    -0.158 OA
HETATM    3  N1  UNL     1      25.582   5.288  50.075  1.00  0.00     0.360 N 
HETATM    4  N2  UNL     1      25.207   6.626  50.313  1.00  0.00     0.211 NA
HETATM    5  C7  UNL     1      26.015   7.407  49.615  1.00  0.00     0.391 A 
HETATM    6  N3  UNL     1      25.754   6.255  49.887  1.00  0.00     0.364 N 
HETATM    7  C8  UNL     1      26.610   5.445  49.236  1.00  0.00     0.535 A 
HETATM    8  N4  UNL     1      27.740   5.190  48.348  1.00  0.00    -0.206 NA
HETATM    9  C9  UNL     1      28.919   5.858  48.350  1.00  0.00     0.123 C 
HETATM   10  C10 UNL     1      29.026   7.349  48.183  1.00  0.00     0.063 C 
HETATM   11  C11 UNL     1      28.157   8.365  48.447  1.00  0.00     0.149 C 
HETATM   12  N6  UNL     1      26.821   8.261  48.912  1.00  0.00    -0.304 N 
HETATM   13  C12 UNL     1      25.784   9.180  48.719  1.00  0.00     0.160 C 
ENDROOT
BRANCH   1  14
HETATM   14  C5  UNL     1      24.712   3.024  50.673  1.00  0.00     0.077 A 
HETATM   15  C2  UNL     1      23.492   2.515  50.299  1.00  0.00    -0.040 A 
HETATM   16  C1  UNL     1      23.061   2.810  48.919  1.00  0.00     0.049 C 
HETATM   17  C3  UNL     1      22.743   1.811  51.189  1.00  0.00     0.015 A 
HETATM   18  C4  UNL     1      23.305   1.646  52.513  1.00  0.00     0.051 A 
HETATM   19  S1  UNL     1      24.899   2.514  52.423  1.00  0.00    -0.097 SA
ENDBRANCH   1  14
BRANCH  11  20
HETATM   20  S2  UNL     1      28.513  10.004  48.260  1.00  0.00     0.255 S 
HETATM   21  O2  UNL     1      30.047  10.076  48.095  1.00  0.00    -0.205 OA
HETATM   22  O3  UNL     1      27.998  10.583  47.011  1.00  0.00    -0.205 OA
BRANCH  20  23
HETATM   23  N5  UNL     1      28.208  10.970  49.659  1.00  0.00    -0.224 NA
HETATM   24  H8  UNL     1      27.541  10.523  50.310  1.00  0.00     0.136 HD
HETATM   25  H9  UNL     1      29.082  11.164  50.158  1.00  0.00     0.136 HD
ENDBRANCH  20  23
ENDBRANCH  11  20
TORSDOF 3
ENDMDL
MODEL 8
REMARK VINA RESULT:      -6.8     10.677     12.257
REMARK  3 active torsions:
REMARK  status: ('A' for Active; 'I' for Inactive)
REMARK    1  A    between atoms: C5_6  and  C6_7 
REMARK       I    between atoms: C6_7  and  N1_9 
REMARK    2  A    between atoms: C11_17  and  S2_18 
REMARK    3  A    between atoms: S2_18  and  N5_19 
ROOT
HETATM    1  C6  UNL     1      33.165   6.679  46.624  1.00  0.00     0.362 C 
HETATM    2  O1  UNL     1      33.879   7.566  45.967  1.00  0.00    -0.158 OA
HETATM    3  N1  UNL     1      31.888   6.504  47.438  1.00  0.00     0.360 N 
HETATM    4  N2  UNL     1      30.789   6.086  48.215  1.00  0.00     0.211 NA
HETATM    5  C7  UNL     1      29.948   7.102  48.313  1.00  0.00     0.391 A 
HETATM    6  N3  UNL     1      31.009   6.746  47.848  1.00  0.00     0.364 N 
HETATM    7  C8  UNL     1      31.554   7.769  47.164  1.00  0.00     0.535 A 
HETATM    8  N4  UNL     1      31.568   9.141  46.665  1.00  0.00    -0.206 NA
HETATM    9  C9  UNL     1      31.237  10.248  47.374  1.00  0.00     0.123 C 
HETATM   10  C10 UNL     1      29.908  10.427  48.055  1.00  0.00     0.063 C 
HETATM   11  C11 UNL     1      28.995   9.534  48.533  1.00  0.00     0.149 C 
HETATM   12  N6  UNL     1      29.041   8.120  48.444  1.00  0.00    -0.304 N 
HETATM   13  C12 UNL     1      27.957   7.235  48.458  1.00  0.00     0.160 C 
ENDROOT
BRANCH   1  14
HETATM   14  C5  UNL     1      33.932   5.448  46.465  1.00  0.00     0.077 A 
HETATM   15  C2  UNL     1      34.707   4.687  47.309  1.00  0.00    -0.040 A 
HETATM   16  C1  UNL     1      34.883   5.212  48.677  1.00  0.00     0.049 C 
HETATM   17  C3  UNL     1      35.283   3.542  46.860  1.00  0.00     0.015 A 
HETATM   18  C4  UNL     1      35.032   3.195  45.477  1.00  0.00     0.051 A 
HETATM   19  S1  UNL     1      33.969   4.539  44.874  1.00  0.00    -0.097 SA
ENDBRANCH   1  14
BRANCH  11  20
HETATM   20  S2  UNL     1      27.581   9.956  49.350  1.00  0.00     0.255 S 
HETATM   21  O2  UNL     1      27.563  11.499  49.375  1.00  0.00    -0.205 OA
HETATM   22  O3  UNL     1      26.351   9.602  48.627  1.00  0.00    -0.205 OA
BRANCH  20  23
HETATM   23  N5  UNL     1      27.559   9.521  51.022  1.00  0.00    -0.224 NA
HETATM   24  H8  UNL     1      26.645   9.146  51.321  1.00  0.00     0.136 HD
HETATM   25  H9  UNL     1      28.286   8.825  51.221  1.00  0.00     0.136 HD
ENDBRANCH  20  23
ENDBRANCH  11  20
TORSDOF 3
ENDMDL
MODEL 9
REMARK VINA RESULT:      -6.7      4.657      5.995
REMARK  3 active torsions:
REMARK  status: ('A' for Active; 'I' for Inactive)
REMARK    1  A    between atoms: C5_6  and  C6_7 
REMARK       I    between atoms: C6_7  and  N1_9 
REMARK    2  A    between atoms: C11_17  and  S2_18 
REMARK    3  A    between atoms: S2_18  and  N5_19 
ROOT
HETATM    1  C6  UNL     1      25.246   1.089  52.463  1.00  0.00     0.362 C 
HETATM    2  O1  UNL     1      26.097   0.354  51.782  1.00  0.00    -0.158 OA
HETATM    3  N1  UNL     1      24.582   2.461  52.502  1.00  0.00     0.360 N 
HETATM    4  N2  UNL     1      23.849   3.636  52.764  1.00  0.00     0.211 NA
HETATM    5  C7  UNL     1      24.048   4.474  51.759  1.00  0.00     0.391 A 
HETATM    6  N3  UNL     1      24.324   3.376  52.193  1.00  0.00     0.364 N 
HETATM    7  C8  UNL     1      25.152   2.759  51.331  1.00  0.00     0.535 A 
HETATM    8  N4  UNL     1      25.945   2.695  50.107  1.00  0.00    -0.206 NA
HETATM    9  C9  UNL     1      26.737   3.681  49.620  1.00  0.00     0.123 C 
HETATM   10  C10 UNL     1      26.239   5.067  49.317  1.00  0.00     0.063 C 
HETATM   11  C11 UNL     1      25.198   5.796  49.810  1.00  0.00     0.149 C 
HETATM   12  N6  UNL     1      24.218   5.378  50.745  1.00  0.00    -0.304 N 
HETATM   13  C12 UNL     1      22.917   5.873  50.886  1.00  0.00     0.160 C 
ENDROOT
BRANCH   1  14
HETATM   14  C5  UNL     1      24.831   0.205  53.546  1.00  0.00     0.077 A 
HETATM   15  C2  UNL     1      25.434  -0.251  54.693  1.00  0.00    -0.040 A 
HETATM   16  C1  UNL     1      26.834   0.170  54.902  1.00  0.00     0.049 C 
HETATM   17  C3  UNL     1      24.757  -1.065  55.544  1.00  0.00     0.015 A 
HETATM   18  C4  UNL     1      23.401  -1.407  55.165  1.00  0.00     0.051 A 
HETATM   19  S1  UNL     1      23.155  -0.535  53.590  1.00  0.00    -0.097 SA
ENDBRANCH   1  14
BRANCH  11  20
HETATM   20  S2  UNL     1      24.859   7.393  49.383  1.00  0.00     0.255 S 
HETATM   21  O2  UNL     1      26.066   7.860  48.542  1.00  0.00    -0.205 OA
HETATM   22  O3  UNL     1      23.718   7.532  48.467  1.00  0.00    -0.205 OA
BRANCH  20  23
HETATM   23  N5  UNL     1      24.832   8.500  50.709  1.00  0.00    -0.224 NA
HETATM   24  H8  UNL     1      23.992   9.101  50.705  1.00  0.00     0.136 HD
HETATM   25  H9  UNL     1      24.876   7.994  51.600  1.00  0.00     0.136 HD
ENDBRANCH  20  23
ENDBRANCH  11  20
TORSDOF 3
ENDMDL
