MODEL 1
REMARK VINA RESULT:      -6.3      0.000      0.000
REMARK  9 active torsions:
REMARK  status: ('A' for Active; 'I' for Inactive)
REMARK    1  A    between atoms: C2_2  and  C3_3 
REMARK    2  A    between atoms: C2_2  and  N4_12 
REMARK    3  A    between atoms: C3_3  and  C4_4 
REMARK    4  A    between atoms: N1_6  and  C6_7 
REMARK    5  A    between atoms: C6_7  and  C7_8 
REMARK    6  A    between atoms: N4_12  and  C8_13 
REMARK    7  A    between atoms: C8_13  and  C10_15 
REMARK    8  A    between atoms: C11_17  and  N5_18 
REMARK    9  A    between atoms: N5_18  and  C12_19 
ROOT
HETATM    1  C12 UNL     1      25.450   5.160  49.612  1.00  0.00     0.098 C 
HETATM    2  C13 UNL     1      26.429   4.311  49.330  1.00  0.00     0.110 C 
HETATM    3  C14 UNL     1      26.601   3.264  50.307  1.00  0.00     0.089 C 
HETATM    4  N6  UNL     1      26.759   2.409  51.097  1.00  0.00    -0.192 NA
ENDROOT
BRANCH   1   5
HETATM    5  N5  UNL     1      25.109   4.473  50.832  1.00  0.00    -0.373 N 
HETATM    6  H14 UNL     1      25.727   3.755  51.270  1.00  0.00     0.164 HD
BRANCH   5   7
HETATM    7  C11 UNL     1      23.859   4.850  51.398  1.00  0.00     0.113 C 
HETATM    8  C10 UNL     1      22.948   3.936  51.647  1.00  0.00     0.082 C 
HETATM    9 CL1  UNL     1      21.400   4.314  52.335  1.00  0.00    -0.081 Cl
BRANCH   8  10
HETATM   10  C8  UNL     1      23.141   2.516  51.374  1.00  0.00     0.138 C 
HETATM   11  C9  UNL     1      22.809   1.851  50.255  1.00  0.00     0.442 C 
BRANCH  10  12
HETATM   12  N4  UNL     1      23.662   1.350  52.002  1.00  0.00    -0.068 N 
HETATM   13  H10 UNL     1      24.622   0.908  51.899  1.00  0.00     0.273 HD
BRANCH  12  14
HETATM   14  C2  UNL     1      23.130   0.404  52.941  1.00  0.00     0.097 C 
HETATM   15  C1  UNL     1      22.002   0.731  53.578  1.00  0.00     0.045 C 
BRANCH  14  16
HETATM   16  C3  UNL     1      23.798  -0.888  53.202  1.00  0.00     0.125 C 
BRANCH  16  17
HETATM   17  C4  UNL     1      25.026  -0.646  53.970  1.00  0.00     0.074 A 
HETATM   18  C5  UNL     1      26.226  -0.182  53.444  1.00  0.00     0.137 A 
HETATM   19  N1  UNL     1      27.057  -0.115  54.507  1.00  0.00    -0.281 N 
HETATM   20  N2  UNL     1      26.425  -0.506  55.600  1.00  0.00     0.004 NA
HETATM   21  N3  UNL     1      25.167  -0.839  55.295  1.00  0.00    -0.163 NA
BRANCH  19  22
HETATM   22  C6  UNL     1      28.437   0.331  54.390  1.00  0.00     0.177 C 
BRANCH  22  23
HETATM   23  C7  UNL     1      29.137  -0.611  53.418  1.00  0.00     0.243 C 
HETATM   24  F1  UNL     1      30.427  -0.792  53.898  1.00  0.00    -0.254 F 
ENDBRANCH  22  23
ENDBRANCH  19  22
ENDBRANCH  16  17
ENDBRANCH  14  16
ENDBRANCH  12  14
ENDBRANCH  10  12
ENDBRANCH   8  10
ENDBRANCH   5   7
ENDBRANCH   1   5
TORSDOF 9
ENDMDL
MODEL 2
REMARK VINA RESULT:      -6.2      1.703      4.155
REMARK  9 active torsions:
REMARK  status: ('A' for Active; 'I' for Inactive)
REMARK    1  A    between atoms: C2_2  and  C3_3 
REMARK    2  A    between atoms: C2_2  and  N4_12 
REMARK    3  A    between atoms: C3_3  and  C4_4 
REMARK    4  A    between atoms: N1_6  and  C6_7 
REMARK    5  A    between atoms: C6_7  and  C7_8 
REMARK    6  A    between atoms: N4_12  and  C8_13 
REMARK    7  A    between atoms: C8_13  and  C10_15 
REMARK    8  A    between atoms: C11_17  and  N5_18 
REMARK    9  A    between atoms: N5_18  and  C12_19 
ROOT
HETATM    1  C12 UNL     1      20.945  -0.281  54.641  1.00  0.00     0.098 C 
HETATM    2  C13 UNL     1      22.034  -1.009  54.846  1.00  0.00     0.110 C 
HETATM    3  C14 UNL     1      23.126  -0.695  53.957  1.00  0.00     0.089 C 
HETATM    4  N6  UNL     1      24.024  -0.458  53.237  1.00  0.00    -0.192 NA
ENDROOT
BRANCH   1   5
HETATM    5  N5  UNL     1      21.550   0.454  53.560  1.00  0.00    -0.373 N 
HETATM    6  H14 UNL     1      22.391   0.113  53.044  1.00  0.00     0.164 HD
BRANCH   5   7
HETATM    7  C11 UNL     1      20.913   1.687  53.247  1.00  0.00     0.113 C 
HETATM    8  C10 UNL     1      21.249   2.343  52.159  1.00  0.00     0.082 C 
HETATM    9 CL1  UNL     1      20.520   3.853  51.708  1.00  0.00    -0.081 Cl
BRANCH   8  10
HETATM   10  C8  UNL     1      22.263   1.876  51.221  1.00  0.00     0.138 C 
HETATM   11  C9  UNL     1      22.062   1.220  50.066  1.00  0.00     0.442 C 
BRANCH  10  12
HETATM   12  N4  UNL     1      23.678   1.868  51.066  1.00  0.00    -0.068 N 
HETATM   13  H10 UNL     1      24.327   1.045  50.896  1.00  0.00     0.273 HD
BRANCH  12  14
HETATM   14  C2  UNL     1      24.685   2.891  51.077  1.00  0.00     0.097 C 
HETATM   15  C1  UNL     1      24.276   4.162  51.100  1.00  0.00     0.045 C 
BRANCH  14  16
HETATM   16  C3  UNL     1      26.125   2.560  51.064  1.00  0.00     0.125 C 
BRANCH  16  17
HETATM   17  C4  UNL     1      26.520   2.088  52.397  1.00  0.00     0.074 A 
HETATM   18  C5  UNL     1      27.646   1.323  52.680  1.00  0.00     0.137 A 
HETATM   19  N1  UNL     1      27.598   1.133  54.017  1.00  0.00    -0.281 N 
HETATM   20  N2  UNL     1      26.532   1.729  54.520  1.00  0.00     0.004 NA
HETATM   21  N3  UNL     1      25.849   2.328  53.540  1.00  0.00    -0.163 NA
BRANCH  19  22
HETATM   22  C6  UNL     1      28.609   0.369  54.731  1.00  0.00     0.177 C 
BRANCH  22  23
HETATM   23  C7  UNL     1      29.046  -0.771  53.819  1.00  0.00     0.243 C 
HETATM   24  F1  UNL     1      30.377  -0.541  53.502  1.00  0.00    -0.254 F 
ENDBRANCH  22  23
ENDBRANCH  19  22
ENDBRANCH  16  17
ENDBRANCH  14  16
ENDBRANCH  12  14
ENDBRANCH  10  12
ENDBRANCH   8  10
ENDBRANCH   5   7
ENDBRANCH   1   5
TORSDOF 9
ENDMDL
MODEL 3
REMARK VINA RESULT:      -6.0      2.360      3.392
REMARK  9 active torsions:
REMARK  status: ('A' for Active; 'I' for Inactive)
REMARK    1  A    between atoms: C2_2  and  C3_3 
REMARK    2  A    between atoms: C2_2  and  N4_12 
REMARK    3  A    between atoms: C3_3  and  C4_4 
REMARK    4  A    between atoms: N1_6  and  C6_7 
REMARK    5  A    between atoms: C6_7  and  C7_8 
REMARK    6  A    between atoms: N4_12  and  C8_13 
REMARK    7  A    between atoms: C8_13  and  C10_15 
REMARK    8  A    between atoms: C11_17  and  N5_18 
REMARK    9  A    between atoms: N5_18  and  C12_19 
ROOT
HETATM    1  C12 UNL     1      23.260   7.331  50.076  1.00  0.00     0.098 C 
HETATM    2  C13 UNL     1      22.129   7.037  50.704  1.00  0.00     0.110 C 
HETATM    3  C14 UNL     1      22.186   5.821  51.479  1.00  0.00     0.089 C 
HETATM    4  N6  UNL     1      22.213   4.831  52.110  1.00  0.00    -0.192 NA
ENDROOT
BRANCH   1   5
HETATM    5  N5  UNL     1      23.932   6.162  50.585  1.00  0.00    -0.373 N 
HETATM    6  H14 UNL     1      23.499   5.519  51.284  1.00  0.00     0.164 HD
BRANCH   5   7
HETATM    7  C11 UNL     1      25.237   5.950  50.060  1.00  0.00     0.113 C 
HETATM    8  C10 UNL     1      25.610   4.744  49.695  1.00  0.00     0.082 C 
HETATM    9 CL1  UNL     1      27.184   4.403  49.047  1.00  0.00    -0.081 Cl
BRANCH   8  10
HETATM   10  C8  UNL     1      24.747   3.573  49.794  1.00  0.00     0.138 C 
HETATM   11  C9  UNL     1      23.626   3.328  49.096  1.00  0.00     0.442 C 
BRANCH  10  12
HETATM   12  N4  UNL     1      24.656   2.348  50.514  1.00  0.00    -0.068 N 
HETATM   13  H10 UNL     1      24.866   1.362  50.183  1.00  0.00     0.273 HD
BRANCH  12  14
HETATM   14  C2  UNL     1      24.277   2.011  51.857  1.00  0.00     0.097 C 
HETATM   15  C1  UNL     1      23.291   1.125  52.018  1.00  0.00     0.045 C 
BRANCH  14  16
HETATM   16  C3  UNL     1      24.946   2.617  53.025  1.00  0.00     0.125 C 
BRANCH  16  17
HETATM   17  C4  UNL     1      26.297   2.054  53.150  1.00  0.00     0.074 A 
HETATM   18  C5  UNL     1      26.701   1.136  54.112  1.00  0.00     0.137 A 
HETATM   19  N1  UNL     1      28.006   0.912  53.837  1.00  0.00    -0.281 N 
HETATM   20  N2  UNL     1      28.377   1.631  52.793  1.00  0.00     0.004 NA
HETATM   21  N3  UNL     1      27.339   2.346  52.349  1.00  0.00    -0.163 NA
BRANCH  19  22
HETATM   22  C6  UNL     1      28.820  -0.003  54.622  1.00  0.00     0.177 C 
BRANCH  22  23
HETATM   23  C7  UNL     1      29.861  -0.602  53.685  1.00  0.00     0.243 C 
HETATM   24  F1  UNL     1      29.210  -1.569  52.932  1.00  0.00    -0.254 F 
ENDBRANCH  22  23
ENDBRANCH  19  22
ENDBRANCH  16  17
ENDBRANCH  14  16
ENDBRANCH  12  14
ENDBRANCH  10  12
ENDBRANCH   8  10
ENDBRANCH   5   7
ENDBRANCH   1   5
TORSDOF 9
ENDMDL
MODEL 4
REMARK VINA RESULT:      -5.9      2.934      6.202
REMARK  9 active torsions:
REMARK  status: ('A' for Active; 'I' for Inactive)
REMARK    1  A    between atoms: C2_2  and  C3_3 
REMARK    2  A    between atoms: C2_2  and  N4_12 
REMARK    3  A    between atoms: C3_3  and  C4_4 
REMARK    4  A    between atoms: N1_6  and  C6_7 
REMARK    5  A    between atoms: C6_7  and  C7_8 
REMARK    6  A    between atoms: N4_12  and  C8_13 
REMARK    7  A    between atoms: C8_13  and  C10_15 
REMARK    8  A    between atoms: C11_17  and  N5_18 
REMARK    9  A    between atoms: N5_18  and  C12_19 
ROOT
HETATM    1  C12 UNL     1      26.667  -1.260  52.907  1.00  0.00     0.098 C 
HETATM    2  C13 UNL     1      27.812  -0.642  53.167  1.00  0.00     0.110 C 
HETATM    3  C14 UNL     1      27.654   0.654  53.782  1.00  0.00     0.089 C 
HETATM    4  N6  UNL     1      27.544   1.714  54.276  1.00  0.00    -0.192 NA
ENDROOT
BRANCH   1   5
HETATM    5  N5  UNL     1      25.878  -0.178  53.438  1.00  0.00    -0.373 N 
HETATM    6  H14 UNL     1      26.298   0.716  53.778  1.00  0.00     0.164 HD
BRANCH   5   7
HETATM    7  C11 UNL     1      24.477  -0.420  53.466  1.00  0.00     0.113 C 
HETATM    8  C10 UNL     1      23.645   0.478  52.989  1.00  0.00     0.082 C 
HETATM    9 CL1  UNL     1      21.923   0.258  52.987  1.00  0.00    -0.081 Cl
BRANCH   8  10
HETATM   10  C8  UNL     1      24.077   1.747  52.414  1.00  0.00     0.138 C 
HETATM   11  C9  UNL     1      24.208   2.924  53.049  1.00  0.00     0.442 C 
BRANCH  10  12
HETATM   12  N4  UNL     1      24.493   2.288  51.166  1.00  0.00    -0.068 N 
HETATM   13  H10 UNL     1      25.442   2.225  50.694  1.00  0.00     0.273 HD
BRANCH  12  14
HETATM   14  C2  UNL     1      23.838   3.062  50.150  1.00  0.00     0.097 C 
HETATM   15  C1  UNL     1      22.940   2.442  49.380  1.00  0.00     0.045 C 
BRANCH  14  16
HETATM   16  C3  UNL     1      24.140   4.495  49.954  1.00  0.00     0.125 C 
BRANCH  16  17
HETATM   17  C4  UNL     1      25.522   4.633  49.477  1.00  0.00     0.074 A 
HETATM   18  C5  UNL     1      26.090   5.801  48.982  1.00  0.00     0.137 A 
HETATM   19  N1  UNL     1      27.359   5.454  48.673  1.00  0.00    -0.281 N 
HETATM   20  N2  UNL     1      27.560   4.179  48.953  1.00  0.00     0.004 NA
HETATM   21  N3  UNL     1      26.440   3.648  49.453  1.00  0.00    -0.163 NA
BRANCH  19  22
HETATM   22  C6  UNL     1      28.311   6.402  48.114  1.00  0.00     0.177 C 
BRANCH  22  23
HETATM   23  C7  UNL     1      29.664   5.705  48.054  1.00  0.00     0.243 C 
HETATM   24  F1  UNL     1      30.406   6.357  47.079  1.00  0.00    -0.254 F 
ENDBRANCH  22  23
ENDBRANCH  19  22
ENDBRANCH  16  17
ENDBRANCH  14  16
ENDBRANCH  12  14
ENDBRANCH  10  12
ENDBRANCH   8  10
ENDBRANCH   5   7
ENDBRANCH   1   5
TORSDOF 9
ENDMDL
MODEL 5
REMARK VINA RESULT:      -5.9      2.244      3.442
REMARK  9 active torsions:
REMARK  status: ('A' for Active; 'I' for Inactive)
REMARK    1  A    between atoms: C2_2  and  C3_3 
REMARK    2  A    between atoms: C2_2  and  N4_12 
REMARK    3  A    between atoms: C3_3  and  C4_4 
REMARK    4  A    between atoms: N1_6  and  C6_7 
REMARK    5  A    between atoms: C6_7  and  C7_8 
REMARK    6  A    between atoms: N4_12  and  C8_13 
REMARK    7  A    between atoms: C8_13  and  C10_15 
REMARK    8  A    between atoms: C11_17  and  N5_18 
REMARK    9  A    between atoms: N5_18  and  C12_19 
ROOT
HETATM    1  C12 UNL     1      21.457   5.055  49.228  1.00  0.00     0.098 C 
HETATM    2  C13 UNL     1      20.901   3.893  49.545  1.00  0.00     0.110 C 
HETATM    3  C14 UNL     1      21.806   2.771  49.481  1.00  0.00     0.089 C 
HETATM    4  N6  UNL     1      22.527   1.845  49.427  1.00  0.00    -0.192 NA
ENDROOT
BRANCH   1   5
HETATM    5  N5  UNL     1      22.745   4.455  48.987  1.00  0.00    -0.373 N 
HETATM    6  H14 UNL     1      22.925   3.433  49.100  1.00  0.00     0.164 HD
BRANCH   5   7
HETATM    7  C11 UNL     1      23.760   5.367  48.582  1.00  0.00     0.113 C 
HETATM    8  C10 UNL     1      24.981   5.241  49.050  1.00  0.00     0.082 C 
HETATM    9 CL1  UNL     1      26.274   6.311  48.606  1.00  0.00    -0.081 Cl
BRANCH   8  10
HETATM   10  C8  UNL     1      25.378   4.195  49.986  1.00  0.00     0.138 C 
HETATM   11  C9  UNL     1      26.070   3.076  49.709  1.00  0.00     0.442 C 
BRANCH  10  12
HETATM   12  N4  UNL     1      25.271   3.876  51.369  1.00  0.00    -0.068 N 
HETATM   13  H10 UNL     1      26.026   3.875  52.115  1.00  0.00     0.273 HD
BRANCH  12  14
HETATM   14  C2  UNL     1      24.184   3.468  52.213  1.00  0.00     0.097 C 
HETATM   15  C1  UNL     1      23.292   4.396  52.567  1.00  0.00     0.045 C 
BRANCH  14  16
HETATM   16  C3  UNL     1      24.049   2.073  52.680  1.00  0.00     0.125 C 
BRANCH  16  17
HETATM   17  C4  UNL     1      25.325   1.636  53.262  1.00  0.00     0.074 A 
HETATM   18  C5  UNL     1      25.924   0.400  53.052  1.00  0.00     0.137 A 
HETATM   19  N1  UNL     1      27.063   0.450  53.778  1.00  0.00    -0.281 N 
HETATM   20  N2  UNL     1      27.160   1.619  54.387  1.00  0.00     0.004 NA
HETATM   21  N3  UNL     1      26.098   2.371  54.084  1.00  0.00    -0.163 NA
BRANCH  19  22
HETATM   22  C6  UNL     1      28.000  -0.662  53.835  1.00  0.00     0.177 C 
BRANCH  22  23
HETATM   23  C7  UNL     1      29.404  -0.071  53.881  1.00  0.00     0.243 C 
HETATM   24  F1  UNL     1      30.142  -0.721  52.902  1.00  0.00    -0.254 F 
ENDBRANCH  22  23
ENDBRANCH  19  22
ENDBRANCH  16  17
ENDBRANCH  14  16
ENDBRANCH  12  14
ENDBRANCH  10  12
ENDBRANCH   8  10
ENDBRANCH   5   7
ENDBRANCH   1   5
TORSDOF 9
ENDMDL
MODEL 6
REMARK VINA RESULT:      -5.7      3.228      6.517
REMARK  9 active torsions:
REMARK  status: ('A' for Active; 'I' for Inactive)
REMARK    1  A    between atoms: C2_2  and  C3_3 
REMARK    2  A    between atoms: C2_2  and  N4_12 
REMARK    3  A    between atoms: C3_3  and  C4_4 
REMARK    4  A    between atoms: N1_6  and  C6_7 
REMARK    5  A    between atoms: C6_7  and  C7_8 
REMARK    6  A    between atoms: N4_12  and  C8_13 
REMARK    7  A    between atoms: C8_13  and  C10_15 
REMARK    8  A    between atoms: C11_17  and  N5_18 
REMARK    9  A    between atoms: N5_18  and  C12_19 
ROOT
HETATM    1  C12 UNL     1      27.332  -1.352  52.923  1.00  0.00     0.098 C 
HETATM    2  C13 UNL     1      28.548  -0.956  53.276  1.00  0.00     0.110 C 
HETATM    3  C14 UNL     1      28.562   0.077  54.283  1.00  0.00     0.089 C 
HETATM    4  N6  UNL     1      28.593   0.922  55.098  1.00  0.00    -0.192 NA
ENDROOT
BRANCH   1   5
HETATM    5  N5  UNL     1      26.692  -0.437  53.834  1.00  0.00    -0.373 N 
HETATM    6  H14 UNL     1      27.165   0.417  54.205  1.00  0.00     0.164 HD
BRANCH   5   7
HETATM    7  C11 UNL     1      25.361  -0.787  54.192  1.00  0.00     0.113 C 
HETATM    8  C10 UNL     1      24.352  -0.067  53.755  1.00  0.00     0.082 C 
HETATM    9 CL1  UNL     1      22.699  -0.428  54.147  1.00  0.00    -0.081 Cl
BRANCH   8  10
HETATM   10  C8  UNL     1      24.512   1.103  52.899  1.00  0.00     0.138 C 
HETATM   11  C9  UNL     1      24.901   2.335  53.270  1.00  0.00     0.442 C 
BRANCH  10  12
HETATM   12  N4  UNL     1      24.374   1.476  51.533  1.00  0.00    -0.068 N 
HETATM   13  H10 UNL     1      25.129   1.616  50.799  1.00  0.00     0.273 HD
BRANCH  12  14
HETATM   14  C2  UNL     1      23.250   1.780  50.694  1.00  0.00     0.097 C 
HETATM   15  C1  UNL     1      22.090   1.180  50.971  1.00  0.00     0.045 C 
BRANCH  14  16
HETATM   16  C3  UNL     1      23.362   2.722  49.561  1.00  0.00     0.125 C 
BRANCH  16  17
HETATM   17  C4  UNL     1      23.750   4.043  50.072  1.00  0.00     0.074 A 
HETATM   18  C5  UNL     1      24.728   4.863  49.523  1.00  0.00     0.137 A 
HETATM   19  N1  UNL     1      24.736   5.957  50.316  1.00  0.00    -0.281 N 
HETATM   20  N2  UNL     1      23.839   5.825  51.276  1.00  0.00     0.004 NA
HETATM   21  N3  UNL     1      23.215   4.650  51.148  1.00  0.00    -0.163 NA
BRANCH  19  22
HETATM   22  C6  UNL     1      25.632   7.080  50.085  1.00  0.00     0.177 C 
BRANCH  22  23
HETATM   23  C7  UNL     1      24.852   8.353  50.386  1.00  0.00     0.243 C 
HETATM   24  F1  UNL     1      24.423   8.856  49.165  1.00  0.00    -0.254 F 
ENDBRANCH  22  23
ENDBRANCH  19  22
ENDBRANCH  16  17
ENDBRANCH  14  16
ENDBRANCH  12  14
ENDBRANCH  10  12
ENDBRANCH   8  10
ENDBRANCH   5   7
ENDBRANCH   1   5
TORSDOF 9
ENDMDL
MODEL 7
REMARK VINA RESULT:      -5.6      3.144      6.676
REMARK  9 active torsions:
REMARK  status: ('A' for Active; 'I' for Inactive)
REMARK    1  A    between atoms: C2_2  and  C3_3 
REMARK    2  A    between atoms: C2_2  and  N4_12 
REMARK    3  A    between atoms: C3_3  and  C4_4 
REMARK    4  A    between atoms: N1_6  and  C6_7 
REMARK    5  A    between atoms: C6_7  and  C7_8 
REMARK    6  A    between atoms: N4_12  and  C8_13 
REMARK    7  A    between atoms: C8_13  and  C10_15 
REMARK    8  A    between atoms: C11_17  and  N5_18 
REMARK    9  A    between atoms: N5_18  and  C12_19 
ROOT
HETATM    1  C12 UNL     1      26.594  -1.212  52.551  1.00  0.00     0.098 C 
HETATM    2  C13 UNL     1      27.768  -1.001  53.131  1.00  0.00     0.110 C 
HETATM    3  C14 UNL     1      27.751   0.040  54.130  1.00  0.00     0.089 C 
HETATM    4  N6  UNL     1      27.758   0.890  54.942  1.00  0.00    -0.192 NA
ENDROOT
BRANCH   1   5
HETATM    5  N5  UNL     1      25.943  -0.189  53.330  1.00  0.00    -0.373 N 
HETATM    6  H14 UNL     1      26.467   0.572  53.816  1.00  0.00     0.164 HD
BRANCH   5   7
HETATM    7  C11 UNL     1      24.526  -0.295  53.388  1.00  0.00     0.113 C 
HETATM    8  C10 UNL     1      23.776   0.744  53.096  1.00  0.00     0.082 C 
HETATM    9 CL1  UNL     1      22.041   0.695  53.143  1.00  0.00    -0.081 Cl
BRANCH   8  10
HETATM   10  C8  UNL     1      24.318   2.040  52.704  1.00  0.00     0.138 C 
HETATM   11  C9  UNL     1      24.499   3.116  53.488  1.00  0.00     0.442 C 
BRANCH  10  12
HETATM   12  N4  UNL     1      24.828   2.700  51.551  1.00  0.00    -0.068 N 
HETATM   13  H10 UNL     1      24.327   3.351  50.878  1.00  0.00     0.273 HD
BRANCH  12  14
HETATM   14  C2  UNL     1      26.112   2.735  50.911  1.00  0.00     0.097 C 
HETATM   15  C1  UNL     1      27.194   2.633  51.688  1.00  0.00     0.045 C 
BRANCH  14  16
HETATM   16  C3  UNL     1      26.244   2.879  49.447  1.00  0.00     0.125 C 
BRANCH  16  17
HETATM   17  C4  UNL     1      26.775   4.214  49.142  1.00  0.00     0.074 A 
HETATM   18  C5  UNL     1      26.073   5.407  49.266  1.00  0.00     0.137 A 
HETATM   19  N1  UNL     1      26.953   6.358  48.880  1.00  0.00    -0.281 N 
HETATM   20  N2  UNL     1      28.103   5.799  48.545  1.00  0.00     0.004 NA
HETATM   21  N3  UNL     1      28.020   4.474  48.698  1.00  0.00    -0.163 NA
BRANCH  19  22
HETATM   22  C6  UNL     1      26.613   7.771  48.861  1.00  0.00     0.177 C 
BRANCH  22  23
HETATM   23  C7  UNL     1      26.299   8.182  50.294  1.00  0.00     0.243 C 
HETATM   24  F1  UNL     1      27.301   9.058  50.687  1.00  0.00    -0.254 F 
ENDBRANCH  22  23
ENDBRANCH  19  22
ENDBRANCH  16  17
ENDBRANCH  14  16
ENDBRANCH  12  14
ENDBRANCH  10  12
ENDBRANCH   8  10
ENDBRANCH   5   7
ENDBRANCH   1   5
TORSDOF 9
ENDMDL
MODEL 8
REMARK VINA RESULT:      -5.6      7.980      9.382
REMARK  9 active torsions:
REMARK  status: ('A' for Active; 'I' for Inactive)
REMARK    1  A    between atoms: C2_2  and  C3_3 
REMARK    2  A    between atoms: C2_2  and  N4_12 
REMARK    3  A    between atoms: C3_3  and  C4_4 
REMARK    4  A    between atoms: N1_6  and  C6_7 
REMARK    5  A    between atoms: C6_7  and  C7_8 
REMARK    6  A    between atoms: N4_12  and  C8_13 
REMARK    7  A    between atoms: C8_13  and  C10_15 
REMARK    8  A    between atoms: C11_17  and  N5_18 
REMARK    9  A    between atoms: N5_18  and  C12_19 
ROOT
HETATM    1  C12 UNL     1      25.038   8.302  48.203  1.00  0.00     0.098 C 
HETATM    2  C13 UNL     1      25.104   8.284  49.528  1.00  0.00     0.110 C 
HETATM    3  C14 UNL     1      26.226   9.010  50.071  1.00  0.00     0.089 C 
HETATM    4  N6  UNL     1      27.137   9.592  50.530  1.00  0.00    -0.192 NA
ENDROOT
BRANCH   1   5
HETATM    5  N5  UNL     1      26.228   9.106  48.083  1.00  0.00    -0.373 N 
HETATM    6  H14 UNL     1      26.578   9.718  48.852  1.00  0.00     0.164 HD
BRANCH   5   7
HETATM    7  C11 UNL     1      26.892   9.002  46.829  1.00  0.00     0.113 C 
HETATM    8  C10 UNL     1      27.980   8.271  46.720  1.00  0.00     0.082 C 
HETATM    9 CL1  UNL     1      28.848   8.094  45.227  1.00  0.00    -0.081 Cl
BRANCH   8  10
HETATM   10  C8  UNL     1      28.568   7.536  47.834  1.00  0.00     0.138 C 
HETATM   11  C9  UNL     1      28.413   6.232  48.119  1.00  0.00     0.442 C 
BRANCH  10  12
HETATM   12  N4  UNL     1      29.421   7.757  48.951  1.00  0.00    -0.068 N 
HETATM   13  H10 UNL     1      29.377   7.327  49.921  1.00  0.00     0.273 HD
BRANCH  12  14
HETATM   14  C2  UNL     1      30.577   8.579  49.172  1.00  0.00     0.097 C 
HETATM   15  C1  UNL     1      30.432   9.900  49.041  1.00  0.00     0.045 C 
BRANCH  14  16
HETATM   16  C3  UNL     1      31.885   7.994  49.532  1.00  0.00     0.125 C 
BRANCH  16  17
HETATM   17  C4  UNL     1      32.017   6.681  48.888  1.00  0.00     0.074 A 
HETATM   18  C5  UNL     1      32.514   6.457  47.609  1.00  0.00     0.137 A 
HETATM   19  N1  UNL     1      32.446   5.117  47.451  1.00  0.00    -0.281 N 
HETATM   20  N2  UNL     1      31.948   4.558  48.539  1.00  0.00     0.004 NA
HETATM   21  N3  UNL     1      31.675   5.503  49.444  1.00  0.00    -0.163 NA
BRANCH  19  22
HETATM   22  C6  UNL     1      32.876   4.455  46.229  1.00  0.00     0.177 C 
BRANCH  22  23
HETATM   23  C7  UNL     1      34.366   4.733  46.063  1.00  0.00     0.243 C 
HETATM   24  F1  UNL     1      34.999   4.188  47.171  1.00  0.00    -0.254 F 
ENDBRANCH  22  23
ENDBRANCH  19  22
ENDBRANCH  16  17
ENDBRANCH  14  16
ENDBRANCH  12  14
ENDBRANCH  10  12
ENDBRANCH   8  10
ENDBRANCH   5   7
ENDBRANCH   1   5
TORSDOF 9
ENDMDL
MODEL 9
REMARK VINA RESULT:      -5.6      2.303      3.244
REMARK  9 active torsions:
REMARK  status: ('A' for Active; 'I' for Inactive)
REMARK    1  A    between atoms: C2_2  and  C3_3 
REMARK    2  A    between atoms: C2_2  and  N4_12 
REMARK    3  A    between atoms: C3_3  and  C4_4 
REMARK    4  A    between atoms: N1_6  and  C6_7 
REMARK    5  A    between atoms: C6_7  and  C7_8 
REMARK    6  A    between atoms: N4_12  and  C8_13 
REMARK    7  A    between atoms: C8_13  and  C10_15 
REMARK    8  A    between atoms: C11_17  and  N5_18 
REMARK    9  A    between atoms: N5_18  and  C12_19 
ROOT
HETATM    1  C12 UNL     1      21.922   4.599  50.618  1.00  0.00     0.098 C 
HETATM    2  C13 UNL     1      20.696   4.092  50.602  1.00  0.00     0.110 C 
HETATM    3  C14 UNL     1      20.623   2.746  50.086  1.00  0.00     0.089 C 
HETATM    4  N6  UNL     1      20.544   1.653  49.662  1.00  0.00    -0.192 NA
ENDROOT
BRANCH   1   5
HETATM    5  N5  UNL     1      22.503   3.402  50.063  1.00  0.00    -0.373 N 
HETATM    6  H14 UNL     1      22.001   2.487  50.040  1.00  0.00     0.164 HD
BRANCH   5   7
HETATM    7  C11 UNL     1      23.818   3.563  49.546  1.00  0.00     0.113 C 
HETATM    8  C10 UNL     1      24.846   3.068  50.198  1.00  0.00     0.082 C 
HETATM    9 CL1  UNL     1      26.481   3.222  49.635  1.00  0.00    -0.081 Cl
BRANCH   8  10
HETATM   10  C8  UNL     1      24.723   2.341  51.456  1.00  0.00     0.138 C 
HETATM   11  C9  UNL     1      24.791   2.848  52.699  1.00  0.00     0.442 C 
BRANCH  10  12
HETATM   12  N4  UNL     1      24.512   1.014  51.928  1.00  0.00    -0.068 N 
HETATM   13  H10 UNL     1      25.029   0.123  51.669  1.00  0.00     0.273 HD
BRANCH  12  14
HETATM   14  C2  UNL     1      23.595   0.425  52.861  1.00  0.00     0.097 C 
HETATM   15  C1  UNL     1      22.304   0.752  52.752  1.00  0.00     0.045 C 
BRANCH  14  16
HETATM   16  C3  UNL     1      24.051  -0.511  53.910  1.00  0.00     0.125 C 
BRANCH  16  17
HETATM   17  C4  UNL     1      25.519  -0.542  53.917  1.00  0.00     0.074 A 
HETATM   18  C5  UNL     1      26.339   0.280  54.682  1.00  0.00     0.137 A 
HETATM   19  N1  UNL     1      27.594  -0.106  54.365  1.00  0.00    -0.281 N 
HETATM   20  N2  UNL     1      27.555  -1.084  53.478  1.00  0.00     0.004 NA
HETATM   21  N3  UNL     1      26.284  -1.374  53.185  1.00  0.00    -0.163 NA
BRANCH  19  22
HETATM   22  C6  UNL     1      28.771   0.514  54.954  1.00  0.00     0.177 C 
BRANCH  22  23
HETATM   23  C7  UNL     1      29.283   1.552  53.963  1.00  0.00     0.243 C 
HETATM   24  F1  UNL     1      28.322   2.552  53.901  1.00  0.00    -0.254 F 
ENDBRANCH  22  23
ENDBRANCH  19  22
ENDBRANCH  16  17
ENDBRANCH  14  16
ENDBRANCH  12  14
ENDBRANCH  10  12
ENDBRANCH   8  10
ENDBRANCH   5   7
ENDBRANCH   1   5
TORSDOF 9
ENDMDL
