MODEL 1
REMARK VINA RESULT:      -8.1      0.000      0.000
REMARK  7 active torsions:
REMARK  status: ('A' for Active; 'I' for Inactive)
REMARK    1  A    between atoms: C2_2  and  C3_3 
REMARK    2  A    between atoms: C2_2  and  N2_12 
REMARK    3  A    between atoms: C3_3  and  C4_4 
REMARK    4  A    between atoms: C4_4  and  N1_5 
REMARK    5  A    between atoms: N2_12  and  C9_13 
REMARK    6  A    between atoms: C15_19  and  N3_20 
REMARK    7  A    between atoms: N3_20  and  C16_21 
ROOT
HETATM    1  C9  UNL     1      23.779   2.622  50.102  1.00  0.00     0.033 A 
HETATM    2  C10 UNL     1      22.683   2.153  49.405  1.00  0.00     0.031 A 
HETATM    3  C11 UNL     1      22.186   2.993  48.451  1.00  0.00     0.022 A 
HETATM    4  C12 UNL     1      22.667   4.241  48.126  1.00  0.00     0.016 A 
HETATM    5  C13 UNL     1      23.761   4.658  48.853  1.00  0.00     0.029 A 
HETATM    6  C14 UNL     1      24.316   3.863  49.831  1.00  0.00     0.046 A 
HETATM    7  C15 UNL     1      24.314   5.971  48.550  1.00  0.00     0.135 A 
HETATM    8  N4  UNL     1      23.939   6.829  47.692  1.00  0.00    -0.262 NA
HETATM    9  C20 UNL     1      22.869   6.783  46.764  1.00  0.00     0.230 A 
HETATM   10  S1  UNL     1      21.915   5.247  46.844  1.00  0.00    -0.107 SA
ENDROOT
BRANCH   1  11
HETATM   11  N2  UNL     1      24.337   1.781  51.111  1.00  0.00    -0.363 N 
HETATM   12  H13 UNL     1      25.246   1.441  50.706  1.00  0.00     0.165 HD
BRANCH  11  13
HETATM   13  C2  UNL     1      23.653   1.576  52.339  1.00  0.00    -0.011 C 
HETATM   14  C1  UNL     1      22.644   2.279  52.832  1.00  0.00     0.058 C 
BRANCH  13  15
HETATM   15  C3  UNL     1      24.334   0.396  52.930  1.00  0.00     0.072 C 
BRANCH  15  16
HETATM   16  C4  UNL     1      25.743   0.262  52.389  1.00  0.00     0.131 C 
BRANCH  16  17
HETATM   17  N1  UNL     1      26.721   0.762  53.335  1.00  0.00    -0.348 N 
HETATM   18  C5  UNL     1      27.055   0.341  54.685  1.00  0.00     0.152 C 
HETATM   19  C6  UNL     1      28.549   0.403  54.808  1.00  0.00     0.188 C 
HETATM   20  O1  UNL     1      29.090   1.659  54.741  1.00  0.00    -0.380 OA
HETATM   21  C7  UNL     1      28.743   2.395  53.640  1.00  0.00     0.270 C 
HETATM   22  C8  UNL     1      27.537   1.869  52.929  1.00  0.00     0.243 C 
HETATM   23  O2  UNL     1      27.320   2.550  51.885  1.00  0.00    -0.271 OA
ENDBRANCH  16  17
ENDBRANCH  15  16
ENDBRANCH  13  15
ENDBRANCH  11  13
ENDBRANCH   1  11
BRANCH   7  24
HETATM   24  N3  UNL     1      25.459   6.412  49.312  1.00  0.00    -0.338 N 
HETATM   25  H17 UNL     1      25.367   6.803  50.290  1.00  0.00     0.167 HD
BRANCH  24  26
HETATM   26  C16 UNL     1      26.810   6.356  48.807  1.00  0.00     0.072 A 
HETATM   27  C17 UNL     1      27.856   7.037  48.363  1.00  0.00     0.036 A 
HETATM   28  C18 UNL     1      28.594   5.795  48.178  1.00  0.00     0.047 A 
HETATM   29  C19 UNL     1      27.543   5.111  48.625  1.00  0.00     0.143 A 
HETATM   30  F1  UNL     1      27.477   3.748  48.751  1.00  0.00    -0.204 F 
ENDBRANCH  24  26
ENDBRANCH   7  24
TORSDOF 7
ENDMDL
MODEL 2
REMARK VINA RESULT:      -8.1      2.311      3.206
REMARK  7 active torsions:
REMARK  status: ('A' for Active; 'I' for Inactive)
REMARK    1  A    between atoms: C2_2  and  C3_3 
REMARK    2  A    between atoms: C2_2  and  N2_12 
REMARK    3  A    between atoms: C3_3  and  C4_4 
REMARK    4  A    between atoms: C4_4  and  N1_5 
REMARK    5  A    between atoms: N2_12  and  C9_13 
REMARK    6  A    between atoms: C15_19  and  N3_20 
REMARK    7  A    between atoms: N3_20  and  C16_21 
ROOT
HETATM    1  C9  UNL     1      22.611   0.542  52.517  1.00  0.00     0.033 A 
HETATM    2  C10 UNL     1      21.236   0.421  52.489  1.00  0.00     0.031 A 
HETATM    3  C11 UNL     1      20.553   1.531  52.086  1.00  0.00     0.022 A 
HETATM    4  C12 UNL     1      21.097   2.738  51.711  1.00  0.00     0.016 A 
HETATM    5  C13 UNL     1      22.473   2.804  51.758  1.00  0.00     0.029 A 
HETATM    6  C14 UNL     1      23.228   1.722  52.155  1.00  0.00     0.046 A 
HETATM    7  C15 UNL     1      23.104   4.058  51.371  1.00  0.00     0.135 A 
HETATM    8  N4  UNL     1      22.575   5.144  50.982  1.00  0.00    -0.262 NA
HETATM    9  C20 UNL     1      21.209   5.480  50.802  1.00  0.00     0.230 A 
HETATM   10  S1  UNL     1      20.078   4.124  51.199  1.00  0.00    -0.107 SA
ENDROOT
BRANCH   1  11
HETATM   11  N2  UNL     1      23.373  -0.591  52.932  1.00  0.00    -0.363 N 
HETATM   12  H13 UNL     1      23.668  -1.059  52.038  1.00  0.00     0.165 HD
BRANCH  11  13
HETATM   13  C2  UNL     1      23.577  -0.857  54.313  1.00  0.00    -0.011 C 
HETATM   14  C1  UNL     1      22.692  -1.305  55.191  1.00  0.00     0.058 C 
BRANCH  13  15
HETATM   15  C3  UNL     1      25.005  -0.514  54.531  1.00  0.00     0.072 C 
BRANCH  15  16
HETATM   16  C4  UNL     1      25.853  -0.974  53.363  1.00  0.00     0.131 C 
BRANCH  16  17
HETATM   17  N1  UNL     1      26.829   0.033  52.992  1.00  0.00    -0.348 N 
HETATM   18  C5  UNL     1      26.790   1.085  51.991  1.00  0.00     0.152 C 
HETATM   19  C6  UNL     1      27.420   2.299  52.606  1.00  0.00     0.188 C 
HETATM   20  O1  UNL     1      28.757   2.192  52.878  1.00  0.00    -0.380 OA
HETATM   21  C7  UNL     1      29.119   1.116  53.644  1.00  0.00     0.270 C 
HETATM   22  C8  UNL     1      28.075   0.047  53.700  1.00  0.00     0.243 C 
HETATM   23  O2  UNL     1      28.446  -0.878  54.480  1.00  0.00    -0.271 OA
ENDBRANCH  16  17
ENDBRANCH  15  16
ENDBRANCH  13  15
ENDBRANCH  11  13
ENDBRANCH   1  11
BRANCH   7  24
HETATM   24  N3  UNL     1      24.546   4.130  51.422  1.00  0.00    -0.338 N 
HETATM   25  H17 UNL     1      25.102   3.717  52.222  1.00  0.00     0.167 HD
BRANCH  24  26
HETATM   26  C16 UNL     1      25.340   4.763  50.397  1.00  0.00     0.072 A 
HETATM   27  C17 UNL     1      25.679   5.896  49.799  1.00  0.00     0.036 A 
HETATM   28  C18 UNL     1      26.575   5.167  48.911  1.00  0.00     0.047 A 
HETATM   29  C19 UNL     1      26.234   4.029  49.513  1.00  0.00     0.143 A 
HETATM   30  F1  UNL     1      26.716   2.786  49.193  1.00  0.00    -0.204 F 
ENDBRANCH  24  26
ENDBRANCH   7  24
TORSDOF 7
ENDMDL
MODEL 3
REMARK VINA RESULT:      -7.9      3.211      5.873
REMARK  7 active torsions:
REMARK  status: ('A' for Active; 'I' for Inactive)
REMARK    1  A    between atoms: C2_2  and  C3_3 
REMARK    2  A    between atoms: C2_2  and  N2_12 
REMARK    3  A    between atoms: C3_3  and  C4_4 
REMARK    4  A    between atoms: C4_4  and  N1_5 
REMARK    5  A    between atoms: N2_12  and  C9_13 
REMARK    6  A    between atoms: C15_19  and  N3_20 
REMARK    7  A    between atoms: N3_20  and  C16_21 
ROOT
HETATM    1  C9  UNL     1      23.613   3.530  51.845  1.00  0.00     0.033 A 
HETATM    2  C10 UNL     1      22.997   4.756  51.686  1.00  0.00     0.031 A 
HETATM    3  C11 UNL     1      21.637   4.725  51.586  1.00  0.00     0.022 A 
HETATM    4  C12 UNL     1      20.836   3.607  51.628  1.00  0.00     0.016 A 
HETATM    5  C13 UNL     1      21.502   2.411  51.787  1.00  0.00     0.029 A 
HETATM    6  C14 UNL     1      22.875   2.366  51.895  1.00  0.00     0.046 A 
HETATM    7  C15 UNL     1      20.704   1.194  51.840  1.00  0.00     0.135 A 
HETATM    8  N4  UNL     1      19.446   1.046  51.759  1.00  0.00    -0.262 NA
HETATM    9  C20 UNL     1      18.424   2.014  51.593  1.00  0.00     0.230 A 
HETATM   10  S1  UNL     1      19.050   3.709  51.483  1.00  0.00    -0.107 SA
ENDROOT
BRANCH   1  11
HETATM   11  N2  UNL     1      25.036   3.506  51.954  1.00  0.00    -0.363 N 
HETATM   12  H13 UNL     1      25.231   3.733  52.962  1.00  0.00     0.165 HD
BRANCH  11  13
HETATM   13  C2  UNL     1      25.841   3.215  50.821  1.00  0.00    -0.011 C 
HETATM   14  C1  UNL     1      25.735   3.717  49.600  1.00  0.00     0.058 C 
BRANCH  13  15
HETATM   15  C3  UNL     1      26.820   2.222  51.331  1.00  0.00     0.072 C 
BRANCH  15  16
HETATM   16  C4  UNL     1      26.117   0.963  51.797  1.00  0.00     0.131 C 
BRANCH  16  17
HETATM   17  N1  UNL     1      26.921   0.236  52.761  1.00  0.00    -0.348 N 
HETATM   18  C5  UNL     1      27.494  -1.097  52.723  1.00  0.00     0.152 C 
HETATM   19  C6  UNL     1      28.868  -1.003  53.317  1.00  0.00     0.188 C 
HETATM   20  O1  UNL     1      28.909  -0.695  54.651  1.00  0.00    -0.380 OA
HETATM   21  C7  UNL     1      28.230   0.436  55.018  1.00  0.00     0.270 C 
HETATM   22  C8  UNL     1      27.243   0.896  53.992  1.00  0.00     0.243 C 
HETATM   23  O2  UNL     1      26.709   1.981  54.364  1.00  0.00    -0.271 OA
ENDBRANCH  16  17
ENDBRANCH  15  16
ENDBRANCH  13  15
ENDBRANCH  11  13
ENDBRANCH   1  11
BRANCH   7  24
HETATM   24  N3  UNL     1      21.401  -0.061  52.005  1.00  0.00    -0.338 N 
HETATM   25  H17 UNL     1      21.842  -0.571  51.189  1.00  0.00     0.167 HD
BRANCH  24  26
HETATM   26  C16 UNL     1      21.551  -0.718  53.281  1.00  0.00     0.072 A 
HETATM   27  C17 UNL     1      20.986  -1.468  54.214  1.00  0.00     0.036 A 
HETATM   28  C18 UNL     1      22.210  -1.421  55.003  1.00  0.00     0.047 A 
HETATM   29  C19 UNL     1      22.778  -0.667  54.064  1.00  0.00     0.143 A 
HETATM   30  F1  UNL     1      24.057  -0.178  54.104  1.00  0.00    -0.204 F 
ENDBRANCH  24  26
ENDBRANCH   7  24
TORSDOF 7
ENDMDL
MODEL 4
REMARK VINA RESULT:      -7.8      3.184      7.059
REMARK  7 active torsions:
REMARK  status: ('A' for Active; 'I' for Inactive)
REMARK    1  A    between atoms: C2_2  and  C3_3 
REMARK    2  A    between atoms: C2_2  and  N2_12 
REMARK    3  A    between atoms: C3_3  and  C4_4 
REMARK    4  A    between atoms: C4_4  and  N1_5 
REMARK    5  A    between atoms: N2_12  and  C9_13 
REMARK    6  A    between atoms: C15_19  and  N3_20 
REMARK    7  A    between atoms: N3_20  and  C16_21 
ROOT
HETATM    1  C9  UNL     1      23.076   1.471  51.326  1.00  0.00     0.033 A 
HETATM    2  C10 UNL     1      21.860   0.940  51.709  1.00  0.00     0.031 A 
HETATM    3  C11 UNL     1      21.885   0.148  52.821  1.00  0.00     0.022 A 
HETATM    4  C12 UNL     1      22.989  -0.163  53.581  1.00  0.00     0.016 A 
HETATM    5  C13 UNL     1      24.175   0.393  53.154  1.00  0.00     0.029 A 
HETATM    6  C14 UNL     1      24.225   1.202  52.040  1.00  0.00     0.046 A 
HETATM    7  C15 UNL     1      25.376   0.098  53.922  1.00  0.00     0.135 A 
HETATM    8  N4  UNL     1      25.517  -0.616  54.962  1.00  0.00    -0.262 NA
HETATM    9  C20 UNL     1      24.555  -1.349  55.702  1.00  0.00     0.230 A 
HETATM   10  S1  UNL     1      22.881  -1.222  55.027  1.00  0.00    -0.107 SA
ENDROOT
BRANCH   1  11
HETATM   11  N2  UNL     1      23.105   2.305  50.169  1.00  0.00    -0.363 N 
HETATM   12  H13 UNL     1      22.830   1.674  49.375  1.00  0.00     0.165 HD
BRANCH  11  13
HETATM   13  C2  UNL     1      23.456   3.678  50.278  1.00  0.00    -0.011 C 
HETATM   14  C1  UNL     1      22.952   4.580  51.107  1.00  0.00     0.058 C 
BRANCH  13  15
HETATM   15  C3  UNL     1      24.512   3.854  49.250  1.00  0.00     0.072 C 
BRANCH  15  16
HETATM   16  C4  UNL     1      25.800   4.345  49.879  1.00  0.00     0.131 C 
BRANCH  16  17
HETATM   17  N1  UNL     1      26.230   5.599  49.291  1.00  0.00    -0.348 N 
HETATM   18  C5  UNL     1      25.576   6.892  49.202  1.00  0.00     0.152 C 
HETATM   19  C6  UNL     1      26.625   7.934  49.455  1.00  0.00     0.188 C 
HETATM   20  O1  UNL     1      27.603   8.024  48.501  1.00  0.00    -0.380 OA
HETATM   21  C7  UNL     1      28.254   6.856  48.210  1.00  0.00     0.270 C 
HETATM   22  C8  UNL     1      27.522   5.636  48.671  1.00  0.00     0.243 C 
HETATM   23  O2  UNL     1      28.214   4.603  48.435  1.00  0.00    -0.271 OA
ENDBRANCH  16  17
ENDBRANCH  15  16
ENDBRANCH  13  15
ENDBRANCH  11  13
ENDBRANCH   1  11
BRANCH   7  24
HETATM   24  N3  UNL     1      26.621   0.679  53.475  1.00  0.00    -0.338 N 
HETATM   25  H17 UNL     1      26.681   1.672  53.114  1.00  0.00     0.167 HD
BRANCH  24  26
HETATM   26  C16 UNL     1      27.873  -0.039  53.482  1.00  0.00     0.072 A 
HETATM   27  C17 UNL     1      28.500  -1.177  53.219  1.00  0.00     0.036 A 
HETATM   28  C18 UNL     1      29.757  -0.595  53.671  1.00  0.00     0.047 A 
HETATM   29  C19 UNL     1      29.126   0.547  53.934  1.00  0.00     0.143 A 
HETATM   30  F1  UNL     1      29.711   1.680  54.439  1.00  0.00    -0.204 F 
ENDBRANCH  24  26
ENDBRANCH   7  24
TORSDOF 7
ENDMDL
MODEL 5
REMARK VINA RESULT:      -7.7      2.138      2.357
REMARK  7 active torsions:
REMARK  status: ('A' for Active; 'I' for Inactive)
REMARK    1  A    between atoms: C2_2  and  C3_3 
REMARK    2  A    between atoms: C2_2  and  N2_12 
REMARK    3  A    between atoms: C3_3  and  C4_4 
REMARK    4  A    between atoms: C4_4  and  N1_5 
REMARK    5  A    between atoms: N2_12  and  C9_13 
REMARK    6  A    between atoms: C15_19  and  N3_20 
REMARK    7  A    between atoms: N3_20  and  C16_21 
ROOT
HETATM    1  C9  UNL     1      23.457   4.000  52.393  1.00  0.00     0.033 A 
HETATM    2  C10 UNL     1      22.081   3.918  52.307  1.00  0.00     0.031 A 
HETATM    3  C11 UNL     1      21.468   4.942  51.646  1.00  0.00     0.022 A 
HETATM    4  C12 UNL     1      22.082   6.029  51.067  1.00  0.00     0.016 A 
HETATM    5  C13 UNL     1      23.455   6.061  51.183  1.00  0.00     0.029 A 
HETATM    6  C14 UNL     1      24.141   5.061  51.837  1.00  0.00     0.046 A 
HETATM    7  C15 UNL     1      24.158   7.189  50.588  1.00  0.00     0.135 A 
HETATM    8  N4  UNL     1      23.697   8.188  49.955  1.00  0.00    -0.262 NA
HETATM    9  C20 UNL     1      22.358   8.522  49.629  1.00  0.00     0.230 A 
HETATM   10  S1  UNL     1      21.151   7.311  50.225  1.00  0.00    -0.107 SA
ENDROOT
BRANCH   1  11
HETATM   11  N2  UNL     1      24.147   2.954  53.075  1.00  0.00    -0.363 N 
HETATM   12  H13 UNL     1      24.664   3.436  53.854  1.00  0.00     0.165 HD
BRANCH  11  13
HETATM   13  C2  UNL     1      24.030   1.607  52.637  1.00  0.00    -0.011 C 
HETATM   14  C1  UNL     1      23.284   0.647  53.162  1.00  0.00     0.058 C 
BRANCH  13  15
HETATM   15  C3  UNL     1      24.937   1.538  51.464  1.00  0.00     0.072 C 
BRANCH  15  16
HETATM   16  C4  UNL     1      26.361   1.869  51.863  1.00  0.00     0.131 C 
BRANCH  16  17
HETATM   17  N1  UNL     1      26.917   0.846  52.729  1.00  0.00    -0.348 N 
HETATM   18  C5  UNL     1      26.840  -0.603  52.676  1.00  0.00     0.152 C 
HETATM   19  C6  UNL     1      28.196  -1.129  53.043  1.00  0.00     0.188 C 
HETATM   20  O1  UNL     1      28.585  -0.895  54.334  1.00  0.00    -0.380 OA
HETATM   21  C7  UNL     1      28.534   0.412  54.739  1.00  0.00     0.270 C 
HETATM   22  C8  UNL     1      27.690   1.276  53.856  1.00  0.00     0.243 C 
HETATM   23  O2  UNL     1      27.748   2.478  54.246  1.00  0.00    -0.271 OA
ENDBRANCH  16  17
ENDBRANCH  15  16
ENDBRANCH  13  15
ENDBRANCH  11  13
ENDBRANCH   1  11
BRANCH   7  24
HETATM   24  N3  UNL     1      25.597   7.225  50.710  1.00  0.00    -0.338 N 
HETATM   25  H17 UNL     1      26.081   7.259  51.651  1.00  0.00     0.167 HD
BRANCH  24  26
HETATM   26  C16 UNL     1      26.485   7.220  49.572  1.00  0.00     0.072 A 
HETATM   27  C17 UNL     1      27.274   7.929  48.779  1.00  0.00     0.036 A 
HETATM   28  C18 UNL     1      27.590   6.731  48.012  1.00  0.00     0.047 A 
HETATM   29  C19 UNL     1      26.797   6.019  48.810  1.00  0.00     0.143 A 
HETATM   30  F1  UNL     1      26.562   4.673  48.702  1.00  0.00    -0.204 F 
ENDBRANCH  24  26
ENDBRANCH   7  24
TORSDOF 7
ENDMDL
MODEL 6
REMARK VINA RESULT:      -7.7      3.523      7.400
REMARK  7 active torsions:
REMARK  status: ('A' for Active; 'I' for Inactive)
REMARK    1  A    between atoms: C2_2  and  C3_3 
REMARK    2  A    between atoms: C2_2  and  N2_12 
REMARK    3  A    between atoms: C3_3  and  C4_4 
REMARK    4  A    between atoms: C4_4  and  N1_5 
REMARK    5  A    between atoms: N2_12  and  C9_13 
REMARK    6  A    between atoms: C15_19  and  N3_20 
REMARK    7  A    between atoms: N3_20  and  C16_21 
ROOT
HETATM    1  C9  UNL     1      24.580   3.248  51.599  1.00  0.00     0.033 A 
HETATM    2  C10 UNL     1      23.352   2.838  51.118  1.00  0.00     0.031 A 
HETATM    3  C11 UNL     1      22.860   1.686  51.659  1.00  0.00     0.022 A 
HETATM    4  C12 UNL     1      23.462   0.910  52.623  1.00  0.00     0.016 A 
HETATM    5  C13 UNL     1      24.685   1.365  53.067  1.00  0.00     0.029 A 
HETATM    6  C14 UNL     1      25.243   2.520  52.566  1.00  0.00     0.046 A 
HETATM    7  C15 UNL     1      25.367   0.583  54.088  1.00  0.00     0.135 A 
HETATM    8  N4  UNL     1      25.008  -0.492  54.660  1.00  0.00    -0.262 NA
HETATM    9  C20 UNL     1      23.835  -1.269  54.486  1.00  0.00     0.230 A 
HETATM   10  S1  UNL     1      22.700  -0.590  53.250  1.00  0.00    -0.107 SA
ENDROOT
BRANCH   1  11
HETATM   11  N2  UNL     1      25.140   4.447  51.066  1.00  0.00    -0.363 N 
HETATM   12  H13 UNL     1      24.898   5.192  51.767  1.00  0.00     0.165 HD
BRANCH  11  13
HETATM   13  C2  UNL     1      25.842   4.428  49.831  1.00  0.00    -0.011 C 
HETATM   14  C1  UNL     1      26.690   3.508  49.395  1.00  0.00     0.058 C 
BRANCH  13  15
HETATM   15  C3  UNL     1      25.402   5.675  49.155  1.00  0.00     0.072 C 
BRANCH  15  16
HETATM   16  C4  UNL     1      25.919   6.896  49.888  1.00  0.00     0.131 C 
BRANCH  16  17
HETATM   17  N1  UNL     1      27.044   7.491  49.193  1.00  0.00    -0.348 N 
HETATM   18  C5  UNL     1      27.961   6.947  48.207  1.00  0.00     0.152 C 
HETATM   19  C6  UNL     1      28.190   8.018  47.182  1.00  0.00     0.188 C 
HETATM   20  O1  UNL     1      28.855   9.127  47.632  1.00  0.00    -0.380 OA
HETATM   21  C7  UNL     1      28.316   9.732  48.736  1.00  0.00     0.270 C 
HETATM   22  C8  UNL     1      27.360   8.859  49.485  1.00  0.00     0.243 C 
HETATM   23  O2  UNL     1      26.848   9.504  50.445  1.00  0.00    -0.271 OA
ENDBRANCH  16  17
ENDBRANCH  15  16
ENDBRANCH  13  15
ENDBRANCH  11  13
ENDBRANCH   1  11
BRANCH   7  24
HETATM   24  N3  UNL     1      26.650   1.057  54.554  1.00  0.00    -0.338 N 
HETATM   25  H17 UNL     1      26.739   1.861  55.236  1.00  0.00     0.167 HD
BRANCH  24  26
HETATM   26  C16 UNL     1      27.904   0.480  54.132  1.00  0.00     0.072 A 
HETATM   27  C17 UNL     1      28.516  -0.551  53.568  1.00  0.00     0.036 A 
HETATM   28  C18 UNL     1      29.802   0.113  53.735  1.00  0.00     0.047 A 
HETATM   29  C19 UNL     1      29.186   1.149  54.301  1.00  0.00     0.143 A 
HETATM   30  F1  UNL     1      29.802   2.280  54.770  1.00  0.00    -0.204 F 
ENDBRANCH  24  26
ENDBRANCH   7  24
TORSDOF 7
ENDMDL
MODEL 7
REMARK VINA RESULT:      -7.6      2.498      3.539
REMARK  7 active torsions:
REMARK  status: ('A' for Active; 'I' for Inactive)
REMARK    1  A    between atoms: C2_2  and  C3_3 
REMARK    2  A    between atoms: C2_2  and  N2_12 
REMARK    3  A    between atoms: C3_3  and  C4_4 
REMARK    4  A    between atoms: C4_4  and  N1_5 
REMARK    5  A    between atoms: N2_12  and  C9_13 
REMARK    6  A    between atoms: C15_19  and  N3_20 
REMARK    7  A    between atoms: N3_20  and  C16_21 
ROOT
HETATM    1  C9  UNL     1      25.023   4.835  49.134  1.00  0.00     0.033 A 
HETATM    2  C10 UNL     1      24.054   5.753  48.779  1.00  0.00     0.031 A 
HETATM    3  C11 UNL     1      24.516   6.949  48.312  1.00  0.00     0.022 A 
HETATM    4  C12 UNL     1      25.834   7.318  48.164  1.00  0.00     0.016 A 
HETATM    5  C13 UNL     1      26.758   6.364  48.533  1.00  0.00     0.029 A 
HETATM    6  C14 UNL     1      26.364   5.134  49.013  1.00  0.00     0.046 A 
HETATM    7  C15 UNL     1      28.168   6.700  48.396  1.00  0.00     0.135 A 
HETATM    8  N4  UNL     1      28.709   7.769  47.977  1.00  0.00    -0.262 NA
HETATM    9  C20 UNL     1      28.115   8.970  47.512  1.00  0.00     0.230 A 
HETATM   10  S1  UNL     1      26.305   8.931  47.535  1.00  0.00    -0.107 SA
ENDROOT
BRANCH   1  11
HETATM   11  N2  UNL     1      24.592   3.567  49.629  1.00  0.00    -0.363 N 
HETATM   12  H13 UNL     1      24.253   3.048  48.780  1.00  0.00     0.165 HD
BRANCH  11  13
HETATM   13  C2  UNL     1      24.686   3.264  51.014  1.00  0.00    -0.011 C 
HETATM   14  C1  UNL     1      24.099   3.890  52.022  1.00  0.00     0.058 C 
BRANCH  13  15
HETATM   15  C3  UNL     1      25.593   2.089  51.056  1.00  0.00     0.072 C 
BRANCH  15  16
HETATM   16  C4  UNL     1      26.836   2.398  51.866  1.00  0.00     0.131 C 
BRANCH  16  17
HETATM   17  N1  UNL     1      27.176   1.299  52.750  1.00  0.00    -0.348 N 
HETATM   18  C5  UNL     1      26.695  -0.070  52.810  1.00  0.00     0.152 C 
HETATM   19  C6  UNL     1      27.883  -0.941  53.091  1.00  0.00     0.188 C 
HETATM   20  O1  UNL     1      28.457  -0.769  54.323  1.00  0.00    -0.380 OA
HETATM   21  C7  UNL     1      28.813   0.515  54.635  1.00  0.00     0.270 C 
HETATM   22  C8  UNL     1      28.153   1.543  53.770  1.00  0.00     0.243 C 
HETATM   23  O2  UNL     1      28.583   2.695  54.066  1.00  0.00    -0.271 OA
ENDBRANCH  16  17
ENDBRANCH  15  16
ENDBRANCH  13  15
ENDBRANCH  11  13
ENDBRANCH   1  11
BRANCH   7  24
HETATM   24  N3  UNL     1      29.139   5.703  48.785  1.00  0.00    -0.338 N 
HETATM   25  H17 UNL     1      28.871   4.847  49.347  1.00  0.00     0.167 HD
BRANCH  24  26
HETATM   26  C16 UNL     1      30.538   5.789  48.442  1.00  0.00     0.072 A 
HETATM   27  C17 UNL     1      31.440   5.844  47.474  1.00  0.00     0.036 A 
HETATM   28  C18 UNL     1      32.507   5.911  48.464  1.00  0.00     0.047 A 
HETATM   29  C19 UNL     1      31.600   5.856  49.436  1.00  0.00     0.143 A 
HETATM   30  F1  UNL     1      31.872   5.875  50.779  1.00  0.00    -0.204 F 
ENDBRANCH  24  26
ENDBRANCH   7  24
TORSDOF 7
ENDMDL
MODEL 8
REMARK VINA RESULT:      -7.5      4.370      6.105
REMARK  7 active torsions:
REMARK  status: ('A' for Active; 'I' for Inactive)
REMARK    1  A    between atoms: C2_2  and  C3_3 
REMARK    2  A    between atoms: C2_2  and  N2_12 
REMARK    3  A    between atoms: C3_3  and  C4_4 
REMARK    4  A    between atoms: C4_4  and  N1_5 
REMARK    5  A    between atoms: N2_12  and  C9_13 
REMARK    6  A    between atoms: C15_19  and  N3_20 
REMARK    7  A    between atoms: N3_20  and  C16_21 
ROOT
HETATM    1  C9  UNL     1      22.547   0.213  53.271  1.00  0.00     0.033 A 
HETATM    2  C10 UNL     1      22.093  -0.557  54.323  1.00  0.00     0.031 A 
HETATM    3  C11 UNL     1      20.785  -0.941  54.253  1.00  0.00     0.022 A 
HETATM    4  C12 UNL     1      19.894  -0.638  53.250  1.00  0.00     0.016 A 
HETATM    5  C13 UNL     1      20.400   0.134  52.226  1.00  0.00     0.029 A 
HETATM    6  C14 UNL     1      21.710   0.557  52.230  1.00  0.00     0.046 A 
HETATM    7  C15 UNL     1      19.500   0.485  51.135  1.00  0.00     0.135 A 
HETATM    8  N4  UNL     1      18.278   0.186  50.966  1.00  0.00    -0.262 NA
HETATM    9  C20 UNL     1      17.405  -0.579  51.780  1.00  0.00     0.230 A 
HETATM   10  S1  UNL     1      18.193  -1.210  53.282  1.00  0.00    -0.107 SA
ENDROOT
BRANCH   1  11
HETATM   11  N2  UNL     1      23.908   0.642  53.296  1.00  0.00    -0.363 N 
HETATM   12  H13 UNL     1      24.416  -0.107  53.831  1.00  0.00     0.165 HD
BRANCH  11  13
HETATM   13  C2  UNL     1      24.293   1.858  52.670  1.00  0.00    -0.011 C 
HETATM   14  C1  UNL     1      23.908   3.086  52.981  1.00  0.00     0.058 C 
BRANCH  13  15
HETATM   15  C3  UNL     1      25.219   1.423  51.594  1.00  0.00     0.072 C 
BRANCH  15  16
HETATM   16  C4  UNL     1      26.645   1.823  51.917  1.00  0.00     0.131 C 
BRANCH  16  17
HETATM   17  N1  UNL     1      27.267   0.875  52.821  1.00  0.00    -0.348 N 
HETATM   18  C5  UNL     1      27.211  -0.575  52.880  1.00  0.00     0.152 C 
HETATM   19  C6  UNL     1      28.595  -1.056  53.203  1.00  0.00     0.188 C 
HETATM   20  O1  UNL     1      29.055  -0.721  54.449  1.00  0.00    -0.380 OA
HETATM   21  C7  UNL     1      29.005   0.611  54.759  1.00  0.00     0.270 C 
HETATM   22  C8  UNL     1      28.098   1.397  53.866  1.00  0.00     0.243 C 
HETATM   23  O2  UNL     1      28.158   2.625  54.163  1.00  0.00    -0.271 OA
ENDBRANCH  16  17
ENDBRANCH  15  16
ENDBRANCH  13  15
ENDBRANCH  11  13
ENDBRANCH   1  11
BRANCH   7  24
HETATM   24  N3  UNL     1      20.028   1.295  50.062  1.00  0.00    -0.338 N 
HETATM   25  H17 UNL     1      20.635   0.888  49.297  1.00  0.00     0.167 HD
BRANCH  24  26
HETATM   26  C16 UNL     1      19.774   2.711  49.945  1.00  0.00     0.072 A 
HETATM   27  C17 UNL     1      19.408   3.709  49.155  1.00  0.00     0.036 A 
HETATM   28  C18 UNL     1      19.551   4.646  50.262  1.00  0.00     0.047 A 
HETATM   29  C19 UNL     1      19.918   3.641  51.055  1.00  0.00     0.143 A 
HETATM   30  F1  UNL     1      20.249   3.756  52.381  1.00  0.00    -0.204 F 
ENDBRANCH  24  26
ENDBRANCH   7  24
TORSDOF 7
ENDMDL
MODEL 9
REMARK VINA RESULT:      -7.5      3.889      6.827
REMARK  7 active torsions:
REMARK  status: ('A' for Active; 'I' for Inactive)
REMARK    1  A    between atoms: C2_2  and  C3_3 
REMARK    2  A    between atoms: C2_2  and  N2_12 
REMARK    3  A    between atoms: C3_3  and  C4_4 
REMARK    4  A    between atoms: C4_4  and  N1_5 
REMARK    5  A    between atoms: N2_12  and  C9_13 
REMARK    6  A    between atoms: C15_19  and  N3_20 
REMARK    7  A    between atoms: N3_20  and  C16_21 
ROOT
HETATM    1  C9  UNL     1      21.839   0.550  53.402  1.00  0.00     0.033 A 
HETATM    2  C10 UNL     1      22.275  -0.702  53.788  1.00  0.00     0.031 A 
HETATM    3  C11 UNL     1      23.625  -0.896  53.749  1.00  0.00     0.022 A 
HETATM    4  C12 UNL     1      24.575   0.024  53.367  1.00  0.00     0.016 A 
HETATM    5  C13 UNL     1      24.084   1.256  52.991  1.00  0.00     0.029 A 
HETATM    6  C14 UNL     1      22.733   1.523  53.007  1.00  0.00     0.046 A 
HETATM    7  C15 UNL     1      25.045   2.269  52.579  1.00  0.00     0.135 A 
HETATM    8  N4  UNL     1      26.311   2.202  52.504  1.00  0.00    -0.262 NA
HETATM    9  C20 UNL     1      27.186   1.126  52.797  1.00  0.00     0.230 A 
HETATM   10  S1  UNL     1      26.327  -0.364  53.361  1.00  0.00    -0.107 SA
ENDROOT
BRANCH   1  11
HETATM   11  N2  UNL     1      20.435   0.804  53.425  1.00  0.00    -0.363 N 
HETATM   12  H13 UNL     1      20.326   1.655  54.033  1.00  0.00     0.165 HD
BRANCH  11  13
HETATM   13  C2  UNL     1      19.538  -0.033  52.709  1.00  0.00    -0.011 C 
HETATM   14  C1  UNL     1      18.722  -0.953  53.200  1.00  0.00     0.058 C 
BRANCH  13  15
HETATM   15  C3  UNL     1      19.735   0.367  51.293  1.00  0.00     0.072 C 
BRANCH  15  16
HETATM   16  C4  UNL     1      18.829   1.526  50.930  1.00  0.00     0.131 C 
BRANCH  16  17
HETATM   17  N1  UNL     1      19.580   2.618  50.340  1.00  0.00    -0.348 N 
HETATM   18  C5  UNL     1      19.989   2.873  48.970  1.00  0.00     0.152 C 
HETATM   19  C6  UNL     1      19.803   4.340  48.722  1.00  0.00     0.188 C 
HETATM   20  O1  UNL     1      20.626   5.165  49.441  1.00  0.00    -0.380 OA
HETATM   21  C7  UNL     1      20.612   4.979  50.797  1.00  0.00     0.270 C 
HETATM   22  C8  UNL     1      20.028   3.665  51.211  1.00  0.00     0.243 C 
HETATM   23  O2  UNL     1      19.980   3.593  52.473  1.00  0.00    -0.271 OA
ENDBRANCH  16  17
ENDBRANCH  15  16
ENDBRANCH  13  15
ENDBRANCH  11  13
ENDBRANCH   1  11
BRANCH   7  24
HETATM   24  N3  UNL     1      24.534   3.561  52.182  1.00  0.00    -0.338 N 
HETATM   25  H17 UNL     1      24.265   4.300  52.890  1.00  0.00     0.167 HD
BRANCH  24  26
HETATM   26  C16 UNL     1      24.348   3.946  50.804  1.00  0.00     0.072 A 
HETATM   27  C17 UNL     1      24.553   4.865  49.873  1.00  0.00     0.036 A 
HETATM   28  C18 UNL     1      23.867   4.035  48.892  1.00  0.00     0.047 A 
HETATM   29  C19 UNL     1      23.661   3.111  49.828  1.00  0.00     0.143 A 
HETATM   30  F1  UNL     1      23.012   1.919  49.639  1.00  0.00    -0.204 F 
ENDBRANCH  24  26
ENDBRANCH   7  24
TORSDOF 7
ENDMDL
