MODEL 1
REMARK VINA RESULT:      -9.1      0.000      0.000
REMARK  5 active torsions:
REMARK  status: ('A' for Active; 'I' for Inactive)
REMARK    1  A    between atoms: C1_2  and  C2_3 
REMARK    2  A    between atoms: C4_5  and  C5_6 
REMARK    3  A    between atoms: C5_6  and  N1_7 
REMARK    4  A    between atoms: N1_7  and  C6_8 
REMARK    5  A    between atoms: C6_8  and  C7_9 
ROOT
HETATM    1  C7  UNL     1      24.152  -0.129  53.631  1.00  0.00     0.013 A 
HETATM    2  C8  UNL     1      25.206  -0.520  54.549  1.00  0.00     0.152 A 
HETATM    3  N2  UNL     1      24.917  -1.250  55.599  1.00  0.00    -0.184 NA
HETATM    4  N3  UNL     1      23.598  -1.664  55.858  1.00  0.00    -0.256 N 
HETATM    5  C9  UNL     1      22.554  -1.290  54.968  1.00  0.00     0.176 A 
HETATM    6  O1  UNL     1      21.276  -1.554  55.003  1.00  0.00    -0.291 OA
HETATM    7  C10 UNL     1      20.633  -1.034  54.001  1.00  0.00     0.089 A 
HETATM    8  C11 UNL     1      19.347  -0.967  53.518  1.00  0.00     0.038 A 
HETATM    9  C12 UNL     1      18.987  -0.296  52.363  1.00  0.00     0.003 A 
HETATM   10  C13 UNL     1      20.009   0.353  51.656  1.00  0.00     0.001 A 
HETATM   11  C14 UNL     1      21.315   0.321  52.093  1.00  0.00     0.015 A 
HETATM   12  C15 UNL     1      21.578  -0.370  53.246  1.00  0.00     0.013 A 
HETATM   13  C16 UNL     1      22.791  -0.527  53.849  1.00  0.00     0.043 A 
HETATM   14  H9  UNL     1      23.341  -2.250  56.689  1.00  0.00     0.191 HD
ENDROOT
BRANCH   1  15
HETATM   15  C6  UNL     1      24.574   0.576  52.654  1.00  0.00     0.097 C 
BRANCH  15  16
HETATM   16  N1  UNL     1      25.429   1.096  51.691  1.00  0.00    -0.394 N 
HETATM   17  H6  UNL     1      25.611   0.849  50.684  1.00  0.00     0.159 HD
BRANCH  16  18
HETATM   18  C5  UNL     1      26.285   2.187  52.181  1.00  0.00     0.157 C 
BRANCH  18  19
HETATM   19  C4  UNL     1      27.486   1.663  52.880  1.00  0.00    -0.044 A 
HETATM   20  C3  UNL     1      28.022   0.324  52.699  1.00  0.00     0.012 A 
HETATM   21  C2  UNL     1      29.091   0.212  53.504  1.00  0.00    -0.062 A 
HETATM   22  C18 UNL     1      29.341   1.471  54.276  1.00  0.00     0.063 A 
HETATM   23  C17 UNL     1      28.224   2.310  53.762  1.00  0.00    -0.014 A 
BRANCH  21  24
HETATM   24  C1  UNL     1      30.035  -0.922  53.742  1.00  0.00     0.149 C 
HETATM   25 CL1  UNL     1      29.228  -2.456  53.287  1.00  0.00    -0.126 Cl
ENDBRANCH  21  24
ENDBRANCH  18  19
ENDBRANCH  16  18
ENDBRANCH  15  16
ENDBRANCH   1  15
TORSDOF 5
ENDMDL
MODEL 2
REMARK VINA RESULT:      -9.0      4.067      5.560
REMARK  5 active torsions:
REMARK  status: ('A' for Active; 'I' for Inactive)
REMARK    1  A    between atoms: C1_2  and  C2_3 
REMARK    2  A    between atoms: C4_5  and  C5_6 
REMARK    3  A    between atoms: C5_6  and  N1_7 
REMARK    4  A    between atoms: N1_7  and  C6_8 
REMARK    5  A    between atoms: C6_8  and  C7_9 
ROOT
HETATM    1  C7  UNL     1      27.179   1.817  53.006  1.00  0.00     0.013 A 
HETATM    2  C8  UNL     1      28.538   2.109  53.421  1.00  0.00     0.152 A 
HETATM    3  N2  UNL     1      29.043   1.504  54.469  1.00  0.00    -0.184 NA
HETATM    4  N3  UNL     1      28.290   0.572  55.205  1.00  0.00    -0.256 N 
HETATM    5  C9  UNL     1      26.956   0.274  54.811  1.00  0.00     0.176 A 
HETATM    6  O1  UNL     1      26.082  -0.543  55.331  1.00  0.00    -0.291 OA
HETATM    7  C10 UNL     1      24.956  -0.545  54.683  1.00  0.00     0.089 A 
HETATM    8  C11 UNL     1      23.726  -1.159  54.744  1.00  0.00     0.038 A 
HETATM    9  C12 UNL     1      22.696  -0.922  53.852  1.00  0.00     0.003 A 
HETATM   10  C13 UNL     1      22.938   0.007  52.829  1.00  0.00     0.001 A 
HETATM   11  C14 UNL     1      24.149   0.653  52.719  1.00  0.00     0.015 A 
HETATM   12  C15 UNL     1      25.111   0.353  53.647  1.00  0.00     0.013 A 
HETATM   13  C16 UNL     1      26.370   0.874  53.722  1.00  0.00     0.043 A 
HETATM   14  H9  UNL     1      28.670   0.072  56.045  1.00  0.00     0.191 HD
ENDROOT
BRANCH   1  15
HETATM   15  C6  UNL     1      26.819   2.475  51.973  1.00  0.00     0.097 C 
BRANCH  15  16
HETATM   16  N1  UNL     1      26.075   3.308  51.147  1.00  0.00    -0.394 N 
HETATM   17  H6  UNL     1      25.281   3.975  51.328  1.00  0.00     0.159 HD
BRANCH  16  18
HETATM   18  C5  UNL     1      26.437   3.213  49.725  1.00  0.00     0.157 C 
BRANCH  18  19
HETATM   19  C4  UNL     1      26.720   4.551  49.145  1.00  0.00    -0.044 A 
HETATM   20  C3  UNL     1      27.988   4.934  48.545  1.00  0.00     0.012 A 
HETATM   21  C2  UNL     1      27.871   6.213  48.153  1.00  0.00    -0.062 A 
HETATM   22  C18 UNL     1      26.517   6.770  48.464  1.00  0.00     0.063 A 
HETATM   23  C17 UNL     1      25.891   5.577  49.100  1.00  0.00    -0.014 A 
BRANCH  21  24
HETATM   24  C1  UNL     1      28.839   7.133  47.481  1.00  0.00     0.149 C 
HETATM   25 CL1  UNL     1      30.503   6.691  47.977  1.00  0.00    -0.126 Cl
ENDBRANCH  21  24
ENDBRANCH  18  19
ENDBRANCH  16  18
ENDBRANCH  15  16
ENDBRANCH   1  15
TORSDOF 5
ENDMDL
MODEL 3
REMARK VINA RESULT:      -8.9      2.873      5.568
REMARK  5 active torsions:
REMARK  status: ('A' for Active; 'I' for Inactive)
REMARK    1  A    between atoms: C1_2  and  C2_3 
REMARK    2  A    between atoms: C4_5  and  C5_6 
REMARK    3  A    between atoms: C5_6  and  N1_7 
REMARK    4  A    between atoms: N1_7  and  C6_8 
REMARK    5  A    between atoms: C6_8  and  C7_9 
ROOT
HETATM    1  C7  UNL     1      22.835  -0.522  53.508  1.00  0.00     0.013 A 
HETATM    2  C8  UNL     1      21.914  -1.247  54.363  1.00  0.00     0.152 A 
HETATM    3  N2  UNL     1      22.346  -1.778  55.482  1.00  0.00    -0.184 NA
HETATM    4  N3  UNL     1      23.692  -1.662  55.872  1.00  0.00    -0.256 N 
HETATM    5  C9  UNL     1      24.608  -0.955  55.044  1.00  0.00     0.176 A 
HETATM    6  O1  UNL     1      25.882  -0.720  55.199  1.00  0.00    -0.291 OA
HETATM    7  C10 UNL     1      26.383  -0.029  54.220  1.00  0.00     0.089 A 
HETATM    8  C11 UNL     1      27.594   0.499  53.838  1.00  0.00     0.038 A 
HETATM    9  C12 UNL     1      27.793   1.220  52.674  1.00  0.00     0.003 A 
HETATM   10  C13 UNL     1      26.680   1.413  51.843  1.00  0.00     0.001 A 
HETATM   11  C14 UNL     1      25.443   0.907  52.174  1.00  0.00     0.015 A 
HETATM   12  C15 UNL     1      25.339   0.207  53.348  1.00  0.00     0.013 A 
HETATM   13  C16 UNL     1      24.218  -0.374  53.861  1.00  0.00     0.043 A 
HETATM   14  H9  UNL     1      24.063  -2.075  56.761  1.00  0.00     0.191 HD
ENDROOT
BRANCH   1  15
HETATM   15  C6  UNL     1      22.281  -0.057  52.456  1.00  0.00     0.097 C 
BRANCH  15  16
HETATM   16  N1  UNL     1      21.346   0.560  51.635  1.00  0.00    -0.394 N 
HETATM   17  H6  UNL     1      20.647   0.192  50.939  1.00  0.00     0.159 HD
BRANCH  16  18
HETATM   18  C5  UNL     1      21.359   2.028  51.718  1.00  0.00     0.157 C 
BRANCH  18  19
HETATM   19  C4  UNL     1      22.433   2.612  50.874  1.00  0.00    -0.044 A 
HETATM   20  C3  UNL     1      23.363   3.636  51.322  1.00  0.00     0.012 A 
HETATM   21  C2  UNL     1      24.168   3.922  50.285  1.00  0.00    -0.062 A 
HETATM   22  C18 UNL     1      23.830   3.106  49.076  1.00  0.00     0.063 A 
HETATM   23  C17 UNL     1      22.692   2.311  49.616  1.00  0.00    -0.014 A 
BRANCH  21  24
HETATM   24  C1  UNL     1      25.303   4.885  50.153  1.00  0.00     0.149 C 
HETATM   25 CL1  UNL     1      26.657   4.076  49.302  1.00  0.00    -0.126 Cl
ENDBRANCH  21  24
ENDBRANCH  18  19
ENDBRANCH  16  18
ENDBRANCH  15  16
ENDBRANCH   1  15
TORSDOF 5
ENDMDL
MODEL 4
REMARK VINA RESULT:      -8.9      3.461      5.343
REMARK  5 active torsions:
REMARK  status: ('A' for Active; 'I' for Inactive)
REMARK    1  A    between atoms: C1_2  and  C2_3 
REMARK    2  A    between atoms: C4_5  and  C5_6 
REMARK    3  A    between atoms: C5_6  and  N1_7 
REMARK    4  A    between atoms: N1_7  and  C6_8 
REMARK    5  A    between atoms: C6_8  and  C7_9 
ROOT
HETATM    1  C7  UNL     1      27.032   1.424  52.779  1.00  0.00     0.013 A 
HETATM    2  C8  UNL     1      28.406   1.395  53.244  1.00  0.00     0.152 A 
HETATM    3  N2  UNL     1      28.739   0.613  54.242  1.00  0.00    -0.184 NA
HETATM    4  N3  UNL     1      27.786  -0.203  54.878  1.00  0.00    -0.256 N 
HETATM    5  C9  UNL     1      26.435  -0.186  54.435  1.00  0.00     0.176 A 
HETATM    6  O1  UNL     1      25.395  -0.847  54.863  1.00  0.00    -0.291 OA
HETATM    7  C10 UNL     1      24.316  -0.563  54.197  1.00  0.00     0.089 A 
HETATM    8  C11 UNL     1      22.986  -0.914  54.181  1.00  0.00     0.038 A 
HETATM    9  C12 UNL     1      22.059  -0.396  53.294  1.00  0.00     0.003 A 
HETATM   10  C13 UNL     1      22.521   0.545  52.363  1.00  0.00     0.001 A 
HETATM   11  C14 UNL     1      23.841   0.935  52.334  1.00  0.00     0.015 A 
HETATM   12  C15 UNL     1      24.688   0.368  53.249  1.00  0.00     0.013 A 
HETATM   13  C16 UNL     1      26.023   0.610  53.393  1.00  0.00     0.043 A 
HETATM   14  H9  UNL     1      28.026  -0.838  55.677  1.00  0.00     0.191 HD
ENDROOT
BRANCH   1  15
HETATM   15  C6  UNL     1      26.851   2.226  51.802  1.00  0.00     0.097 C 
BRANCH  15  16
HETATM   16  N1  UNL     1      26.806   3.405  51.070  1.00  0.00    -0.394 N 
HETATM   17  H6  UNL     1      27.142   4.384  51.264  1.00  0.00     0.159 HD
BRANCH  16  18
HETATM   18  C5  UNL     1      26.113   3.277  49.779  1.00  0.00     0.157 C 
BRANCH  18  19
HETATM   19  C4  UNL     1      24.651   3.497  49.921  1.00  0.00    -0.044 A 
HETATM   20  C3  UNL     1      24.041   4.316  50.957  1.00  0.00     0.012 A 
HETATM   21  C2  UNL     1      22.712   4.260  50.775  1.00  0.00    -0.062 A 
HETATM   22  C18 UNL     1      22.345   3.400  49.606  1.00  0.00     0.063 A 
HETATM   23  C17 UNL     1      23.704   2.982  49.161  1.00  0.00    -0.014 A 
BRANCH  21  24
HETATM   24  C1  UNL     1      21.585   4.895  51.523  1.00  0.00     0.149 C 
HETATM   25 CL1  UNL     1      20.613   3.612  52.313  1.00  0.00    -0.126 Cl
ENDBRANCH  21  24
ENDBRANCH  18  19
ENDBRANCH  16  18
ENDBRANCH  15  16
ENDBRANCH   1  15
TORSDOF 5
ENDMDL
MODEL 5
REMARK VINA RESULT:      -8.7      2.866      4.184
REMARK  5 active torsions:
REMARK  status: ('A' for Active; 'I' for Inactive)
REMARK    1  A    between atoms: C1_2  and  C2_3 
REMARK    2  A    between atoms: C4_5  and  C5_6 
REMARK    3  A    between atoms: C5_6  and  N1_7 
REMARK    4  A    between atoms: N1_7  and  C6_8 
REMARK    5  A    between atoms: C6_8  and  C7_9 
ROOT
HETATM    1  C7  UNL     1      24.459  -0.313  53.693  1.00  0.00     0.013 A 
HETATM    2  C8  UNL     1      25.428  -0.731  54.688  1.00  0.00     0.152 A 
HETATM    3  N2  UNL     1      25.023  -1.347  55.773  1.00  0.00    -0.184 NA
HETATM    4  N3  UNL     1      23.660  -1.612  55.993  1.00  0.00    -0.256 N 
HETATM    5  C9  UNL     1      22.697  -1.209  55.027  1.00  0.00     0.176 A 
HETATM    6  O1  UNL     1      21.400  -1.347  55.015  1.00  0.00    -0.291 OA
HETATM    7  C10 UNL     1      20.856  -0.846  53.947  1.00  0.00     0.089 A 
HETATM    8  C11 UNL     1      19.605  -0.694  53.395  1.00  0.00     0.038 A 
HETATM    9  C12 UNL     1      19.364  -0.082  52.178  1.00  0.00     0.003 A 
HETATM   10  C13 UNL     1      20.476   0.410  51.479  1.00  0.00     0.001 A 
HETATM   11  C14 UNL     1      21.751   0.287  51.983  1.00  0.00     0.015 A 
HETATM   12  C15 UNL     1      21.894  -0.336  53.195  1.00  0.00     0.013 A 
HETATM   13  C16 UNL     1      23.058  -0.561  53.869  1.00  0.00     0.043 A 
HETATM   14  H9  UNL     1      23.309  -2.105  56.850  1.00  0.00     0.191 HD
ENDROOT
BRANCH   1  15
HETATM   15  C6  UNL     1      24.992   0.272  52.690  1.00  0.00     0.097 C 
BRANCH  15  16
HETATM   16  N1  UNL     1      25.954   0.859  51.879  1.00  0.00    -0.394 N 
HETATM   17  H6  UNL     1      26.715   0.465  51.267  1.00  0.00     0.159 HD
BRANCH  16  18
HETATM   18  C5  UNL     1      25.940   2.329  51.907  1.00  0.00     0.157 C 
BRANCH  18  19
HETATM   19  C4  UNL     1      24.592   2.866  51.593  1.00  0.00    -0.044 A 
HETATM   20  C3  UNL     1      23.968   2.802  50.280  1.00  0.00     0.012 A 
HETATM   21  C2  UNL     1      22.771   3.402  50.380  1.00  0.00    -0.062 A 
HETATM   22  C18 UNL     1      22.514   3.906  51.766  1.00  0.00     0.063 A 
HETATM   23  C17 UNL     1      23.779   3.484  52.429  1.00  0.00    -0.014 A 
BRANCH  21  24
HETATM   24  C1  UNL     1      21.696   3.635  49.368  1.00  0.00     0.149 C 
HETATM   25 CL1  UNL     1      22.264   3.055  47.770  1.00  0.00    -0.126 Cl
ENDBRANCH  21  24
ENDBRANCH  18  19
ENDBRANCH  16  18
ENDBRANCH  15  16
ENDBRANCH   1  15
TORSDOF 5
ENDMDL
MODEL 6
REMARK VINA RESULT:      -8.6      3.551      6.061
REMARK  5 active torsions:
REMARK  status: ('A' for Active; 'I' for Inactive)
REMARK    1  A    between atoms: C1_2  and  C2_3 
REMARK    2  A    between atoms: C4_5  and  C5_6 
REMARK    3  A    between atoms: C5_6  and  N1_7 
REMARK    4  A    between atoms: N1_7  and  C6_8 
REMARK    5  A    between atoms: C6_8  and  C7_9 
ROOT
HETATM    1  C7  UNL     1      23.836   0.945  53.111  1.00  0.00     0.013 A 
HETATM    2  C8  UNL     1      22.596   0.231  53.353  1.00  0.00     0.152 A 
HETATM    3  N2  UNL     1      22.583  -0.793  54.172  1.00  0.00    -0.184 NA
HETATM    4  N3  UNL     1      23.754  -1.219  54.824  1.00  0.00    -0.256 N 
HETATM    5  C9  UNL     1      24.978  -0.530  54.598  1.00  0.00     0.176 A 
HETATM    6  O1  UNL     1      26.170  -0.740  55.084  1.00  0.00    -0.291 OA
HETATM    7  C10 UNL     1      27.046   0.110  54.638  1.00  0.00     0.089 A 
HETATM    8  C11 UNL     1      28.387   0.385  54.776  1.00  0.00     0.038 A 
HETATM    9  C12 UNL     1      29.038   1.417  54.124  1.00  0.00     0.003 A 
HETATM   10  C13 UNL     1      28.267   2.222  53.272  1.00  0.00     0.001 A 
HETATM   11  C14 UNL     1      26.921   1.993  53.095  1.00  0.00     0.015 A 
HETATM   12  C15 UNL     1      26.361   0.949  53.783  1.00  0.00     0.013 A 
HETATM   13  C16 UNL     1      25.057   0.552  53.753  1.00  0.00     0.043 A 
HETATM   14  H9  UNL     1      23.772  -2.033  55.485  1.00  0.00     0.191 HD
ENDROOT
BRANCH   1  15
HETATM   15  C6  UNL     1      23.702   1.919  52.297  1.00  0.00     0.097 C 
BRANCH  15  16
HETATM   16  N1  UNL     1      23.967   3.102  51.619  1.00  0.00    -0.394 N 
HETATM   17  H6  UNL     1      24.040   4.106  51.929  1.00  0.00     0.159 HD
BRANCH  16  18
HETATM   18  C5  UNL     1      24.140   2.931  50.169  1.00  0.00     0.157 C 
BRANCH  18  19
HETATM   19  C4  UNL     1      25.259   3.761  49.653  1.00  0.00    -0.044 A 
HETATM   20  C3  UNL     1      25.119   5.134  49.196  1.00  0.00     0.012 A 
HETATM   21  C2  UNL     1      26.332   5.543  48.790  1.00  0.00    -0.062 A 
HETATM   22  C18 UNL     1      27.363   4.470  48.950  1.00  0.00     0.063 A 
HETATM   23  C17 UNL     1      26.516   3.385  49.519  1.00  0.00    -0.014 A 
BRANCH  21  24
HETATM   24  C1  UNL     1      26.798   6.846  48.227  1.00  0.00     0.149 C 
HETATM   25 CL1  UNL     1      28.552   6.737  47.878  1.00  0.00    -0.126 Cl
ENDBRANCH  21  24
ENDBRANCH  18  19
ENDBRANCH  16  18
ENDBRANCH  15  16
ENDBRANCH   1  15
TORSDOF 5
ENDMDL
MODEL 7
REMARK VINA RESULT:      -8.3      3.053      4.088
REMARK  5 active torsions:
REMARK  status: ('A' for Active; 'I' for Inactive)
REMARK    1  A    between atoms: C1_2  and  C2_3 
REMARK    2  A    between atoms: C4_5  and  C5_6 
REMARK    3  A    between atoms: C5_6  and  N1_7 
REMARK    4  A    between atoms: N1_7  and  C6_8 
REMARK    5  A    between atoms: C6_8  and  C7_9 
ROOT
HETATM    1  C7  UNL     1      24.330   0.050  53.667  1.00  0.00     0.013 A 
HETATM    2  C8  UNL     1      25.428  -0.342  54.530  1.00  0.00     0.152 A 
HETATM    3  N2  UNL     1      25.207  -1.154  55.536  1.00  0.00    -0.184 NA
HETATM    4  N3  UNL     1      23.920  -1.658  55.797  1.00  0.00    -0.256 N 
HETATM    5  C9  UNL     1      22.833  -1.284  54.959  1.00  0.00     0.176 A 
HETATM    6  O1  UNL     1      21.574  -1.621  55.005  1.00  0.00    -0.291 OA
HETATM    7  C10 UNL     1      20.877  -1.072  54.056  1.00  0.00     0.089 A 
HETATM    8  C11 UNL     1      19.576  -1.045  53.609  1.00  0.00     0.038 A 
HETATM    9  C12 UNL     1      19.149  -0.320  52.511  1.00  0.00     0.003 A 
HETATM   10  C13 UNL     1      20.116   0.431  51.825  1.00  0.00     0.001 A 
HETATM   11  C14 UNL     1      21.432   0.442  52.228  1.00  0.00     0.015 A 
HETATM   12  C15 UNL     1      21.764  -0.308  53.326  1.00  0.00     0.013 A 
HETATM   13  C16 UNL     1      22.999  -0.437  53.889  1.00  0.00     0.043 A 
HETATM   14  H9  UNL     1      23.717  -2.311  56.592  1.00  0.00     0.191 HD
ENDROOT
BRANCH   1  15
HETATM   15  C6  UNL     1      24.687   0.841  52.730  1.00  0.00     0.097 C 
BRANCH  15  16
HETATM   16  N1  UNL     1      24.720   1.472  51.493  1.00  0.00    -0.394 N 
HETATM   17  H6  UNL     1      24.897   1.125  50.515  1.00  0.00     0.159 HD
BRANCH  16  18
HETATM   18  C5  UNL     1      24.504   2.924  51.561  1.00  0.00     0.157 C 
BRANCH  18  19
HETATM   19  C4  UNL     1      25.348   3.646  50.575  1.00  0.00    -0.044 A 
HETATM   20  C3  UNL     1      25.030   4.955  50.026  1.00  0.00     0.012 A 
HETATM   21  C2  UNL     1      26.009   5.271  49.162  1.00  0.00    -0.062 A 
HETATM   22  C18 UNL     1      27.045   4.194  49.076  1.00  0.00     0.063 A 
HETATM   23  C17 UNL     1      26.477   3.217  50.046  1.00  0.00    -0.014 A 
BRANCH  21  24
HETATM   24  C1  UNL     1      26.220   6.478  48.306  1.00  0.00     0.149 C 
HETATM   25 CL1  UNL     1      27.754   7.271  48.786  1.00  0.00    -0.126 Cl
ENDBRANCH  21  24
ENDBRANCH  18  19
ENDBRANCH  16  18
ENDBRANCH  15  16
ENDBRANCH   1  15
TORSDOF 5
ENDMDL
MODEL 8
REMARK VINA RESULT:      -8.2      4.085      6.465
REMARK  5 active torsions:
REMARK  status: ('A' for Active; 'I' for Inactive)
REMARK    1  A    between atoms: C1_2  and  C2_3 
REMARK    2  A    between atoms: C4_5  and  C5_6 
REMARK    3  A    between atoms: C5_6  and  N1_7 
REMARK    4  A    between atoms: N1_7  and  C6_8 
REMARK    5  A    between atoms: C6_8  and  C7_9 
ROOT
HETATM    1  C7  UNL     1      24.713   2.010  51.780  1.00  0.00     0.013 A 
HETATM    2  C8  UNL     1      23.339   1.648  51.489  1.00  0.00     0.152 A 
HETATM    3  N2  UNL     1      22.782   0.644  52.123  1.00  0.00    -0.184 NA
HETATM    4  N3  UNL     1      23.494  -0.095  53.085  1.00  0.00    -0.256 N 
HETATM    5  C9  UNL     1      24.842   0.248  53.382  1.00  0.00     0.176 A 
HETATM    6  O1  UNL     1      25.686  -0.284  54.223  1.00  0.00    -0.291 OA
HETATM    7  C10 UNL     1      26.840   0.312  54.214  1.00  0.00     0.089 A 
HETATM    8  C11 UNL     1      28.061   0.215  54.841  1.00  0.00     0.038 A 
HETATM    9  C12 UNL     1      29.132   1.052  54.584  1.00  0.00     0.003 A 
HETATM   10  C13 UNL     1      28.944   2.054  53.621  1.00  0.00     0.001 A 
HETATM   11  C14 UNL     1      27.744   2.197  52.961  1.00  0.00     0.015 A 
HETATM   12  C15 UNL     1      26.738   1.324  53.282  1.00  0.00     0.013 A 
HETATM   13  C16 UNL     1      25.482   1.290  52.753  1.00  0.00     0.043 A 
HETATM   14  H9  UNL     1      23.072  -0.900  53.608  1.00  0.00     0.191 HD
ENDROOT
BRANCH   1  15
HETATM   15  C6  UNL     1      25.125   3.004  51.093  1.00  0.00     0.097 C 
BRANCH  15  16
HETATM   16  N1  UNL     1      25.918   4.064  50.672  1.00  0.00    -0.394 N 
HETATM   17  H6  UNL     1      26.708   4.593  51.125  1.00  0.00     0.159 HD
BRANCH  16  18
HETATM   18  C5  UNL     1      25.561   4.584  49.344  1.00  0.00     0.157 C 
BRANCH  18  19
HETATM   19  C4  UNL     1      26.624   5.468  48.802  1.00  0.00    -0.044 A 
HETATM   20  C3  UNL     1      28.002   5.057  48.585  1.00  0.00     0.012 A 
HETATM   21  C2  UNL     1      28.664   6.124  48.107  1.00  0.00    -0.062 A 
HETATM   22  C18 UNL     1      27.771   7.318  47.972  1.00  0.00     0.063 A 
HETATM   23  C17 UNL     1      26.490   6.735  48.458  1.00  0.00    -0.014 A 
BRANCH  21  24
HETATM   24  C1  UNL     1      30.092   6.301  47.703  1.00  0.00     0.149 C 
HETATM   25 CL1  UNL     1      30.865   4.689  47.573  1.00  0.00    -0.126 Cl
ENDBRANCH  21  24
ENDBRANCH  18  19
ENDBRANCH  16  18
ENDBRANCH  15  16
ENDBRANCH   1  15
TORSDOF 5
ENDMDL
MODEL 9
REMARK VINA RESULT:      -8.1      3.781      4.927
REMARK  5 active torsions:
REMARK  status: ('A' for Active; 'I' for Inactive)
REMARK    1  A    between atoms: C1_2  and  C2_3 
REMARK    2  A    between atoms: C4_5  and  C5_6 
REMARK    3  A    between atoms: C5_6  and  N1_7 
REMARK    4  A    between atoms: N1_7  and  C6_8 
REMARK    5  A    between atoms: C6_8  and  C7_9 
ROOT
HETATM    1  C7  UNL     1      25.499   0.966  52.548  1.00  0.00     0.013 A 
HETATM    2  C8  UNL     1      26.930   1.019  52.781  1.00  0.00     0.152 A 
HETATM    3  N2  UNL     1      27.452   0.349  53.781  1.00  0.00    -0.184 NA
HETATM    4  N3  UNL     1      26.648  -0.423  54.638  1.00  0.00    -0.256 N 
HETATM    5  C9  UNL     1      25.243  -0.486  54.423  1.00  0.00     0.176 A 
HETATM    6  O1  UNL     1      24.314  -1.127  55.076  1.00  0.00    -0.291 OA
HETATM    7  C10 UNL     1      23.131  -0.939  54.572  1.00  0.00     0.089 A 
HETATM    8  C11 UNL     1      21.832  -1.324  54.807  1.00  0.00     0.038 A 
HETATM    9  C12 UNL     1      20.754  -0.921  54.040  1.00  0.00     0.003 A 
HETATM   10  C13 UNL     1      21.020  -0.066  52.961  1.00  0.00     0.001 A 
HETATM   11  C14 UNL     1      22.301   0.354  52.679  1.00  0.00     0.015 A 
HETATM   12  C15 UNL     1      23.307  -0.098  53.492  1.00  0.00     0.013 A 
HETATM   13  C16 UNL     1      24.636   0.192  53.392  1.00  0.00     0.043 A 
HETATM   14  H9  UNL     1      27.039  -0.970  55.443  1.00  0.00     0.191 HD
ENDROOT
BRANCH   1  15
HETATM   15  C6  UNL     1      25.130   1.662  51.543  1.00  0.00     0.097 C 
BRANCH  15  16
HETATM   16  N1  UNL     1      24.386   2.535  50.759  1.00  0.00    -0.394 N 
HETATM   17  H6  UNL     1      23.688   2.387  49.985  1.00  0.00     0.159 HD
BRANCH  16  18
HETATM   18  C5  UNL     1      24.651   3.954  51.034  1.00  0.00     0.157 C 
BRANCH  18  19
HETATM   19  C4  UNL     1      25.667   4.508  50.103  1.00  0.00    -0.044 A 
HETATM   20  C3  UNL     1      25.647   5.865  49.579  1.00  0.00     0.012 A 
HETATM   21  C2  UNL     1      26.706   5.991  48.763  1.00  0.00    -0.062 A 
HETATM   22  C18 UNL     1      27.504   4.727  48.688  1.00  0.00     0.063 A 
HETATM   23  C17 UNL     1      26.708   3.868  49.606  1.00  0.00    -0.014 A 
BRANCH  21  24
HETATM   24  C1  UNL     1      27.195   7.147  47.951  1.00  0.00     0.149 C 
HETATM   25 CL1  UNL     1      25.822   7.832  47.025  1.00  0.00    -0.126 Cl
ENDBRANCH  21  24
ENDBRANCH  18  19
ENDBRANCH  16  18
ENDBRANCH  15  16
ENDBRANCH   1  15
TORSDOF 5
ENDMDL
