MODEL 1
REMARK VINA RESULT:      -7.5      0.000      0.000
REMARK  6 active torsions:
REMARK  status: ('A' for Active; 'I' for Inactive)
REMARK    1  A    between atoms: O1_2  and  C2_3 
REMARK    2  A    between atoms: C2_3  and  C3_4 
REMARK    3  A    between atoms: C7_10  and  N2_11 
REMARK    4  A    between atoms: N2_11  and  C8_12 
REMARK    5  A    between atoms: C17_24  and  C18_25 
REMARK    6  A    between atoms: C18_25  and  O4_26 
ROOT
HETATM    1  C3  UNL     1      26.197  -0.583  53.962  1.00  0.00     0.184 C 
HETATM    2  O2  UNL     1      25.303  -0.246  52.877  1.00  0.00    -0.338 OA
HETATM    3  C4  UNL     1      24.844   1.059  52.825  1.00  0.00     0.107 A 
HETATM    4  C5  UNL     1      23.837   1.229  51.976  1.00  0.00     0.090 A 
HETATM    5  C6  UNL     1      23.231   2.565  51.801  1.00  0.00     0.129 A 
HETATM    6  N1  UNL     1      22.297   3.072  51.110  1.00  0.00    -0.245 NA
HETATM    7  C7  UNL     1      22.098   4.475  51.314  1.00  0.00     0.226 A 
HETATM    8  C14 UNL     1      23.134   4.854  52.342  1.00  0.00     0.178 A 
HETATM    9  N3  UNL     1      23.804   3.595  52.591  1.00  0.00    -0.336 N 
HETATM   10  C15 UNL     1      24.879   3.363  53.483  1.00  0.00     0.132 A 
HETATM   11  C16 UNL     1      25.395   2.154  53.613  1.00  0.00     0.118 A 
HETATM   12  O3  UNL     1      26.438   1.722  54.422  1.00  0.00    -0.337 OA
HETATM   13  C17 UNL     1      27.176   0.593  53.994  1.00  0.00     0.184 C 
ENDROOT
BRANCH   7  14
HETATM   14  N2  UNL     1      22.407   5.236  50.105  1.00  0.00    -0.366 N 
HETATM   15  H9  UNL     1      21.700   5.267  49.369  1.00  0.00     0.162 HD
BRANCH  14  16
HETATM   16  C8  UNL     1      23.640   5.918  49.927  1.00  0.00     0.031 A 
HETATM   17  C9  UNL     1      23.848   7.255  50.188  1.00  0.00     0.029 A 
HETATM   18  C10 UNL     1      25.051   7.888  50.008  1.00  0.00     0.004 A 
HETATM   19  C11 UNL     1      26.106   7.138  49.541  1.00  0.00     0.024 A 
HETATM   20  C12 UNL     1      25.974   5.796  49.258  1.00  0.00     0.036 A 
HETATM   21 CL1  UNL     1      27.311   4.850  48.667  1.00  0.00    -0.084 Cl
HETATM   22  C13 UNL     1      24.745   5.240  49.463  1.00  0.00     0.053 A 
ENDBRANCH  14  16
ENDBRANCH   7  14
BRANCH   1  23
HETATM   23  C2  UNL     1      25.320  -0.585  55.193  1.00  0.00     0.202 C 
BRANCH  23  24
HETATM   24  O1  UNL     1      24.569  -1.724  55.366  1.00  0.00    -0.393 OA
HETATM   25  C1  UNL     1      23.214  -1.425  55.473  1.00  0.00     0.201 C 
ENDBRANCH  23  24
ENDBRANCH   1  23
BRANCH  13  26
HETATM   26  C18 UNL     1      28.363   0.345  54.862  1.00  0.00     0.202 C 
BRANCH  26  27
HETATM   27  O4  UNL     1      28.997  -0.819  54.494  1.00  0.00    -0.393 OA
HETATM   28  C19 UNL     1      29.948  -0.702  53.513  1.00  0.00     0.201 C 
ENDBRANCH  26  27
ENDBRANCH  13  26
TORSDOF 6
ENDMDL
MODEL 2
REMARK VINA RESULT:      -7.5      4.654      7.203
REMARK  6 active torsions:
REMARK  status: ('A' for Active; 'I' for Inactive)
REMARK    1  A    between atoms: O1_2  and  C2_3 
REMARK    2  A    between atoms: C2_3  and  C3_4 
REMARK    3  A    between atoms: C7_10  and  N2_11 
REMARK    4  A    between atoms: N2_11  and  C8_12 
REMARK    5  A    between atoms: C17_24  and  C18_25 
REMARK    6  A    between atoms: C18_25  and  O4_26 
ROOT
HETATM    1  C3  UNL     1      26.851   2.076  53.636  1.00  0.00     0.184 C 
HETATM    2  O2  UNL     1      25.481   2.535  53.593  1.00  0.00    -0.338 OA
HETATM    3  C4  UNL     1      24.509   1.588  53.318  1.00  0.00     0.107 A 
HETATM    4  C5  UNL     1      23.325   2.115  53.036  1.00  0.00     0.090 A 
HETATM    5  C6  UNL     1      22.178   1.239  52.719  1.00  0.00     0.129 A 
HETATM    6  N1  UNL     1      20.956   1.391  52.414  1.00  0.00    -0.245 NA
HETATM    7  C7  UNL     1      20.240   0.170  52.196  1.00  0.00     0.226 A 
HETATM    8  C14 UNL     1      21.268  -0.910  52.419  1.00  0.00     0.178 A 
HETATM    9  N3  UNL     1      22.457  -0.152  52.745  1.00  0.00    -0.336 N 
HETATM   10  C15 UNL     1      23.739  -0.666  53.053  1.00  0.00     0.132 A 
HETATM   11  C16 UNL     1      24.741   0.149  53.332  1.00  0.00     0.118 A 
HETATM   12  O3  UNL     1      26.058  -0.150  53.655  1.00  0.00    -0.337 OA
HETATM   13  C17 UNL     1      26.767   0.782  54.449  1.00  0.00     0.184 C 
ENDROOT
BRANCH   7  14
HETATM   14  N2  UNL     1      19.201  -0.023  53.206  1.00  0.00    -0.366 N 
HETATM   15  H9  UNL     1      19.190   0.614  54.004  1.00  0.00     0.162 HD
BRANCH  14  16
HETATM   16  C8  UNL     1      18.226  -1.051  53.110  1.00  0.00     0.031 A 
HETATM   17  C9  UNL     1      18.326  -2.294  53.696  1.00  0.00     0.029 A 
HETATM   18  C10 UNL     1      17.367  -3.267  53.586  1.00  0.00     0.004 A 
HETATM   19  C11 UNL     1      16.242  -2.979  52.848  1.00  0.00     0.024 A 
HETATM   20  C12 UNL     1      16.071  -1.758  52.233  1.00  0.00     0.036 A 
HETATM   21 CL1  UNL     1      14.646  -1.396  51.299  1.00  0.00    -0.084 Cl
HETATM   22  C13 UNL     1      17.071  -0.842  52.389  1.00  0.00     0.053 A 
ENDBRANCH  14  16
ENDBRANCH   7  14
BRANCH   1  23
HETATM   23  C2  UNL     1      27.200   1.782  52.196  1.00  0.00     0.202 C 
BRANCH  23  24
HETATM   24  O1  UNL     1      27.313   2.890  51.390  1.00  0.00    -0.393 OA
HETATM   25  C1  UNL     1      26.469   2.803  50.288  1.00  0.00     0.201 C 
ENDBRANCH  23  24
ENDBRANCH   1  23
BRANCH  13  26
HETATM   26  C18 UNL     1      28.101   0.260  54.861  1.00  0.00     0.202 C 
BRANCH  26  27
HETATM   27  O4  UNL     1      28.398  -0.898  54.181  1.00  0.00    -0.393 OA
HETATM   28  C19 UNL     1      29.613  -0.929  53.546  1.00  0.00     0.201 C 
ENDBRANCH  26  27
ENDBRANCH  13  26
TORSDOF 6
ENDMDL
MODEL 3
REMARK VINA RESULT:      -7.4      4.808      8.199
REMARK  6 active torsions:
REMARK  status: ('A' for Active; 'I' for Inactive)
REMARK    1  A    between atoms: O1_2  and  C2_3 
REMARK    2  A    between atoms: C2_3  and  C3_4 
REMARK    3  A    between atoms: C7_10  and  N2_11 
REMARK    4  A    between atoms: N2_11  and  C8_12 
REMARK    5  A    between atoms: C17_24  and  C18_25 
REMARK    6  A    between atoms: C18_25  and  O4_26 
ROOT
HETATM    1  C3  UNL     1      18.545   1.470  50.442  1.00  0.00     0.184 C 
HETATM    2  O2  UNL     1      19.967   1.536  50.194  1.00  0.00    -0.338 OA
HETATM    3  C4  UNL     1      20.801   1.027  51.175  1.00  0.00     0.107 A 
HETATM    4  C5  UNL     1      22.076   1.355  51.005  1.00  0.00     0.090 A 
HETATM    5  C6  UNL     1      23.097   0.889  51.967  1.00  0.00     0.129 A 
HETATM    6  N1  UNL     1      24.351   1.007  52.110  1.00  0.00    -0.245 NA
HETATM    7  C7  UNL     1      24.885   0.334  53.257  1.00  0.00     0.226 A 
HETATM    8  C14 UNL     1      23.683  -0.299  53.911  1.00  0.00     0.178 A 
HETATM    9  N3  UNL     1      22.602   0.097  53.035  1.00  0.00    -0.336 N 
HETATM   10  C15 UNL     1      21.231  -0.227  53.172  1.00  0.00     0.132 A 
HETATM   11  C16 UNL     1      20.346   0.208  52.292  1.00  0.00     0.118 A 
HETATM   12  O3  UNL     1      18.973   0.005  52.247  1.00  0.00    -0.337 OA
HETATM   13  C17 UNL     1      18.344   0.051  50.980  1.00  0.00     0.184 C 
ENDROOT
BRANCH   7  14
HETATM   14  N2  UNL     1      25.775  -0.756  52.865  1.00  0.00    -0.366 N 
HETATM   15  H9  UNL     1      25.366  -1.548  52.367  1.00  0.00     0.162 HD
BRANCH  14  16
HETATM   16  C8  UNL     1      27.166  -0.745  53.153  1.00  0.00     0.031 A 
HETATM   17  C9  UNL     1      28.022  -1.808  52.962  1.00  0.00     0.029 A 
HETATM   18  C10 UNL     1      29.362  -1.769  53.248  1.00  0.00     0.004 A 
HETATM   19  C11 UNL     1      29.875  -0.596  53.755  1.00  0.00     0.024 A 
HETATM   20  C12 UNL     1      29.081   0.509  53.973  1.00  0.00     0.036 A 
HETATM   21 CL1  UNL     1      29.734   1.991  54.614  1.00  0.00    -0.084 Cl
HETATM   22  C13 UNL     1      27.758   0.389  53.663  1.00  0.00     0.053 A 
ENDBRANCH  14  16
ENDBRANCH   7  14
BRANCH   1  23
HETATM   23  C2  UNL     1      18.299   2.494  51.526  1.00  0.00     0.202 C 
BRANCH  23  24
HETATM   24  O1  UNL     1      18.018   3.761  51.072  1.00  0.00    -0.393 OA
HETATM   25  C1  UNL     1      16.649   4.013  51.089  1.00  0.00     0.201 C 
ENDBRANCH  23  24
ENDBRANCH   1  23
BRANCH  13  26
HETATM   26  C18 UNL     1      16.910  -0.350  51.058  1.00  0.00     0.202 C 
BRANCH  26  27
HETATM   27  O4  UNL     1      16.487  -0.380  52.366  1.00  0.00    -0.393 OA
HETATM   28  C19 UNL     1      15.168  -0.071  52.580  1.00  0.00     0.201 C 
ENDBRANCH  26  27
ENDBRANCH  13  26
TORSDOF 6
ENDMDL
MODEL 4
REMARK VINA RESULT:      -7.2      5.228      7.846
REMARK  6 active torsions:
REMARK  status: ('A' for Active; 'I' for Inactive)
REMARK    1  A    between atoms: O1_2  and  C2_3 
REMARK    2  A    between atoms: C2_3  and  C3_4 
REMARK    3  A    between atoms: C7_10  and  N2_11 
REMARK    4  A    between atoms: N2_11  and  C8_12 
REMARK    5  A    between atoms: C17_24  and  C18_25 
REMARK    6  A    between atoms: C18_25  and  O4_26 
ROOT
HETATM    1  C3  UNL     1      26.353   0.305  53.029  1.00  0.00     0.184 C 
HETATM    2  O2  UNL     1      25.274  -0.653  53.104  1.00  0.00    -0.338 OA
HETATM    3  C4  UNL     1      23.985  -0.147  53.135  1.00  0.00     0.107 A 
HETATM    4  C5  UNL     1      23.072  -1.051  53.466  1.00  0.00     0.090 A 
HETATM    5  C6  UNL     1      21.646  -0.672  53.545  1.00  0.00     0.129 A 
HETATM    6  N1  UNL     1      20.551  -1.250  53.819  1.00  0.00    -0.245 NA
HETATM    7  C7  UNL     1      19.397  -0.404  53.748  1.00  0.00     0.226 A 
HETATM    8  C14 UNL     1      19.946   0.944  53.355  1.00  0.00     0.178 A 
HETATM    9  N3  UNL     1      21.365   0.686  53.245  1.00  0.00    -0.336 N 
HETATM   10  C15 UNL     1      22.376   1.613  52.896  1.00  0.00     0.132 A 
HETATM   11  C16 UNL     1      23.642   1.238  52.836  1.00  0.00     0.118 A 
HETATM   12  O3  UNL     1      24.769   1.983  52.517  1.00  0.00    -0.337 OA
HETATM   13  C17 UNL     1      25.876   1.296  51.964  1.00  0.00     0.184 C 
ENDROOT
BRANCH   7  14
HETATM   14  N2  UNL     1      18.498  -0.823  52.676  1.00  0.00    -0.366 N 
HETATM   15  H9  UNL     1      18.567  -0.336  51.780  1.00  0.00     0.162 HD
BRANCH  14  16
HETATM   16  C8  UNL     1      17.548  -1.866  52.840  1.00  0.00     0.031 A 
HETATM   17  C9  UNL     1      17.757  -3.020  53.563  1.00  0.00     0.029 A 
HETATM   18  C10 UNL     1      16.820  -4.010  53.705  1.00  0.00     0.004 A 
HETATM   19  C11 UNL     1      15.602  -3.834  53.089  1.00  0.00     0.024 A 
HETATM   20  C12 UNL     1      15.319  -2.706  52.350  1.00  0.00     0.036 A 
HETATM   21 CL1  UNL     1      13.777  -2.486  51.571  1.00  0.00    -0.084 Cl
HETATM   22  C13 UNL     1      16.304  -1.767  52.255  1.00  0.00     0.053 A 
ENDBRANCH  14  16
ENDBRANCH   7  14
BRANCH   1  23
HETATM   23  C2  UNL     1      26.381   0.956  54.392  1.00  0.00     0.202 C 
BRANCH  23  24
HETATM   24  O1  UNL     1      27.338   0.466  55.248  1.00  0.00    -0.393 OA
HETATM   25  C1  UNL     1      28.538   0.229  54.584  1.00  0.00     0.201 C 
ENDBRANCH  23  24
ENDBRANCH   1  23
BRANCH  13  26
HETATM   26  C18 UNL     1      26.943   2.234  51.514  1.00  0.00     0.202 C 
BRANCH  26  27
HETATM   27  O4  UNL     1      26.799   2.526  50.178  1.00  0.00    -0.393 OA
HETATM   28  C19 UNL     1      26.513   3.832  49.874  1.00  0.00     0.201 C 
ENDBRANCH  26  27
ENDBRANCH  13  26
TORSDOF 6
ENDMDL
MODEL 5
REMARK VINA RESULT:      -7.2      5.060      7.540
REMARK  6 active torsions:
REMARK  status: ('A' for Active; 'I' for Inactive)
REMARK    1  A    between atoms: O1_2  and  C2_3 
REMARK    2  A    between atoms: C2_3  and  C3_4 
REMARK    3  A    between atoms: C7_10  and  N2_11 
REMARK    4  A    between atoms: N2_11  and  C8_12 
REMARK    5  A    between atoms: C17_24  and  C18_25 
REMARK    6  A    between atoms: C18_25  and  O4_26 
ROOT
HETATM    1  C3  UNL     1      22.941   3.418  49.898  1.00  0.00     0.184 C 
HETATM    2  O2  UNL     1      24.367   3.189  49.954  1.00  0.00    -0.338 OA
HETATM    3  C4  UNL     1      25.185   4.209  49.496  1.00  0.00     0.107 A 
HETATM    4  C5  UNL     1      26.448   3.836  49.331  1.00  0.00     0.090 A 
HETATM    5  C6  UNL     1      27.452   4.807  48.848  1.00  0.00     0.129 A 
HETATM    6  N1  UNL     1      28.692   4.799  48.585  1.00  0.00    -0.245 NA
HETATM    7  C7  UNL     1      29.213   6.052  48.128  1.00  0.00     0.226 A 
HETATM    8  C14 UNL     1      28.019   6.973  48.123  1.00  0.00     0.178 A 
HETATM    9  N3  UNL     1      26.955   6.111  48.592  1.00  0.00    -0.336 N 
HETATM   10  C15 UNL     1      25.597   6.460  48.785  1.00  0.00     0.132 A 
HETATM   11  C16 UNL     1      24.727   5.564  49.218  1.00  0.00     0.118 A 
HETATM   12  O3  UNL     1      23.368   5.703  49.470  1.00  0.00    -0.337 OA
HETATM   13  C17 UNL     1      22.788   4.844  50.433  1.00  0.00     0.184 C 
ENDROOT
BRANCH   7  14
HETATM   14  N2  UNL     1      30.170   6.608  49.082  1.00  0.00    -0.366 N 
HETATM   15  H9  UNL     1      29.806   6.970  49.965  1.00  0.00     0.162 HD
BRANCH  14  16
HETATM   16  C8  UNL     1      31.565   6.660  48.819  1.00  0.00     0.031 A 
HETATM   17  C9  UNL     1      32.327   7.808  48.817  1.00  0.00     0.029 A 
HETATM   18  C10 UNL     1      33.674   7.828  48.561  1.00  0.00     0.004 A 
HETATM   19  C11 UNL     1      34.293   6.628  48.292  1.00  0.00     0.024 A 
HETATM   20  C12 UNL     1      33.597   5.439  48.277  1.00  0.00     0.036 A 
HETATM   21 CL1  UNL     1      34.383   3.923  47.937  1.00  0.00    -0.084 Cl
HETATM   22  C13 UNL     1      32.260   5.504  48.541  1.00  0.00     0.053 A 
ENDBRANCH  14  16
ENDBRANCH   7  14
BRANCH   1  23
HETATM   23  C2  UNL     1      22.602   3.359  48.426  1.00  0.00     0.202 C 
BRANCH  23  24
HETATM   24  O1  UNL     1      22.479   2.091  47.911  1.00  0.00    -0.393 OA
HETATM   25  C1  UNL     1      21.588   1.326  48.657  1.00  0.00     0.201 C 
ENDBRANCH  23  24
ENDBRANCH   1  23
BRANCH  13  26
HETATM   26  C18 UNL     1      21.374   5.213  50.725  1.00  0.00     0.202 C 
BRANCH  26  27
HETATM   27  O4  UNL     1      20.791   4.281  51.551  1.00  0.00    -0.393 OA
HETATM   28  C19 UNL     1      19.519   3.892  51.216  1.00  0.00     0.201 C 
ENDBRANCH  26  27
ENDBRANCH  13  26
TORSDOF 6
ENDMDL
MODEL 6
REMARK VINA RESULT:      -7.0      4.791      7.045
REMARK  6 active torsions:
REMARK  status: ('A' for Active; 'I' for Inactive)
REMARK    1  A    between atoms: O1_2  and  C2_3 
REMARK    2  A    between atoms: C2_3  and  C3_4 
REMARK    3  A    between atoms: C7_10  and  N2_11 
REMARK    4  A    between atoms: N2_11  and  C8_12 
REMARK    5  A    between atoms: C17_24  and  C18_25 
REMARK    6  A    between atoms: C18_25  and  O4_26 
ROOT
HETATM    1  C3  UNL     1      26.828   1.363  52.485  1.00  0.00     0.184 C 
HETATM    2  O2  UNL     1      26.034   0.230  52.901  1.00  0.00    -0.338 OA
HETATM    3  C4  UNL     1      24.677   0.443  53.074  1.00  0.00     0.107 A 
HETATM    4  C5  UNL     1      24.063  -0.553  53.701  1.00  0.00     0.090 A 
HETATM    5  C6  UNL     1      22.610  -0.481  53.965  1.00  0.00     0.129 A 
HETATM    6  N1  UNL     1      21.735  -1.215  54.515  1.00  0.00    -0.245 NA
HETATM    7  C7  UNL     1      20.412  -0.668  54.512  1.00  0.00     0.226 A 
HETATM    8  C14 UNL     1      20.559   0.662  53.817  1.00  0.00     0.178 A 
HETATM    9  N3  UNL     1      21.971   0.699  53.504  1.00  0.00    -0.336 N 
HETATM   10  C15 UNL     1      22.671   1.734  52.839  1.00  0.00     0.132 A 
HETATM   11  C16 UNL     1      23.971   1.635  52.621  1.00  0.00     0.118 A 
HETATM   12  O3  UNL     1      24.831   2.527  51.994  1.00  0.00    -0.337 OA
HETATM   13  C17 UNL     1      25.988   1.998  51.375  1.00  0.00     0.184 C 
ENDROOT
BRANCH   7  14
HETATM   14  N2  UNL     1      19.507  -1.473  53.694  1.00  0.00    -0.366 N 
HETATM   15  H9  UNL     1      19.565  -2.489  53.781  1.00  0.00     0.162 HD
BRANCH  14  16
HETATM   16  C8  UNL     1      18.569  -0.893  52.799  1.00  0.00     0.031 A 
HETATM   17  C9  UNL     1      18.890  -0.246  51.626  1.00  0.00     0.029 A 
HETATM   18  C10 UNL     1      17.961   0.303  50.780  1.00  0.00     0.004 A 
HETATM   19  C11 UNL     1      16.634   0.198  51.130  1.00  0.00     0.024 A 
HETATM   20  C12 UNL     1      16.236  -0.435  52.287  1.00  0.00     0.036 A 
HETATM   21 CL1  UNL     1      14.556  -0.566  52.726  1.00  0.00    -0.084 Cl
HETATM   22  C13 UNL     1      17.220  -0.955  53.076  1.00  0.00     0.053 A 
ENDBRANCH  14  16
ENDBRANCH   7  14
BRANCH   1  23
HETATM   23  C2  UNL     1      26.877   2.261  53.700  1.00  0.00     0.202 C 
BRANCH  23  24
HETATM   24  O1  UNL     1      28.138   2.659  54.075  1.00  0.00    -0.393 OA
HETATM   25  C1  UNL     1      29.045   1.607  54.000  1.00  0.00     0.201 C 
ENDBRANCH  23  24
ENDBRANCH   1  23
BRANCH  13  26
HETATM   26  C18 UNL     1      26.726   3.037  50.600  1.00  0.00     0.202 C 
BRANCH  26  27
HETATM   27  O4  UNL     1      25.874   3.707  49.755  1.00  0.00    -0.393 OA
HETATM   28  C19 UNL     1      26.357   4.868  49.210  1.00  0.00     0.201 C 
ENDBRANCH  26  27
ENDBRANCH  13  26
TORSDOF 6
ENDMDL
MODEL 7
REMARK VINA RESULT:      -6.9      5.523      8.206
REMARK  6 active torsions:
REMARK  status: ('A' for Active; 'I' for Inactive)
REMARK    1  A    between atoms: O1_2  and  C2_3 
REMARK    2  A    between atoms: C2_3  and  C3_4 
REMARK    3  A    between atoms: C7_10  and  N2_11 
REMARK    4  A    between atoms: N2_11  and  C8_12 
REMARK    5  A    between atoms: C17_24  and  C18_25 
REMARK    6  A    between atoms: C18_25  and  O4_26 
ROOT
HETATM    1  C3  UNL     1      23.305   4.120  49.706  1.00  0.00     0.184 C 
HETATM    2  O2  UNL     1      24.702   3.752  49.689  1.00  0.00    -0.338 OA
HETATM    3  C4  UNL     1      25.608   4.741  49.344  1.00  0.00     0.107 A 
HETATM    4  C5  UNL     1      26.826   4.275  49.093  1.00  0.00     0.090 A 
HETATM    5  C6  UNL     1      27.912   5.202  48.710  1.00  0.00     0.129 A 
HETATM    6  N1  UNL     1      29.140   5.111  48.412  1.00  0.00    -0.245 NA
HETATM    7  C7  UNL     1      29.773   6.360  48.106  1.00  0.00     0.226 A 
HETATM    8  C14 UNL     1      28.675   7.382  48.257  1.00  0.00     0.178 A 
HETATM    9  N3  UNL     1      27.540   6.570  48.641  1.00  0.00    -0.336 N 
HETATM   10  C15 UNL     1      26.226   7.017  48.918  1.00  0.00     0.132 A 
HETATM   11  C16 UNL     1      25.280   6.159  49.257  1.00  0.00     0.118 A 
HETATM   12  O3  UNL     1      23.946   6.391  49.566  1.00  0.00    -0.337 OA
HETATM   13  C17 UNL     1      23.302   5.470  50.426  1.00  0.00     0.184 C 
ENDROOT
BRANCH   7  14
HETATM   14  N2  UNL     1      30.796   6.692  49.094  1.00  0.00    -0.366 N 
HETATM   15  H9  UNL     1      30.485   6.983  50.022  1.00  0.00     0.162 HD
BRANCH  14  16
HETATM   16  C8  UNL     1      32.185   6.623  48.807  1.00  0.00     0.031 A 
HETATM   17  C9  UNL     1      33.042   7.702  48.776  1.00  0.00     0.029 A 
HETATM   18  C10 UNL     1      34.380   7.605  48.496  1.00  0.00     0.004 A 
HETATM   19  C11 UNL     1      34.890   6.354  48.231  1.00  0.00     0.024 A 
HETATM   20  C12 UNL     1      34.096   5.228  48.243  1.00  0.00     0.036 A 
HETATM   21 CL1  UNL     1      34.745   3.648  47.907  1.00  0.00    -0.084 Cl
HETATM   22  C13 UNL     1      32.775   5.408  48.530  1.00  0.00     0.053 A 
ENDBRANCH  14  16
ENDBRANCH   7  14
BRANCH   1  23
HETATM   23  C2  UNL     1      22.937   4.289  48.250  1.00  0.00     0.202 C 
BRANCH  23  24
HETATM   24  O1  UNL     1      22.144   3.291  47.734  1.00  0.00    -0.393 OA
HETATM   25  C1  UNL     1      21.427   3.734  46.628  1.00  0.00     0.201 C 
ENDBRANCH  23  24
ENDBRANCH   1  23
BRANCH  13  26
HETATM   26  C18 UNL     1      21.936   5.930  50.806  1.00  0.00     0.202 C 
BRANCH  26  27
HETATM   27  O4  UNL     1      21.897   7.301  50.908  1.00  0.00    -0.393 OA
HETATM   28  C19 UNL     1      20.898   7.929  50.209  1.00  0.00     0.201 C 
ENDBRANCH  26  27
ENDBRANCH  13  26
TORSDOF 6
ENDMDL
MODEL 8
REMARK VINA RESULT:      -6.9      5.398      8.881
REMARK  6 active torsions:
REMARK  status: ('A' for Active; 'I' for Inactive)
REMARK    1  A    between atoms: O1_2  and  C2_3 
REMARK    2  A    between atoms: C2_3  and  C3_4 
REMARK    3  A    between atoms: C7_10  and  N2_11 
REMARK    4  A    between atoms: N2_11  and  C8_12 
REMARK    5  A    between atoms: C17_24  and  C18_25 
REMARK    6  A    between atoms: C18_25  and  O4_26 
ROOT
HETATM    1  C3  UNL     1      29.680   8.629  47.749  1.00  0.00     0.184 C 
HETATM    2  O2  UNL     1      29.256   7.254  47.616  1.00  0.00    -0.338 OA
HETATM    3  C4  UNL     1      28.125   6.874  48.319  1.00  0.00     0.107 A 
HETATM    4  C5  UNL     1      27.949   5.560  48.363  1.00  0.00     0.090 A 
HETATM    5  C6  UNL     1      26.787   4.989  49.076  1.00  0.00     0.129 A 
HETATM    6  N1  UNL     1      26.325   3.832  49.312  1.00  0.00    -0.245 NA
HETATM    7  C7  UNL     1      25.117   3.818  50.082  1.00  0.00     0.226 A 
HETATM    8  C14 UNL     1      24.827   5.273  50.348  1.00  0.00     0.178 A 
HETATM    9  N3  UNL     1      25.923   5.940  49.679  1.00  0.00    -0.336 N 
HETATM   10  C15 UNL     1      26.154   7.335  49.603  1.00  0.00     0.132 A 
HETATM   11  C16 UNL     1      27.205   7.809  48.957  1.00  0.00     0.118 A 
HETATM   12  O3  UNL     1      27.606   9.125  48.768  1.00  0.00    -0.337 OA
HETATM   13  C17 UNL     1      28.375   9.418  47.617  1.00  0.00     0.184 C 
ENDROOT
BRANCH   7  14
HETATM   14  N2  UNL     1      23.996   3.300  49.301  1.00  0.00    -0.366 N 
HETATM   15  H9  UNL     1      23.886   3.641  48.344  1.00  0.00     0.162 HD
BRANCH  14  16
HETATM   16  C8  UNL     1      23.074   2.356  49.824  1.00  0.00     0.031 A 
HETATM   17  C9  UNL     1      22.015   1.815  49.128  1.00  0.00     0.029 A 
HETATM   18  C10 UNL     1      21.140   0.903  49.659  1.00  0.00     0.004 A 
HETATM   19  C11 UNL     1      21.337   0.511  50.963  1.00  0.00     0.024 A 
HETATM   20  C12 UNL     1      22.374   1.008  51.722  1.00  0.00     0.036 A 
HETATM   21 CL1  UNL     1      22.620   0.509  53.373  1.00  0.00    -0.084 Cl
HETATM   22  C13 UNL     1      23.201   1.911  51.122  1.00  0.00     0.053 A 
ENDBRANCH  14  16
ENDBRANCH   7  14
BRANCH   1  23
HETATM   23  C2  UNL     1      30.225   8.726  49.155  1.00  0.00     0.202 C 
BRANCH  23  24
HETATM   24  O1  UNL     1      31.261   7.867  49.434  1.00  0.00    -0.393 OA
HETATM   25  C1  UNL     1      32.412   8.215  48.734  1.00  0.00     0.201 C 
ENDBRANCH  23  24
ENDBRANCH   1  23
BRANCH  13  26
HETATM   26  C18 UNL     1      28.589  10.884  47.452  1.00  0.00     0.202 C 
BRANCH  26  27
HETATM   27  O4  UNL     1      28.410  11.537  48.649  1.00  0.00    -0.393 OA
HETATM   28  C19 UNL     1      29.293  12.550  48.920  1.00  0.00     0.201 C 
ENDBRANCH  26  27
ENDBRANCH  13  26
TORSDOF 6
ENDMDL
MODEL 9
REMARK VINA RESULT:      -6.9      4.612      8.704
REMARK  6 active torsions:
REMARK  status: ('A' for Active; 'I' for Inactive)
REMARK    1  A    between atoms: O1_2  and  C2_3 
REMARK    2  A    between atoms: C2_3  and  C3_4 
REMARK    3  A    between atoms: C7_10  and  N2_11 
REMARK    4  A    between atoms: N2_11  and  C8_12 
REMARK    5  A    between atoms: C17_24  and  C18_25 
REMARK    6  A    between atoms: C18_25  and  O4_26 
ROOT
HETATM    1  C3  UNL     1      26.743   7.439  48.095  1.00  0.00     0.184 C 
HETATM    2  O2  UNL     1      26.835   6.016  48.327  1.00  0.00    -0.338 OA
HETATM    3  C4  UNL     1      26.013   5.484  49.307  1.00  0.00     0.107 A 
HETATM    4  C5  UNL     1      26.334   4.242  49.647  1.00  0.00     0.090 A 
HETATM    5  C6  UNL     1      25.553   3.529  50.679  1.00  0.00     0.129 A 
HETATM    6  N1  UNL     1      25.576   2.387  51.229  1.00  0.00    -0.245 NA
HETATM    7  C7  UNL     1      24.558   2.180  52.215  1.00  0.00     0.226 A 
HETATM    8  C14 UNL     1      23.792   3.478  52.239  1.00  0.00     0.178 A 
HETATM    9  N3  UNL     1      24.482   4.269  51.242  1.00  0.00    -0.336 N 
HETATM   10  C15 UNL     1      24.179   5.594  50.845  1.00  0.00     0.132 A 
HETATM   11  C16 UNL     1      24.900   6.200  49.918  1.00  0.00     0.118 A 
HETATM   12  O3  UNL     1      24.769   7.479  49.394  1.00  0.00    -0.337 OA
HETATM   13  C17 UNL     1      25.235   7.699  48.076  1.00  0.00     0.184 C 
ENDROOT
BRANCH   7  14
HETATM   14  N2  UNL     1      23.617   1.143  51.796  1.00  0.00    -0.366 N 
HETATM   15  H9  UNL     1      23.479   1.003  50.794  1.00  0.00     0.162 HD
BRANCH  14  16
HETATM   16  C8  UNL     1      22.902   0.342  52.725  1.00  0.00     0.031 A 
HETATM   17  C9  UNL     1      23.465  -0.330  53.789  1.00  0.00     0.029 A 
HETATM   18  C10 UNL     1      22.749  -1.096  54.671  1.00  0.00     0.004 A 
HETATM   19  C11 UNL     1      21.390  -1.195  54.478  1.00  0.00     0.024 A 
HETATM   20  C12 UNL     1      20.756  -0.552  53.437  1.00  0.00     0.036 A 
HETATM   21 CL1  UNL     1      19.036  -0.680  53.195  1.00  0.00    -0.084 Cl
HETATM   22  C13 UNL     1      21.538   0.191  52.602  1.00  0.00     0.053 A 
ENDBRANCH  14  16
ENDBRANCH   7  14
BRANCH   1  23
HETATM   23  C2  UNL     1      27.380   8.067  49.313  1.00  0.00     0.202 C 
BRANCH  23  24
HETATM   24  O1  UNL     1      28.276   9.074  49.044  1.00  0.00    -0.393 OA
HETATM   25  C1  UNL     1      28.989   8.818  47.877  1.00  0.00     0.201 C 
ENDBRANCH  23  24
ENDBRANCH   1  23
BRANCH  13  26
HETATM   26  C18 UNL     1      24.879   9.060  47.582  1.00  0.00     0.202 C 
BRANCH  26  27
HETATM   27  O4  UNL     1      25.703   9.429  46.544  1.00  0.00    -0.393 OA
HETATM   28  C19 UNL     1      26.058  10.752  46.498  1.00  0.00     0.201 C 
ENDBRANCH  26  27
ENDBRANCH  13  26
TORSDOF 6
ENDMDL
