MODEL 1
REMARK VINA RESULT:      -8.7      0.000      0.000
REMARK  6 active torsions:
REMARK  status: ('A' for Active; 'I' for Inactive)
REMARK    1  A    between atoms: C2_2  and  C3_3 
REMARK       I    between atoms: C3_3  and  N1_5 
REMARK    2  A    between atoms: N1_5  and  C4_6 
REMARK    3  A    between atoms: C9_11  and  N2_12 
REMARK    4  A    between atoms: N2_12  and  C11_14 
REMARK    5  A    between atoms: C11_14  and  C12_15 
REMARK    6  A    between atoms: C12_15  and  N3_16 
ROOT
HETATM    1  C4  UNL     1      26.000   0.800  51.990  1.00  0.00     0.062 A 
HETATM    2  C5  UNL     1      26.445   1.855  51.178  1.00  0.00     0.050 A 
HETATM    3  C6  UNL     1      25.480   2.810  50.944  1.00  0.00     0.049 A 
HETATM    4  C7  UNL     1      24.149   2.824  51.420  1.00  0.00     0.085 A 
HETATM    5  C8  UNL     1      23.808   1.767  52.195  1.00  0.00     0.069 A 
HETATM    6  C9  UNL     1      24.729   0.778  52.467  1.00  0.00     0.059 A 
HETATM    7  O2  UNL     1      23.681   3.983  50.876  1.00  0.00    -0.350 OA
HETATM    8  C15 UNL     1      22.478   4.494  50.532  1.00  0.00     0.175 C 
HETATM    9  C16 UNL     1      22.404   5.830  49.880  1.00  0.00     0.027 C 
HETATM   10  C17 UNL     1      22.860   6.962  50.667  1.00  0.00     0.008 C 
HETATM   11  C18 UNL     1      24.229   7.144  51.138  1.00  0.00     0.060 C 
HETATM   12  C19 UNL     1      25.298   7.236  50.075  1.00  0.00     0.050 A 
HETATM   13  C20 UNL     1      26.182   7.558  49.137  1.00  0.00     0.034 A 
HETATM   14  C21 UNL     1      26.693   6.389  48.946  1.00  0.00     0.089 A 
HETATM   15  C22 UNL     1      27.381   5.096  48.619  1.00  0.00     0.151 A 
HETATM   16  N4  UNL     1      27.158   3.886  49.130  1.00  0.00    -0.237 NA
HETATM   17  C23 UNL     1      26.157   3.775  50.103  1.00  0.00     0.182 A 
HETATM   18  N5  UNL     1      25.484   4.776  50.495  1.00  0.00    -0.146 NA
HETATM   19  N6  UNL     1      25.777   5.971  49.920  1.00  0.00    -0.233 N 
ENDROOT
BRANCH   6  20
HETATM   20  N2  UNL     1      24.154  -0.249  53.308  1.00  0.00    -0.382 N 
HETATM   21  C10 UNL     1      24.843  -0.510  54.553  1.00  0.00     0.150 C 
BRANCH  20  22
HETATM   22  C11 UNL     1      22.959  -0.889  52.805  1.00  0.00     0.152 C 
BRANCH  22  23
HETATM   23  C12 UNL     1      22.044  -1.427  53.849  1.00  0.00     0.291 C 
BRANCH  23  24
HETATM   24  N3  UNL     1      20.782  -0.671  53.792  1.00  0.00     0.081 N 
HETATM   25  C13 UNL     1      20.738  -0.137  52.430  1.00  0.00     0.309 C 
HETATM   26  C14 UNL     1      20.829   0.427  54.751  1.00  0.00     0.309 C 
ENDBRANCH  23  24
ENDBRANCH  22  23
ENDBRANCH  20  22
ENDBRANCH   6  20
BRANCH   1  27
HETATM   27  N1  UNL     1      26.839  -0.304  52.361  1.00  0.00    -0.322 N 
HETATM   28  C3  UNL     1      27.860   0.103  53.254  1.00  0.00     0.244 C 
HETATM   29  O1  UNL     1      27.822   1.333  53.534  1.00  0.00    -0.268 OA
HETATM   30  H4  UNL     1      26.765  -1.298  52.054  1.00  0.00     0.169 HD
BRANCH  28  31
HETATM   31  C2  UNL     1      28.848  -0.824  53.785  1.00  0.00     0.064 C 
HETATM   32  C1  UNL     1      30.137  -0.715  53.535  1.00  0.00     0.017 C 
ENDBRANCH  28  31
ENDBRANCH   1  27
TORSDOF 6
ENDMDL
MODEL 2
REMARK VINA RESULT:      -8.0      1.717      2.582
REMARK  6 active torsions:
REMARK  status: ('A' for Active; 'I' for Inactive)
REMARK    1  A    between atoms: C2_2  and  C3_3 
REMARK       I    between atoms: C3_3  and  N1_5 
REMARK    2  A    between atoms: N1_5  and  C4_6 
REMARK    3  A    between atoms: C9_11  and  N2_12 
REMARK    4  A    between atoms: N2_12  and  C11_14 
REMARK    5  A    between atoms: C11_14  and  C12_15 
REMARK    6  A    between atoms: C12_15  and  N3_16 
ROOT
HETATM    1  C4  UNL     1      25.684   2.298  50.825  1.00  0.00     0.062 A 
HETATM    2  C5  UNL     1      26.595   3.162  50.196  1.00  0.00     0.050 A 
HETATM    3  C6  UNL     1      25.996   4.251  49.601  1.00  0.00     0.049 A 
HETATM    4  C7  UNL     1      24.618   4.563  49.566  1.00  0.00     0.085 A 
HETATM    5  C8  UNL     1      23.814   3.674  50.198  1.00  0.00     0.069 A 
HETATM    6  C9  UNL     1      24.352   2.565  50.813  1.00  0.00     0.059 A 
HETATM    7  O2  UNL     1      24.623   5.726  48.854  1.00  0.00    -0.350 OA
HETATM    8  C15 UNL     1      23.751   6.413  48.084  1.00  0.00     0.175 C 
HETATM    9  C16 UNL     1      24.192   7.664  47.410  1.00  0.00     0.027 C 
HETATM   10  C17 UNL     1      24.576   8.767  48.272  1.00  0.00     0.008 C 
HETATM   11  C18 UNL     1      25.703   8.738  49.200  1.00  0.00     0.060 C 
HETATM   12  C19 UNL     1      27.068   8.517  48.590  1.00  0.00     0.050 A 
HETATM   13  C20 UNL     1      28.268   8.569  48.024  1.00  0.00     0.034 A 
HETATM   14  C21 UNL     1      28.553   7.312  48.066  1.00  0.00     0.089 A 
HETATM   15  C22 UNL     1      29.022   5.887  48.048  1.00  0.00     0.151 A 
HETATM   16  N4  UNL     1      28.386   4.799  48.481  1.00  0.00    -0.237 NA
HETATM   17  C23 UNL     1      27.110   4.979  49.031  1.00  0.00     0.182 A 
HETATM   18  N5  UNL     1      26.571   6.123  49.124  1.00  0.00    -0.146 NA
HETATM   19  N6  UNL     1      27.290   7.176  48.657  1.00  0.00    -0.233 N 
ENDROOT
BRANCH   6  20
HETATM   20  N2  UNL     1      23.319   1.756  51.422  1.00  0.00    -0.382 N 
HETATM   21  C10 UNL     1      22.331   1.204  50.521  1.00  0.00     0.150 C 
BRANCH  20  22
HETATM   22  C11 UNL     1      23.398   1.595  52.856  1.00  0.00     0.152 C 
BRANCH  22  23
HETATM   23  C12 UNL     1      22.348   0.723  53.453  1.00  0.00     0.291 C 
BRANCH  23  24
HETATM   24  N3  UNL     1      22.893  -0.639  53.573  1.00  0.00     0.081 N 
HETATM   25  C13 UNL     1      22.034  -1.289  54.565  1.00  0.00     0.309 C 
HETATM   26  C14 UNL     1      24.261  -0.574  54.072  1.00  0.00     0.309 C 
ENDBRANCH  23  24
ENDBRANCH  22  23
ENDBRANCH  20  22
ENDBRANCH   6  20
BRANCH   1  27
HETATM   27  N1  UNL     1      26.088   1.103  51.507  1.00  0.00    -0.322 N 
HETATM   28  C3  UNL     1      27.202   1.341  52.349  1.00  0.00     0.244 C 
HETATM   29  O1  UNL     1      27.603   2.538  52.324  1.00  0.00    -0.268 OA
HETATM   30  H4  UNL     1      25.665   0.151  51.441  1.00  0.00     0.169 HD
BRANCH  28  31
HETATM   31  C2  UNL     1      27.812   0.293  53.154  1.00  0.00     0.064 C 
HETATM   32  C1  UNL     1      29.029   0.389  53.649  1.00  0.00     0.017 C 
ENDBRANCH  28  31
ENDBRANCH   1  27
TORSDOF 6
ENDMDL
MODEL 3
REMARK VINA RESULT:      -7.9      3.219      5.724
REMARK  6 active torsions:
REMARK  status: ('A' for Active; 'I' for Inactive)
REMARK    1  A    between atoms: C2_2  and  C3_3 
REMARK       I    between atoms: C3_3  and  N1_5 
REMARK    2  A    between atoms: N1_5  and  C4_6 
REMARK    3  A    between atoms: C9_11  and  N2_12 
REMARK    4  A    between atoms: N2_12  and  C11_14 
REMARK    5  A    between atoms: C11_14  and  C12_15 
REMARK    6  A    between atoms: C12_15  and  N3_16 
ROOT
HETATM    1  C4  UNL     1      26.188   4.307  49.302  1.00  0.00     0.062 A 
HETATM    2  C5  UNL     1      27.543   4.439  48.956  1.00  0.00     0.050 A 
HETATM    3  C6  UNL     1      27.890   5.719  48.583  1.00  0.00     0.049 A 
HETATM    4  C7  UNL     1      27.051   6.854  48.517  1.00  0.00     0.085 A 
HETATM    5  C8  UNL     1      25.761   6.633  48.868  1.00  0.00     0.069 A 
HETATM    6  C9  UNL     1      25.351   5.375  49.252  1.00  0.00     0.059 A 
HETATM    7  O2  UNL     1      27.925   7.810  48.092  1.00  0.00    -0.350 OA
HETATM    8  C15 UNL     1      27.852   8.990  47.437  1.00  0.00     0.175 C 
HETATM    9  C16 UNL     1      29.102   9.724  47.100  1.00  0.00     0.027 C 
HETATM   10  C17 UNL     1      29.903  10.191  48.219  1.00  0.00     0.008 C 
HETATM   11  C18 UNL     1      30.546   9.317  49.196  1.00  0.00     0.060 C 
HETATM   12  C19 UNL     1      31.564   8.341  48.655  1.00  0.00     0.050 A 
HETATM   13  C20 UNL     1      32.618   7.669  48.206  1.00  0.00     0.034 A 
HETATM   14  C21 UNL     1      32.042   6.537  47.982  1.00  0.00     0.089 A 
HETATM   15  C22 UNL     1      31.511   5.168  47.673  1.00  0.00     0.151 A 
HETATM   16  N4  UNL     1      30.265   4.714  47.798  1.00  0.00    -0.237 NA
HETATM   17  C23 UNL     1      29.302   5.610  48.279  1.00  0.00     0.182 A 
HETATM   18  N5  UNL     1      29.588   6.805  48.590  1.00  0.00    -0.146 NA
HETATM   19  N6  UNL     1      30.882   7.183  48.430  1.00  0.00    -0.233 N 
ENDROOT
BRANCH   6  20
HETATM   20  N2  UNL     1      23.943   5.367  49.582  1.00  0.00    -0.382 N 
HETATM   21  C10 UNL     1      23.036   5.088  48.489  1.00  0.00     0.150 C 
BRANCH  20  22
HETATM   22  C11 UNL     1      23.610   5.635  50.963  1.00  0.00     0.152 C 
BRANCH  22  23
HETATM   23  C12 UNL     1      22.263   5.165  51.391  1.00  0.00     0.291 C 
BRANCH  23  24
HETATM   24  N3  UNL     1      22.441   4.048  52.333  1.00  0.00     0.081 N 
HETATM   25  C13 UNL     1      23.770   4.263  52.907  1.00  0.00     0.309 C 
HETATM   26  C14 UNL     1      22.418   2.787  51.601  1.00  0.00     0.309 C 
ENDBRANCH  23  24
ENDBRANCH  22  23
ENDBRANCH  20  22
ENDBRANCH   6  20
BRANCH   1  27
HETATM   27  N1  UNL     1      25.609   3.063  49.721  1.00  0.00    -0.322 N 
HETATM   28  C3  UNL     1      26.301   2.520  50.832  1.00  0.00     0.244 C 
HETATM   29  O1  UNL     1      27.270   3.233  51.216  1.00  0.00    -0.268 OA
HETATM   30  H4  UNL     1      24.789   2.565  49.311  1.00  0.00     0.169 HD
BRANCH  28  31
HETATM   31  C2  UNL     1      25.918   1.262  51.453  1.00  0.00     0.064 C 
HETATM   32  C1  UNL     1      26.793   0.426  51.974  1.00  0.00     0.017 C 
ENDBRANCH  28  31
ENDBRANCH   1  27
TORSDOF 6
ENDMDL
MODEL 4
REMARK VINA RESULT:      -7.8      4.307      8.883
REMARK  6 active torsions:
REMARK  status: ('A' for Active; 'I' for Inactive)
REMARK    1  A    between atoms: C2_2  and  C3_3 
REMARK       I    between atoms: C3_3  and  N1_5 
REMARK    2  A    between atoms: N1_5  and  C4_6 
REMARK    3  A    between atoms: C9_11  and  N2_12 
REMARK    4  A    between atoms: N2_12  and  C11_14 
REMARK    5  A    between atoms: C11_14  and  C12_15 
REMARK    6  A    between atoms: C12_15  and  N3_16 
ROOT
HETATM    1  C4  UNL     1      30.008   6.086  47.672  1.00  0.00     0.062 A 
HETATM    2  C5  UNL     1      28.983   5.268  48.175  1.00  0.00     0.050 A 
HETATM    3  C6  UNL     1      27.856   5.969  48.545  1.00  0.00     0.049 A 
HETATM    4  C7  UNL     1      27.647   7.364  48.471  1.00  0.00     0.085 A 
HETATM    5  C8  UNL     1      28.689   8.073  47.973  1.00  0.00     0.069 A 
HETATM    6  C9  UNL     1      29.844   7.431  47.584  1.00  0.00     0.059 A 
HETATM    7  O2  UNL     1      26.381   7.474  48.966  1.00  0.00    -0.350 OA
HETATM    8  C15 UNL     1      25.639   8.428  49.568  1.00  0.00     0.175 C 
HETATM    9  C16 UNL     1      24.261   8.108  50.029  1.00  0.00     0.027 C 
HETATM   10  C17 UNL     1      23.297   7.755  49.002  1.00  0.00     0.008 C 
HETATM   11  C18 UNL     1      23.402   6.582  48.139  1.00  0.00     0.060 C 
HETATM   12  C19 UNL     1      23.411   5.239  48.831  1.00  0.00     0.050 A 
HETATM   13  C20 UNL     1      23.172   4.075  49.426  1.00  0.00     0.034 A 
HETATM   14  C21 UNL     1      24.392   3.705  49.616  1.00  0.00     0.089 A 
HETATM   15  C22 UNL     1      25.754   3.144  49.904  1.00  0.00     0.151 A 
HETATM   16  N4  UNL     1      26.945   3.682  49.644  1.00  0.00    -0.237 NA
HETATM   17  C23 UNL     1      26.959   4.937  49.021  1.00  0.00     0.182 A 
HETATM   18  N5  UNL     1      25.891   5.545  48.707  1.00  0.00    -0.146 NA
HETATM   19  N6  UNL     1      24.723   4.923  49.010  1.00  0.00    -0.233 N 
ENDROOT
BRANCH   6  20
HETATM   20  N2  UNL     1      30.820   8.375  47.087  1.00  0.00    -0.382 N 
HETATM   21  C10 UNL     1      30.944   8.464  45.649  1.00  0.00     0.150 C 
BRANCH  20  22
HETATM   22  C11 UNL     1      31.553   9.120  48.087  1.00  0.00     0.152 C 
BRANCH  22  23
HETATM   23  C12 UNL     1      31.768  10.559  47.772  1.00  0.00     0.291 C 
BRANCH  23  24
HETATM   24  N3  UNL     1      30.510  11.281  48.028  1.00  0.00     0.081 N 
HETATM   25  C13 UNL     1      30.236  11.991  46.778  1.00  0.00     0.309 C 
HETATM   26  C14 UNL     1      30.713  12.241  49.107  1.00  0.00     0.309 C 
ENDBRANCH  23  24
ENDBRANCH  22  23
ENDBRANCH  20  22
ENDBRANCH   6  20
BRANCH   1  27
HETATM   27  N1  UNL     1      31.270   5.567  47.227  1.00  0.00    -0.322 N 
HETATM   28  C3  UNL     1      32.115   5.257  48.321  1.00  0.00     0.244 C 
HETATM   29  O1  UNL     1      31.591   5.499  49.444  1.00  0.00    -0.268 OA
HETATM   30  H4  UNL     1      31.590   5.412  46.246  1.00  0.00     0.169 HD
BRANCH  28  31
HETATM   31  C2  UNL     1      33.454   4.716  48.146  1.00  0.00     0.064 C 
HETATM   32  C1  UNL     1      33.690   3.584  47.514  1.00  0.00     0.017 C 
ENDBRANCH  28  31
ENDBRANCH   1  27
TORSDOF 6
ENDMDL
MODEL 5
REMARK VINA RESULT:      -7.7      2.002      6.821
REMARK  6 active torsions:
REMARK  status: ('A' for Active; 'I' for Inactive)
REMARK    1  A    between atoms: C2_2  and  C3_3 
REMARK       I    between atoms: C3_3  and  N1_5 
REMARK    2  A    between atoms: N1_5  and  C4_6 
REMARK    3  A    between atoms: C9_11  and  N2_12 
REMARK    4  A    between atoms: N2_12  and  C11_14 
REMARK    5  A    between atoms: C11_14  and  C12_15 
REMARK    6  A    between atoms: C12_15  and  N3_16 
ROOT
HETATM    1  C4  UNL     1      24.976   2.014  51.723  1.00  0.00     0.062 A 
HETATM    2  C5  UNL     1      24.009   1.224  52.365  1.00  0.00     0.050 A 
HETATM    3  C6  UNL     1      22.717   1.636  52.124  1.00  0.00     0.049 A 
HETATM    4  C7  UNL     1      22.295   2.727  51.331  1.00  0.00     0.085 A 
HETATM    5  C8  UNL     1      23.296   3.433  50.751  1.00  0.00     0.069 A 
HETATM    6  C9  UNL     1      24.610   3.071  50.953  1.00  0.00     0.059 A 
HETATM    7  O2  UNL     1      20.941   2.649  51.464  1.00  0.00    -0.350 OA
HETATM    8  C15 UNL     1      19.891   3.493  51.365  1.00  0.00     0.175 C 
HETATM    9  C16 UNL     1      18.518   3.000  51.660  1.00  0.00     0.027 C 
HETATM   10  C17 UNL     1      17.997   1.965  50.784  1.00  0.00     0.008 C 
HETATM   11  C18 UNL     1      18.570   0.629  50.651  1.00  0.00     0.060 C 
HETATM   12  C19 UNL     1      18.605  -0.213  51.905  1.00  0.00     0.050 A 
HETATM   13  C20 UNL     1      18.407  -1.019  52.942  1.00  0.00     0.034 A 
HETATM   14  C21 UNL     1      19.554  -0.882  53.513  1.00  0.00     0.089 A 
HETATM   15  C22 UNL     1      20.839  -0.821  54.287  1.00  0.00     0.151 A 
HETATM   16  N4  UNL     1      21.935  -0.114  54.020  1.00  0.00    -0.237 NA
HETATM   17  C23 UNL     1      21.916   0.690  52.873  1.00  0.00     0.182 A 
HETATM   18  N5  UNL     1      20.907   0.749  52.108  1.00  0.00    -0.146 NA
HETATM   19  N6  UNL     1      19.833  -0.005  52.456  1.00  0.00    -0.233 N 
ENDROOT
BRANCH   6  20
HETATM   20  N2  UNL     1      25.507   3.957  50.245  1.00  0.00    -0.382 N 
HETATM   21  C10 UNL     1      26.516   3.320  49.427  1.00  0.00     0.150 C 
BRANCH  20  22
HETATM   22  C11 UNL     1      25.286   5.373  50.435  1.00  0.00     0.152 C 
BRANCH  22  23
HETATM   23  C12 UNL     1      25.349   6.195  49.195  1.00  0.00     0.291 C 
BRANCH  23  24
HETATM   24  N3  UNL     1      25.090   7.599  49.557  1.00  0.00     0.081 N 
HETATM   25  C13 UNL     1      26.382   8.098  50.030  1.00  0.00     0.309 C 
HETATM   26  C14 UNL     1      24.115   7.649  50.640  1.00  0.00     0.309 C 
ENDBRANCH  23  24
ENDBRANCH  22  23
ENDBRANCH  20  22
ENDBRANCH   6  20
BRANCH   1  27
HETATM   27  N1  UNL     1      26.385   1.766  51.836  1.00  0.00    -0.322 N 
HETATM   28  C3  UNL     1      26.869   2.114  53.121  1.00  0.00     0.244 C 
HETATM   29  O1  UNL     1      25.974   2.565  53.889  1.00  0.00    -0.268 OA
HETATM   30  H4  UNL     1      27.029   1.382  51.111  1.00  0.00     0.169 HD
BRANCH  28  31
HETATM   31  C2  UNL     1      28.266   1.961  53.498  1.00  0.00     0.064 C 
HETATM   32  C1  UNL     1      28.732   0.880  54.090  1.00  0.00     0.017 C 
ENDBRANCH  28  31
ENDBRANCH   1  27
TORSDOF 6
ENDMDL
MODEL 6
REMARK VINA RESULT:      -7.7      5.172      9.533
REMARK  6 active torsions:
REMARK  status: ('A' for Active; 'I' for Inactive)
REMARK    1  A    between atoms: C2_2  and  C3_3 
REMARK       I    between atoms: C3_3  and  N1_5 
REMARK    2  A    between atoms: N1_5  and  C4_6 
REMARK    3  A    between atoms: C9_11  and  N2_12 
REMARK    4  A    between atoms: N2_12  and  C11_14 
REMARK    5  A    between atoms: C11_14  and  C12_15 
REMARK    6  A    between atoms: C12_15  and  N3_16 
ROOT
HETATM    1  C4  UNL     1      31.250   5.679  47.242  1.00  0.00     0.062 A 
HETATM    2  C5  UNL     1      30.010   5.195  47.690  1.00  0.00     0.050 A 
HETATM    3  C6  UNL     1      29.183   6.181  48.182  1.00  0.00     0.049 A 
HETATM    4  C7  UNL     1      29.454   7.564  48.275  1.00  0.00     0.085 A 
HETATM    5  C8  UNL     1      30.673   7.940  47.819  1.00  0.00     0.069 A 
HETATM    6  C9  UNL     1      31.547   7.001  47.314  1.00  0.00     0.059 A 
HETATM    7  O2  UNL     1      28.298   8.028  48.830  1.00  0.00    -0.350 OA
HETATM    8  C15 UNL     1      27.919   9.096  49.565  1.00  0.00     0.175 C 
HETATM    9  C16 UNL     1      26.513   9.200  50.043  1.00  0.00     0.027 C 
HETATM   10  C17 UNL     1      25.487   9.313  49.021  1.00  0.00     0.008 C 
HETATM   11  C18 UNL     1      25.192   8.285  48.028  1.00  0.00     0.060 C 
HETATM   12  C19 UNL     1      24.750   6.943  48.562  1.00  0.00     0.050 A 
HETATM   13  C20 UNL     1      24.136   5.862  49.031  1.00  0.00     0.034 A 
HETATM   14  C21 UNL     1      25.161   5.087  49.129  1.00  0.00     0.089 A 
HETATM   15  C22 UNL     1      26.256   4.075  49.296  1.00  0.00     0.151 A 
HETATM   16  N4  UNL     1      27.558   4.213  49.051  1.00  0.00    -0.237 NA
HETATM   17  C23 UNL     1      27.992   5.457  48.574  1.00  0.00     0.182 A 
HETATM   18  N5  UNL     1      27.190   6.419  48.374  1.00  0.00    -0.146 NA
HETATM   19  N6  UNL     1      25.881   6.190  48.651  1.00  0.00    -0.233 N 
ENDROOT
BRANCH   6  20
HETATM   20  N2  UNL     1      32.783   7.620  46.888  1.00  0.00    -0.382 N 
HETATM   21  C10 UNL     1      33.837   7.680  47.877  1.00  0.00     0.150 C 
BRANCH  20  22
HETATM   22  C11 UNL     1      32.818   8.100  45.525  1.00  0.00     0.152 C 
BRANCH  22  23
HETATM   23  C12 UNL     1      33.863   7.480  44.663  1.00  0.00     0.291 C 
BRANCH  23  24
HETATM   24  N3  UNL     1      33.241   6.385  43.899  1.00  0.00     0.081 N 
HETATM   25  C13 UNL     1      34.360   5.517  43.529  1.00  0.00     0.309 C 
HETATM   26  C14 UNL     1      32.618   6.925  42.697  1.00  0.00     0.309 C 
ENDBRANCH  23  24
ENDBRANCH  22  23
ENDBRANCH  20  22
ENDBRANCH   6  20
BRANCH   1  27
HETATM   27  N1  UNL     1      32.265   4.827  46.691  1.00  0.00    -0.322 N 
HETATM   28  C3  UNL     1      32.883   4.044  47.696  1.00  0.00     0.244 C 
HETATM   29  O1  UNL     1      32.420   4.255  48.852  1.00  0.00    -0.268 OA
HETATM   30  H4  UNL     1      32.561   4.743  45.694  1.00  0.00     0.169 HD
BRANCH  28  31
HETATM   31  C2  UNL     1      33.947   3.096  47.405  1.00  0.00     0.064 C 
HETATM   32  C1  UNL     1      34.960   3.379  46.611  1.00  0.00     0.017 C 
ENDBRANCH  28  31
ENDBRANCH   1  27
TORSDOF 6
ENDMDL
MODEL 7
REMARK VINA RESULT:      -7.7      1.920      8.284
REMARK  6 active torsions:
REMARK  status: ('A' for Active; 'I' for Inactive)
REMARK    1  A    between atoms: C2_2  and  C3_3 
REMARK       I    between atoms: C3_3  and  N1_5 
REMARK    2  A    between atoms: N1_5  and  C4_6 
REMARK    3  A    between atoms: C9_11  and  N2_12 
REMARK    4  A    between atoms: N2_12  and  C11_14 
REMARK    5  A    between atoms: C11_14  and  C12_15 
REMARK    6  A    between atoms: C12_15  and  N3_16 
ROOT
HETATM    1  C4  UNL     1      24.291   4.665  49.566  1.00  0.00     0.062 A 
HETATM    2  C5  UNL     1      23.502   3.606  50.043  1.00  0.00     0.050 A 
HETATM    3  C6  UNL     1      24.231   2.615  50.663  1.00  0.00     0.049 A 
HETATM    4  C7  UNL     1      25.631   2.568  50.853  1.00  0.00     0.085 A 
HETATM    5  C8  UNL     1      26.311   3.631  50.361  1.00  0.00     0.069 A 
HETATM    6  C9  UNL     1      25.639   4.655  49.729  1.00  0.00     0.059 A 
HETATM    7  O2  UNL     1      25.773   1.380  51.508  1.00  0.00    -0.350 OA
HETATM    8  C15 UNL     1      26.750   0.462  51.681  1.00  0.00     0.175 C 
HETATM    9  C16 UNL     1      26.465  -0.780  52.450  1.00  0.00     0.027 C 
HETATM   10  C17 UNL     1      26.127  -0.613  53.852  1.00  0.00     0.008 C 
HETATM   11  C18 UNL     1      24.945   0.093  54.339  1.00  0.00     0.060 C 
HETATM   12  C19 UNL     1      23.607  -0.461  53.907  1.00  0.00     0.050 A 
HETATM   13  C20 UNL     1      22.454  -1.095  53.726  1.00  0.00     0.034 A 
HETATM   14  C21 UNL     1      22.057  -0.469  52.671  1.00  0.00     0.089 A 
HETATM   15  C22 UNL     1      21.466   0.169  51.448  1.00  0.00     0.151 A 
HETATM   16  N4  UNL     1      21.975   1.141  50.692  1.00  0.00    -0.237 NA
HETATM   17  C23 UNL     1      23.224   1.655  51.062  1.00  0.00     0.182 A 
HETATM   18  N5  UNL     1      23.855   1.226  52.075  1.00  0.00    -0.146 NA
HETATM   19  N6  UNL     1      23.263   0.234  52.788  1.00  0.00    -0.233 N 
ENDROOT
BRANCH   6  20
HETATM   20  N2  UNL     1      26.557   5.680  49.284  1.00  0.00    -0.382 N 
HETATM   21  C10 UNL     1      26.245   7.033  49.692  1.00  0.00     0.150 C 
BRANCH  20  22
HETATM   22  C11 UNL     1      27.677   5.231  48.488  1.00  0.00     0.152 C 
BRANCH  22  23
HETATM   23  C12 UNL     1      28.543   6.315  47.948  1.00  0.00     0.291 C 
BRANCH  23  24
HETATM   24  N3  UNL     1      29.860   6.224  48.602  1.00  0.00     0.081 N 
HETATM   25  C13 UNL     1      30.302   7.614  48.724  1.00  0.00     0.309 C 
HETATM   26  C14 UNL     1      30.779   5.488  47.742  1.00  0.00     0.309 C 
ENDBRANCH  23  24
ENDBRANCH  22  23
ENDBRANCH  20  22
ENDBRANCH   6  20
BRANCH   1  27
HETATM   27  N1  UNL     1      23.740   5.802  48.887  1.00  0.00    -0.322 N 
HETATM   28  C3  UNL     1      22.970   6.603  49.765  1.00  0.00     0.244 C 
HETATM   29  O1  UNL     1      22.928   6.157  50.945  1.00  0.00    -0.268 OA
HETATM   30  H4  UNL     1      23.851   6.067  47.884  1.00  0.00     0.169 HD
BRANCH  28  31
HETATM   31  C2  UNL     1      22.299   7.819  49.329  1.00  0.00     0.064 C 
HETATM   32  C1  UNL     1      22.945   8.849  48.822  1.00  0.00     0.017 C 
ENDBRANCH  28  31
ENDBRANCH   1  27
TORSDOF 6
ENDMDL
MODEL 8
REMARK VINA RESULT:      -7.5      2.162      2.919
REMARK  6 active torsions:
REMARK  status: ('A' for Active; 'I' for Inactive)
REMARK    1  A    between atoms: C2_2  and  C3_3 
REMARK       I    between atoms: C3_3  and  N1_5 
REMARK    2  A    between atoms: N1_5  and  C4_6 
REMARK    3  A    between atoms: C9_11  and  N2_12 
REMARK    4  A    between atoms: N2_12  and  C11_14 
REMARK    5  A    between atoms: C11_14  and  C12_15 
REMARK    6  A    between atoms: C12_15  and  N3_16 
ROOT
HETATM    1  C4  UNL     1      25.755   2.396  50.724  1.00  0.00     0.062 A 
HETATM    2  C5  UNL     1      26.659   3.261  50.086  1.00  0.00     0.050 A 
HETATM    3  C6  UNL     1      26.077   4.425  49.635  1.00  0.00     0.049 A 
HETATM    4  C7  UNL     1      24.723   4.811  49.749  1.00  0.00     0.085 A 
HETATM    5  C8  UNL     1      23.925   3.916  50.379  1.00  0.00     0.069 A 
HETATM    6  C9  UNL     1      24.446   2.732  50.854  1.00  0.00     0.059 A 
HETATM    7  O2  UNL     1      24.737   6.028  49.134  1.00  0.00    -0.350 OA
HETATM    8  C15 UNL     1      23.844   6.822  48.503  1.00  0.00     0.175 C 
HETATM    9  C16 UNL     1      24.300   8.100  47.892  1.00  0.00     0.027 C 
HETATM   10  C17 UNL     1      24.821   9.106  48.801  1.00  0.00     0.008 C 
HETATM   11  C18 UNL     1      26.020   8.939  49.617  1.00  0.00     0.060 C 
HETATM   12  C19 UNL     1      27.312   8.699  48.871  1.00  0.00     0.050 A 
HETATM   13  C20 UNL     1      28.460   8.735  48.205  1.00  0.00     0.034 A 
HETATM   14  C21 UNL     1      28.673   7.466  48.122  1.00  0.00     0.089 A 
HETATM   15  C22 UNL     1      29.051   6.025  47.949  1.00  0.00     0.151 A 
HETATM   16  N4  UNL     1      28.391   4.940  48.351  1.00  0.00    -0.237 NA
HETATM   17  C23 UNL     1      27.180   5.139  49.026  1.00  0.00     0.182 A 
HETATM   18  N5  UNL     1      26.721   6.298  49.257  1.00  0.00    -0.146 NA
HETATM   19  N6  UNL     1      27.459   7.347  48.812  1.00  0.00    -0.233 N 
ENDROOT
BRANCH   6  20
HETATM   20  N2  UNL     1      23.422   1.931  51.487  1.00  0.00    -0.382 N 
HETATM   21  C10 UNL     1      23.410   1.943  52.934  1.00  0.00     0.150 C 
BRANCH  20  22
HETATM   22  C11 UNL     1      22.531   1.217  50.600  1.00  0.00     0.152 C 
BRANCH  22  23
HETATM   23  C12 UNL     1      21.103   1.197  51.020  1.00  0.00     0.291 C 
BRANCH  23  24
HETATM   24  N3  UNL     1      20.293   1.772  49.934  1.00  0.00     0.081 N 
HETATM   25  C13 UNL     1      21.049   1.470  48.717  1.00  0.00     0.309 C 
HETATM   26  C14 UNL     1      20.200   3.217  50.110  1.00  0.00     0.309 C 
ENDBRANCH  23  24
ENDBRANCH  22  23
ENDBRANCH  20  22
ENDBRANCH   6  20
BRANCH   1  27
HETATM   27  N1  UNL     1      26.145   1.128  51.271  1.00  0.00    -0.322 N 
HETATM   28  C3  UNL     1      26.998   1.288  52.390  1.00  0.00     0.244 C 
HETATM   29  O1  UNL     1      27.235   2.496  52.671  1.00  0.00    -0.268 OA
HETATM   30  H4  UNL     1      25.874   0.176  50.940  1.00  0.00     0.169 HD
BRANCH  28  31
HETATM   31  C2  UNL     1      27.537   0.158  53.130  1.00  0.00     0.064 C 
HETATM   32  C1  UNL     1      27.067  -1.067  53.009  1.00  0.00     0.017 C 
ENDBRANCH  28  31
ENDBRANCH   1  27
TORSDOF 6
ENDMDL
MODEL 9
REMARK VINA RESULT:      -7.4      5.161      9.777
REMARK  6 active torsions:
REMARK  status: ('A' for Active; 'I' for Inactive)
REMARK    1  A    between atoms: C2_2  and  C3_3 
REMARK       I    between atoms: C3_3  and  N1_5 
REMARK    2  A    between atoms: N1_5  and  C4_6 
REMARK    3  A    between atoms: C9_11  and  N2_12 
REMARK    4  A    between atoms: N2_12  and  C11_14 
REMARK    5  A    between atoms: C11_14  and  C12_15 
REMARK    6  A    between atoms: C12_15  and  N3_16 
ROOT
HETATM    1  C4  UNL     1      28.295   6.616  48.254  1.00  0.00     0.062 A 
HETATM    2  C5  UNL     1      29.247   5.643  47.909  1.00  0.00     0.050 A 
HETATM    3  C6  UNL     1      30.531   6.137  47.827  1.00  0.00     0.049 A 
HETATM    4  C7  UNL     1      30.957   7.466  48.047  1.00  0.00     0.085 A 
HETATM    5  C8  UNL     1      29.971   8.336  48.375  1.00  0.00     0.069 A 
HETATM    6  C9  UNL     1      28.666   7.904  48.473  1.00  0.00     0.059 A 
HETATM    7  O2  UNL     1      32.298   7.359  47.826  1.00  0.00    -0.350 OA
HETATM    8  C15 UNL     1      33.305   8.182  47.460  1.00  0.00     0.175 C 
HETATM    9  C16 UNL     1      34.673   7.630  47.264  1.00  0.00     0.027 C 
HETATM   10  C17 UNL     1      35.321   7.067  48.436  1.00  0.00     0.008 C 
HETATM   11  C18 UNL     1      34.835   5.903  49.169  1.00  0.00     0.060 C 
HETATM   12  C19 UNL     1      34.741   4.611  48.391  1.00  0.00     0.050 A 
HETATM   13  C20 UNL     1      34.896   3.446  47.771  1.00  0.00     0.034 A 
HETATM   14  C21 UNL     1      33.699   3.315  47.310  1.00  0.00     0.089 A 
HETATM   15  C22 UNL     1      32.353   3.025  46.713  1.00  0.00     0.151 A 
HETATM   16  N4  UNL     1      31.246   3.764  46.767  1.00  0.00    -0.237 NA
HETATM   17  C23 UNL     1      31.317   4.976  47.466  1.00  0.00     0.182 A 
HETATM   18  N5  UNL     1      32.382   5.365  48.034  1.00  0.00    -0.146 NA
HETATM   19  N6  UNL     1      33.462   4.550  47.928  1.00  0.00    -0.233 N 
ENDROOT
BRANCH   6  20
HETATM   20  N2  UNL     1      27.785   8.993  48.832  1.00  0.00    -0.382 N 
HETATM   21  C10 UNL     1      27.473   9.121  50.239  1.00  0.00     0.150 C 
BRANCH  20  22
HETATM   22  C11 UNL     1      27.323   9.824  47.743  1.00  0.00     0.152 C 
BRANCH  22  23
HETATM   23  C12 UNL     1      25.871   9.711  47.433  1.00  0.00     0.291 C 
BRANCH  23  24
HETATM   24  N3  UNL     1      25.386  11.031  46.999  1.00  0.00     0.081 N 
HETATM   25  C13 UNL     1      26.158  11.322  45.789  1.00  0.00     0.309 C 
HETATM   26  C14 UNL     1      25.687  12.021  48.026  1.00  0.00     0.309 C 
ENDBRANCH  23  24
ENDBRANCH  22  23
ENDBRANCH  20  22
ENDBRANCH   6  20
BRANCH   1  27
HETATM   27  N1  UNL     1      26.898   6.323  48.395  1.00  0.00    -0.322 N 
HETATM   28  C3  UNL     1      26.694   5.064  49.010  1.00  0.00     0.244 C 
HETATM   29  O1  UNL     1      27.769   4.468  49.302  1.00  0.00    -0.268 OA
HETATM   30  H4  UNL     1      26.086   6.912  48.106  1.00  0.00     0.169 HD
BRANCH  28  31
HETATM   31  C2  UNL     1      25.368   4.526  49.270  1.00  0.00     0.064 C 
HETATM   32  C1  UNL     1      25.170   3.336  49.799  1.00  0.00     0.017 C 
ENDBRANCH  28  31
ENDBRANCH   1  27
TORSDOF 6
ENDMDL
