MODEL 1
REMARK VINA RESULT:      -9.0      0.000      0.000
REMARK  4 active torsions:
REMARK  status: ('A' for Active; 'I' for Inactive)
REMARK       I    between atoms: N1_1  and  C1_2 
REMARK    1  A    between atoms: C1_2  and  C2_4 
REMARK    2  A    between atoms: C11_15  and  O2_16 
REMARK    3  A    between atoms: O2_16  and  C12_17 
REMARK    4  A    between atoms: C12_17  and  C13_18 
ROOT
HETATM    1  C2  UNL     1      16.599  -0.036  52.236  1.00  0.00     0.026 A 
HETATM    2  C3  UNL     1      16.835   0.671  51.081  1.00  0.00     0.017 A 
HETATM    3  C4  UNL     1      18.129   0.810  50.622  1.00  0.00     0.010 A 
HETATM    4  C5  UNL     1      19.197   0.254  51.296  1.00  0.00    -0.031 A 
HETATM    5  C6  UNL     1      19.006  -0.467  52.464  1.00  0.00    -0.029 A 
HETATM    6  C7  UNL     1      17.683  -0.582  52.890  1.00  0.00     0.026 A 
HETATM    7  C8  UNL     1      20.112  -1.101  53.254  1.00  0.00     0.187 C 
HETATM    8  N2  UNL     1      21.319  -0.401  52.854  1.00  0.00    -0.299 N 
HETATM    9  C9  UNL     1      22.428  -0.817  53.674  1.00  0.00     0.137 C 
HETATM   10  C10 UNL     1      23.631  -0.248  53.860  1.00  0.00     0.084 C 
HETATM   11 CL1  UNL     1      24.811  -0.959  54.916  1.00  0.00    -0.080 Cl
HETATM   12  C11 UNL     1      24.072   0.990  53.222  1.00  0.00     0.090 C 
HETATM   13  C19 UNL     1      23.370   1.883  52.530  1.00  0.00     0.033 C 
HETATM   14  C20 UNL     1      21.917   1.813  52.244  1.00  0.00     0.173 C 
HETATM   15  N3  UNL     1      21.456   0.530  51.852  1.00  0.00    -0.318 N 
HETATM   16  C21 UNL     1      20.584   0.436  50.753  1.00  0.00     0.182 C 
ENDROOT
BRANCH  12  17
HETATM   17  O2  UNL     1      25.412   1.369  53.298  1.00  0.00    -0.345 OA
BRANCH  17  18
HETATM   18  C12 UNL     1      26.319   1.238  52.246  1.00  0.00     0.214 C 
BRANCH  18  19
HETATM   19  C13 UNL     1      27.422   0.338  52.715  1.00  0.00    -0.031 A 
HETATM   20  C14 UNL     1      28.534   0.935  53.305  1.00  0.00     0.009 A 
HETATM   21  C15 UNL     1      29.642   0.276  53.795  1.00  0.00     0.004 A 
HETATM   22  C16 UNL     1      29.610  -1.094  53.674  1.00  0.00     0.042 A 
HETATM   23  C17 UNL     1      28.526  -1.723  53.096  1.00  0.00     0.117 A 
HETATM   24  F1  UNL     1      28.525  -3.093  52.990  1.00  0.00    -0.206 F 
HETATM   25  C18 UNL     1      27.424  -1.034  52.611  1.00  0.00     0.051 A 
ENDBRANCH  18  19
ENDBRANCH  17  18
ENDBRANCH  12  17
BRANCH   1  26
HETATM   26  C1  UNL     1      15.245  -0.197  52.741  1.00  0.00     0.228 C 
HETATM   27  N1  UNL     1      14.670  -1.481  52.822  1.00  0.00    -0.268 NA
HETATM   28  H1  UNL     1      14.190  -2.214  52.251  1.00  0.00     0.127 HD
HETATM   29  H2  UNL     1      14.197  -2.133  52.128  1.00  0.00     0.127 HD
HETATM   30  O1  UNL     1      14.607   0.851  53.101  1.00  0.00    -0.274 OA
ENDBRANCH   1  26
TORSDOF 4
ENDMDL
MODEL 2
REMARK VINA RESULT:      -9.0      3.982      9.518
REMARK  4 active torsions:
REMARK  status: ('A' for Active; 'I' for Inactive)
REMARK       I    between atoms: N1_1  and  C1_2 
REMARK    1  A    between atoms: C1_2  and  C2_4 
REMARK    2  A    between atoms: C11_15  and  O2_16 
REMARK    3  A    between atoms: O2_16  and  C12_17 
REMARK    4  A    between atoms: C12_17  and  C13_18 
ROOT
HETATM    1  C2  UNL     1      26.728  -0.531  52.880  1.00  0.00     0.026 A 
HETATM    2  C3  UNL     1      26.787   0.628  52.143  1.00  0.00     0.017 A 
HETATM    3  C4  UNL     1      25.639   1.368  51.948  1.00  0.00     0.010 A 
HETATM    4  C5  UNL     1      24.427   0.971  52.476  1.00  0.00    -0.031 A 
HETATM    5  C6  UNL     1      24.321  -0.189  53.225  1.00  0.00    -0.029 A 
HETATM    6  C7  UNL     1      25.506  -0.905  53.398  1.00  0.00     0.026 A 
HETATM    7  C8  UNL     1      23.043  -0.687  53.832  1.00  0.00     0.187 C 
HETATM    8  N2  UNL     1      21.984  -0.040  53.081  1.00  0.00    -0.299 N 
HETATM    9  C9  UNL     1      20.703  -0.572  53.470  1.00  0.00     0.137 C 
HETATM   10  C10 UNL     1      19.509  -0.493  52.860  1.00  0.00     0.084 C 
HETATM   11 CL1  UNL     1      18.095  -1.231  53.545  1.00  0.00    -0.080 Cl
HETATM   12  C11 UNL     1      19.266   0.197  51.595  1.00  0.00     0.090 C 
HETATM   13  C19 UNL     1      20.137   0.685  50.716  1.00  0.00     0.033 C 
HETATM   14  C20 UNL     1      21.614   0.632  50.835  1.00  0.00     0.173 C 
HETATM   15  N3  UNL     1      22.111   0.941  52.126  1.00  0.00    -0.318 N 
HETATM   16  C21 UNL     1      23.209   1.813  52.233  1.00  0.00     0.182 C 
ENDROOT
BRANCH  12  17
HETATM   17  O2  UNL     1      17.957   0.420  51.168  1.00  0.00    -0.345 OA
BRANCH  17  18
HETATM   18  C12 UNL     1      17.537   1.582  50.521  1.00  0.00     0.214 C 
BRANCH  18  19
HETATM   19  C13 UNL     1      16.541   2.257  51.416  1.00  0.00    -0.031 A 
HETATM   20  C14 UNL     1      16.709   3.619  51.656  1.00  0.00     0.009 A 
HETATM   21  C15 UNL     1      15.899   4.407  52.446  1.00  0.00     0.004 A 
HETATM   22  C16 UNL     1      14.840   3.756  53.035  1.00  0.00     0.042 A 
HETATM   23  C17 UNL     1      14.641   2.407  52.823  1.00  0.00     0.117 A 
HETATM   24  F1  UNL     1      13.574   1.784  53.426  1.00  0.00    -0.206 F 
HETATM   25  C18 UNL     1      15.472   1.637  52.022  1.00  0.00     0.051 A 
ENDBRANCH  18  19
ENDBRANCH  17  18
ENDBRANCH  12  17
BRANCH   1  26
HETATM   26  C1  UNL     1      27.924  -1.328  53.101  1.00  0.00     0.228 C 
HETATM   27  N1  UNL     1      27.858  -2.735  53.033  1.00  0.00    -0.268 NA
HETATM   28  H1  UNL     1      27.593  -3.581  53.586  1.00  0.00     0.127 HD
HETATM   29  H2  UNL     1      27.553  -3.501  53.704  1.00  0.00     0.127 HD
HETATM   30  O1  UNL     1      29.018  -0.717  53.354  1.00  0.00    -0.274 OA
ENDBRANCH   1  26
TORSDOF 4
ENDMDL
MODEL 3
REMARK VINA RESULT:      -8.9      5.972      8.083
REMARK  4 active torsions:
REMARK  status: ('A' for Active; 'I' for Inactive)
REMARK       I    between atoms: N1_1  and  C1_2 
REMARK    1  A    between atoms: C1_2  and  C2_4 
REMARK    2  A    between atoms: C11_15  and  O2_16 
REMARK    3  A    between atoms: O2_16  and  C12_17 
REMARK    4  A    between atoms: C12_17  and  C13_18 
ROOT
HETATM    1  C2  UNL     1      23.904  -0.327  54.103  1.00  0.00     0.026 A 
HETATM    2  C3  UNL     1      22.609  -0.038  53.742  1.00  0.00     0.017 A 
HETATM    3  C4  UNL     1      22.373   0.719  52.612  1.00  0.00     0.010 A 
HETATM    4  C5  UNL     1      23.408   1.195  51.833  1.00  0.00    -0.031 A 
HETATM    5  C6  UNL     1      24.728   0.927  52.160  1.00  0.00    -0.029 A 
HETATM    6  C7  UNL     1      24.919   0.159  53.308  1.00  0.00     0.026 A 
HETATM    7  C8  UNL     1      25.906   1.407  51.366  1.00  0.00     0.187 C 
HETATM    8  N2  UNL     1      25.416   2.531  50.592  1.00  0.00    -0.299 N 
HETATM    9  C9  UNL     1      26.507   3.179  49.910  1.00  0.00     0.137 C 
HETATM   10  C10 UNL     1      26.575   4.392  49.337  1.00  0.00     0.084 C 
HETATM   11 CL1  UNL     1      28.030   4.946  48.569  1.00  0.00    -0.080 Cl
HETATM   12  C11 UNL     1      25.476   5.353  49.294  1.00  0.00     0.090 C 
HETATM   13  C19 UNL     1      24.314   5.341  49.943  1.00  0.00     0.033 C 
HETATM   14  C20 UNL     1      23.863   4.300  50.897  1.00  0.00     0.173 C 
HETATM   15  N3  UNL     1      24.117   2.969  50.478  1.00  0.00    -0.318 N 
HETATM   16  C21 UNL     1      23.095   2.013  50.616  1.00  0.00     0.182 C 
ENDROOT
BRANCH  12  17
HETATM   17  O2  UNL     1      25.573   6.480  48.478  1.00  0.00    -0.345 OA
BRANCH  17  18
HETATM   18  C12 UNL     1      25.685   7.783  48.961  1.00  0.00     0.214 C 
BRANCH  18  19
HETATM   19  C13 UNL     1      27.049   8.282  48.590  1.00  0.00    -0.031 A 
HETATM   20  C14 UNL     1      27.428   8.188  47.253  1.00  0.00     0.009 A 
HETATM   21  C15 UNL     1      28.636   8.593  46.724  1.00  0.00     0.004 A 
HETATM   22  C16 UNL     1      29.522   9.132  47.628  1.00  0.00     0.042 A 
HETATM   23  C17 UNL     1      29.184   9.241  48.961  1.00  0.00     0.117 A 
HETATM   24  F1  UNL     1      30.090   9.784  49.840  1.00  0.00    -0.206 F 
HETATM   25  C18 UNL     1      27.961   8.826  49.467  1.00  0.00     0.051 A 
ENDBRANCH  18  19
ENDBRANCH  17  18
ENDBRANCH  12  17
BRANCH   1  26
HETATM   26  C1  UNL     1      24.179  -1.124  55.289  1.00  0.00     0.228 C 
HETATM   27  N1  UNL     1      23.143  -1.852  55.907  1.00  0.00    -0.268 NA
HETATM   28  H1  UNL     1      22.337  -1.753  56.565  1.00  0.00     0.127 HD
HETATM   29  H2  UNL     1      22.361  -1.609  56.585  1.00  0.00     0.127 HD
HETATM   30  O1  UNL     1      25.375  -1.138  55.741  1.00  0.00    -0.274 OA
ENDBRANCH   1  26
TORSDOF 4
ENDMDL
MODEL 4
REMARK VINA RESULT:      -8.8      5.633      7.411
REMARK  4 active torsions:
REMARK  status: ('A' for Active; 'I' for Inactive)
REMARK       I    between atoms: N1_1  and  C1_2 
REMARK    1  A    between atoms: C1_2  and  C2_4 
REMARK    2  A    between atoms: C11_15  and  O2_16 
REMARK    3  A    between atoms: O2_16  and  C12_17 
REMARK    4  A    between atoms: C12_17  and  C13_18 
ROOT
HETATM    1  C2  UNL     1      22.576  -0.209  53.757  1.00  0.00     0.026 A 
HETATM    2  C3  UNL     1      23.842  -0.712  53.943  1.00  0.00     0.017 A 
HETATM    3  C4  UNL     1      24.935   0.063  53.614  1.00  0.00     0.010 A 
HETATM    4  C5  UNL     1      24.789   1.335  53.099  1.00  0.00    -0.031 A 
HETATM    5  C6  UNL     1      23.532   1.882  52.895  1.00  0.00    -0.029 A 
HETATM    6  C7  UNL     1      22.457   1.065  53.242  1.00  0.00     0.026 A 
HETATM    7  C8  UNL     1      23.291   3.254  52.341  1.00  0.00     0.187 C 
HETATM    8  N2  UNL     1      24.513   3.609  51.646  1.00  0.00    -0.299 N 
HETATM    9  C9  UNL     1      24.337   4.847  50.931  1.00  0.00     0.137 C 
HETATM   10  C10 UNL     1      25.070   5.393  49.946  1.00  0.00     0.084 C 
HETATM   11 CL1  UNL     1      24.639   6.919  49.240  1.00  0.00    -0.080 Cl
HETATM   12  C11 UNL     1      26.271   4.790  49.373  1.00  0.00     0.090 C 
HETATM   13  C19 UNL     1      26.761   3.563  49.530  1.00  0.00     0.033 C 
HETATM   14  C20 UNL     1      26.163   2.489  50.359  1.00  0.00     0.173 C 
HETATM   15  N3  UNL     1      25.701   2.916  51.630  1.00  0.00    -0.318 N 
HETATM   16  C21 UNL     1      26.012   2.134  52.757  1.00  0.00     0.182 C 
ENDROOT
BRANCH  12  17
HETATM   17  O2  UNL     1      27.086   5.541  48.526  1.00  0.00    -0.345 OA
BRANCH  17  18
HETATM   18  C12 UNL     1      28.423   5.241  48.264  1.00  0.00     0.214 C 
BRANCH  18  19
HETATM   19  C13 UNL     1      29.215   6.493  48.494  1.00  0.00    -0.031 A 
HETATM   20  C14 UNL     1      28.517   7.698  48.541  1.00  0.00     0.009 A 
HETATM   21  C15 UNL     1      29.070   8.946  48.742  1.00  0.00     0.004 A 
HETATM   22  C16 UNL     1      30.435   8.963  48.908  1.00  0.00     0.042 A 
HETATM   23  C17 UNL     1      31.161   7.791  48.868  1.00  0.00     0.117 A 
HETATM   24  F1  UNL     1      32.524   7.841  49.036  1.00  0.00    -0.206 F 
HETATM   25  C18 UNL     1      30.580   6.548  48.663  1.00  0.00     0.051 A 
ENDBRANCH  18  19
ENDBRANCH  17  18
ENDBRANCH  12  17
BRANCH   1  26
HETATM   26  C1  UNL     1      21.407  -1.005  54.097  1.00  0.00     0.228 C 
HETATM   27  N1  UNL     1      20.148  -0.676  53.557  1.00  0.00    -0.268 NA
HETATM   28  H1  UNL     1      19.334  -0.032  53.680  1.00  0.00     0.127 HD
HETATM   29  H2  UNL     1      19.395   0.035  53.797  1.00  0.00     0.127 HD
HETATM   30  O1  UNL     1      21.563  -1.995  54.890  1.00  0.00    -0.274 OA
ENDBRANCH   1  26
TORSDOF 4
ENDMDL
MODEL 5
REMARK VINA RESULT:      -8.8      4.305      5.173
REMARK  4 active torsions:
REMARK  status: ('A' for Active; 'I' for Inactive)
REMARK       I    between atoms: N1_1  and  C1_2 
REMARK    1  A    between atoms: C1_2  and  C2_4 
REMARK    2  A    between atoms: C11_15  and  O2_16 
REMARK    3  A    between atoms: O2_16  and  C12_17 
REMARK    4  A    between atoms: C12_17  and  C13_18 
ROOT
HETATM    1  C2  UNL     1      18.257  -0.104  51.969  1.00  0.00     0.026 A 
HETATM    2  C3  UNL     1      18.010   0.320  50.685  1.00  0.00     0.017 A 
HETATM    3  C4  UNL     1      19.064   0.711  49.885  1.00  0.00     0.010 A 
HETATM    4  C5  UNL     1      20.366   0.688  50.344  1.00  0.00    -0.031 A 
HETATM    5  C6  UNL     1      20.660   0.268  51.631  1.00  0.00    -0.029 A 
HETATM    6  C7  UNL     1      19.566  -0.119  52.403  1.00  0.00     0.026 A 
HETATM    7  C8  UNL     1      22.046   0.213  52.203  1.00  0.00     0.187 C 
HETATM    8  N2  UNL     1      22.836   1.111  51.382  1.00  0.00    -0.299 N 
HETATM    9  C9  UNL     1      24.155   1.266  51.942  1.00  0.00     0.137 C 
HETATM   10  C10 UNL     1      25.097   2.192  51.701  1.00  0.00     0.084 C 
HETATM   11 CL1  UNL     1      26.627   2.158  52.520  1.00  0.00    -0.080 Cl
HETATM   12  C11 UNL     1      24.952   3.298  50.757  1.00  0.00     0.090 C 
HETATM   13  C19 UNL     1      23.866   3.736  50.124  1.00  0.00     0.033 C 
HETATM   14  C20 UNL     1      22.502   3.169  50.248  1.00  0.00     0.173 C 
HETATM   15  N3  UNL     1      22.450   1.752  50.228  1.00  0.00    -0.318 N 
HETATM   16  C21 UNL     1      21.474   1.125  49.432  1.00  0.00     0.182 C 
ENDROOT
BRANCH  12  17
HETATM   17  O2  UNL     1      26.066   4.062  50.408  1.00  0.00    -0.345 OA
BRANCH  17  18
HETATM   18  C12 UNL     1      26.910   3.764  49.339  1.00  0.00     0.214 C 
BRANCH  18  19
HETATM   19  C13 UNL     1      27.314   5.064  48.713  1.00  0.00    -0.031 A 
HETATM   20  C14 UNL     1      26.326   6.032  48.541  1.00  0.00     0.009 A 
HETATM   21  C15 UNL     1      26.505   7.282  47.987  1.00  0.00     0.004 A 
HETATM   22  C16 UNL     1      27.787   7.565  47.578  1.00  0.00     0.042 A 
HETATM   23  C17 UNL     1      28.793   6.633  47.730  1.00  0.00     0.117 A 
HETATM   24  F1  UNL     1      30.065   6.945  47.312  1.00  0.00    -0.206 F 
HETATM   25  C18 UNL     1      28.586   5.381  48.292  1.00  0.00     0.051 A 
ENDBRANCH  18  19
ENDBRANCH  17  18
ENDBRANCH  12  17
BRANCH   1  26
HETATM   26  C1  UNL     1      17.164  -0.523  52.832  1.00  0.00     0.228 C 
HETATM   27  N1  UNL     1      17.405  -1.418  53.894  1.00  0.00    -0.268 NA
HETATM   28  H1  UNL     1      17.528  -2.433  54.112  1.00  0.00     0.127 HD
HETATM   29  H2  UNL     1      17.509  -2.474  53.971  1.00  0.00     0.127 HD
HETATM   30  O1  UNL     1      15.997  -0.057  52.596  1.00  0.00    -0.274 OA
ENDBRANCH   1  26
TORSDOF 4
ENDMDL
MODEL 6
REMARK VINA RESULT:      -8.5      1.688      2.346
REMARK  4 active torsions:
REMARK  status: ('A' for Active; 'I' for Inactive)
REMARK       I    between atoms: N1_1  and  C1_2 
REMARK    1  A    between atoms: C1_2  and  C2_4 
REMARK    2  A    between atoms: C11_15  and  O2_16 
REMARK    3  A    between atoms: O2_16  and  C12_17 
REMARK    4  A    between atoms: C12_17  and  C13_18 
ROOT
HETATM    1  C2  UNL     1      16.731  -0.998  51.709  1.00  0.00     0.026 A 
HETATM    2  C3  UNL     1      17.087  -1.903  52.680  1.00  0.00     0.017 A 
HETATM    3  C4  UNL     1      18.216  -1.674  53.441  1.00  0.00     0.010 A 
HETATM    4  C5  UNL     1      18.999  -0.554  53.249  1.00  0.00    -0.031 A 
HETATM    5  C6  UNL     1      18.678   0.384  52.282  1.00  0.00    -0.029 A 
HETATM    6  C7  UNL     1      17.530   0.113  51.539  1.00  0.00     0.026 A 
HETATM    7  C8  UNL     1      19.477   1.625  52.013  1.00  0.00     0.187 C 
HETATM    8  N2  UNL     1      20.794   1.359  52.559  1.00  0.00    -0.299 N 
HETATM    9  C9  UNL     1      21.700   2.424  52.212  1.00  0.00     0.137 C 
HETATM   10  C10 UNL     1      23.042   2.467  52.243  1.00  0.00     0.084 C 
HETATM   11 CL1  UNL     1      23.911   3.892  51.766  1.00  0.00    -0.080 Cl
HETATM   12  C11 UNL     1      23.899   1.362  52.667  1.00  0.00     0.090 C 
HETATM   13  C19 UNL     1      23.588   0.089  52.898  1.00  0.00     0.033 C 
HETATM   14  C20 UNL     1      22.239  -0.512  52.768  1.00  0.00     0.173 C 
HETATM   15  N3  UNL     1      21.190   0.275  53.307  1.00  0.00    -0.318 N 
HETATM   16  C21 UNL     1      20.216  -0.354  54.103  1.00  0.00     0.182 C 
ENDROOT
BRANCH  12  17
HETATM   17  O2  UNL     1      25.258   1.584  52.886  1.00  0.00    -0.345 OA
BRANCH  17  18
HETATM   18  C12 UNL     1      26.251   1.332  51.939  1.00  0.00     0.214 C 
BRANCH  18  19
HETATM   19  C13 UNL     1      27.342   0.568  52.627  1.00  0.00    -0.031 A 
HETATM   20  C14 UNL     1      28.235   1.289  53.416  1.00  0.00     0.009 A 
HETATM   21  C15 UNL     1      29.297   0.764  54.123  1.00  0.00     0.004 A 
HETATM   22  C16 UNL     1      29.457  -0.598  54.015  1.00  0.00     0.042 A 
HETATM   23  C17 UNL     1      28.594  -1.347  53.243  1.00  0.00     0.117 A 
HETATM   24  F1  UNL     1      28.780  -2.706  53.156  1.00  0.00    -0.206 F 
HETATM   25  C18 UNL     1      27.533  -0.793  52.542  1.00  0.00     0.051 A 
ENDBRANCH  18  19
ENDBRANCH  17  18
ENDBRANCH  12  17
BRANCH   1  26
HETATM   26  C1  UNL     1      15.546  -1.216  50.895  1.00  0.00     0.228 C 
HETATM   27  N1  UNL     1      15.596  -0.999  49.503  1.00  0.00    -0.268 NA
HETATM   28  H1  UNL     1      15.551  -0.248  48.777  1.00  0.00     0.127 HD
HETATM   29  H2  UNL     1      15.534  -0.141  48.878  1.00  0.00     0.127 HD
HETATM   30  O1  UNL     1      14.477  -1.603  51.478  1.00  0.00    -0.274 OA
ENDBRANCH   1  26
TORSDOF 4
ENDMDL
MODEL 7
REMARK VINA RESULT:      -8.5      2.218      2.714
REMARK  4 active torsions:
REMARK  status: ('A' for Active; 'I' for Inactive)
REMARK       I    between atoms: N1_1  and  C1_2 
REMARK    1  A    between atoms: C1_2  and  C2_4 
REMARK    2  A    between atoms: C11_15  and  O2_16 
REMARK    3  A    between atoms: O2_16  and  C12_17 
REMARK    4  A    between atoms: C12_17  and  C13_18 
ROOT
HETATM    1  C2  UNL     1      17.374   2.680  49.950  1.00  0.00     0.026 A 
HETATM    2  C3  UNL     1      18.225   2.889  48.890  1.00  0.00     0.017 A 
HETATM    3  C4  UNL     1      19.457   2.269  48.876  1.00  0.00     0.010 A 
HETATM    4  C5  UNL     1      19.860   1.441  49.905  1.00  0.00    -0.031 A 
HETATM    5  C6  UNL     1      19.035   1.203  50.993  1.00  0.00    -0.029 A 
HETATM    6  C7  UNL     1      17.800   1.848  50.964  1.00  0.00     0.026 A 
HETATM    7  C8  UNL     1      19.399   0.318  52.148  1.00  0.00     0.187 C 
HETATM    8  N2  UNL     1      20.847   0.227  52.121  1.00  0.00    -0.299 N 
HETATM    9  C9  UNL     1      21.323  -0.468  53.290  1.00  0.00     0.137 C 
HETATM   10  C10 UNL     1      22.554  -0.529  53.822  1.00  0.00     0.084 C 
HETATM   11 CL1  UNL     1      22.872  -1.451  55.259  1.00  0.00    -0.080 Cl
HETATM   12  C11 UNL     1      23.729   0.148  53.278  1.00  0.00     0.090 C 
HETATM   13  C19 UNL     1      23.807   1.078  52.330  1.00  0.00     0.033 C 
HETATM   14  C20 UNL     1      22.663   1.657  51.585  1.00  0.00     0.173 C 
HETATM   15  N3  UNL     1      21.700   0.708  51.157  1.00  0.00    -0.318 N 
HETATM   16  C21 UNL     1      21.212   0.793  49.840  1.00  0.00     0.182 C 
ENDROOT
BRANCH  12  17
HETATM   17  O2  UNL     1      24.997  -0.165  53.766  1.00  0.00    -0.345 OA
BRANCH  17  18
HETATM   18  C12 UNL     1      25.919  -0.959  53.084  1.00  0.00     0.214 C 
BRANCH  18  19
HETATM   19  C13 UNL     1      27.274  -0.356  53.300  1.00  0.00    -0.031 A 
HETATM   20  C14 UNL     1      28.371  -1.216  53.300  1.00  0.00     0.009 A 
HETATM   21  C15 UNL     1      29.687  -0.848  53.480  1.00  0.00     0.004 A 
HETATM   22  C16 UNL     1      29.900   0.496  53.676  1.00  0.00     0.042 A 
HETATM   23  C17 UNL     1      28.841   1.380  53.683  1.00  0.00     0.117 A 
HETATM   24  F1  UNL     1      29.085   2.718  53.881  1.00  0.00    -0.206 F 
HETATM   25  C18 UNL     1      27.524   0.984  53.499  1.00  0.00     0.051 A 
ENDBRANCH  18  19
ENDBRANCH  17  18
ENDBRANCH  12  17
BRANCH   1  26
HETATM   26  C1  UNL     1      16.069   3.321  49.987  1.00  0.00     0.228 C 
HETATM   27  N1  UNL     1      15.023   2.840  49.174  1.00  0.00    -0.268 NA
HETATM   28  H1  UNL     1      14.645   2.876  48.200  1.00  0.00     0.127 HD
HETATM   29  H2  UNL     1      14.753   2.966  48.154  1.00  0.00     0.127 HD
HETATM   30  O1  UNL     1      15.909   4.318  50.771  1.00  0.00    -0.274 OA
ENDBRANCH   1  26
TORSDOF 4
ENDMDL
MODEL 8
REMARK VINA RESULT:      -8.4      6.293     10.169
REMARK  4 active torsions:
REMARK  status: ('A' for Active; 'I' for Inactive)
REMARK       I    between atoms: N1_1  and  C1_2 
REMARK    1  A    between atoms: C1_2  and  C2_4 
REMARK    2  A    between atoms: C11_15  and  O2_16 
REMARK    3  A    between atoms: O2_16  and  C12_17 
REMARK    4  A    between atoms: C12_17  and  C13_18 
ROOT
HETATM    1  C2  UNL     1      27.380  -0.426  53.002  1.00  0.00     0.026 A 
HETATM    2  C3  UNL     1      26.140  -0.832  53.436  1.00  0.00     0.017 A 
HETATM    3  C4  UNL     1      25.017  -0.155  53.008  1.00  0.00     0.010 A 
HETATM    4  C5  UNL     1      25.107   0.924  52.153  1.00  0.00    -0.031 A 
HETATM    5  C6  UNL     1      26.336   1.367  51.690  1.00  0.00    -0.029 A 
HETATM    6  C7  UNL     1      27.443   0.654  52.147  1.00  0.00     0.026 A 
HETATM    7  C8  UNL     1      26.517   2.530  50.760  1.00  0.00     0.187 C 
HETATM    8  N2  UNL     1      25.304   3.315  50.886  1.00  0.00    -0.299 N 
HETATM    9  C9  UNL     1      25.434   4.551  50.157  1.00  0.00     0.137 C 
HETATM   10  C10 UNL     1      24.710   5.680  50.227  1.00  0.00     0.084 C 
HETATM   11 CL1  UNL     1      25.077   7.050  49.225  1.00  0.00    -0.080 Cl
HETATM   12  C11 UNL     1      23.571   5.883  51.119  1.00  0.00     0.090 C 
HETATM   13  C19 UNL     1      23.150   5.139  52.138  1.00  0.00     0.033 C 
HETATM   14  C20 UNL     1      23.777   3.882  52.613  1.00  0.00     0.173 C 
HETATM   15  N3  UNL     1      24.162   2.990  51.579  1.00  0.00    -0.318 N 
HETATM   16  C21 UNL     1      23.853   1.625  51.719  1.00  0.00     0.182 C 
ENDROOT
BRANCH  12  17
HETATM   17  O2  UNL     1      22.748   6.996  50.949  1.00  0.00    -0.345 OA
BRANCH  17  18
HETATM   18  C12 UNL     1      21.396   6.920  50.614  1.00  0.00     0.214 C 
BRANCH  18  19
HETATM   19  C13 UNL     1      21.027   8.213  49.951  1.00  0.00    -0.031 A 
HETATM   20  C14 UNL     1      21.996   8.837  49.169  1.00  0.00     0.009 A 
HETATM   21  C15 UNL     1      21.843  10.025  48.485  1.00  0.00     0.004 A 
HETATM   22  C16 UNL     1      20.608  10.619  48.609  1.00  0.00     0.042 A 
HETATM   23  C17 UNL     1      19.622  10.032  49.375  1.00  0.00     0.117 A 
HETATM   24  F1  UNL     1      18.399  10.649  49.479  1.00  0.00    -0.206 F 
HETATM   25  C18 UNL     1      19.803   8.835  50.053  1.00  0.00     0.051 A 
ENDBRANCH  18  19
ENDBRANCH  17  18
ENDBRANCH  12  17
BRANCH   1  26
HETATM   26  C1  UNL     1      28.580  -1.124  53.438  1.00  0.00     0.228 C 
HETATM   27  N1  UNL     1      29.694  -0.393  53.898  1.00  0.00    -0.268 NA
HETATM   28  H1  UNL     1      30.526   0.147  53.570  1.00  0.00     0.127 HD
HETATM   29  H2  UNL     1      30.494   0.124  53.427  1.00  0.00     0.127 HD
HETATM   30  O1  UNL     1      28.586  -2.401  53.388  1.00  0.00    -0.274 OA
ENDBRANCH   1  26
TORSDOF 4
ENDMDL
MODEL 9
REMARK VINA RESULT:      -8.2      6.299     10.235
REMARK  4 active torsions:
REMARK  status: ('A' for Active; 'I' for Inactive)
REMARK       I    between atoms: N1_1  and  C1_2 
REMARK    1  A    between atoms: C1_2  and  C2_4 
REMARK    2  A    between atoms: C11_15  and  O2_16 
REMARK    3  A    between atoms: O2_16  and  C12_17 
REMARK    4  A    between atoms: C12_17  and  C13_18 
ROOT
HETATM    1  C2  UNL     1      28.783   8.918  49.108  1.00  0.00     0.026 A 
HETATM    2  C3  UNL     1      29.227   7.968  48.220  1.00  0.00     0.017 A 
HETATM    3  C4  UNL     1      28.459   6.847  47.985  1.00  0.00     0.010 A 
HETATM    4  C5  UNL     1      27.251   6.653  48.623  1.00  0.00    -0.031 A 
HETATM    5  C6  UNL     1      26.765   7.585  49.526  1.00  0.00    -0.029 A 
HETATM    6  C7  UNL     1      27.573   8.702  49.732  1.00  0.00     0.026 A 
HETATM    7  C8  UNL     1      25.463   7.448  50.259  1.00  0.00     0.187 C 
HETATM    8  N2  UNL     1      25.145   6.033  50.217  1.00  0.00    -0.299 N 
HETATM    9  C9  UNL     1      23.992   5.759  51.036  1.00  0.00     0.137 C 
HETATM   10  C10 UNL     1      23.529   4.594  51.520  1.00  0.00     0.084 C 
HETATM   11 CL1  UNL     1      22.095   4.530  52.497  1.00  0.00    -0.080 Cl
HETATM   12  C11 UNL     1      24.151   3.293  51.291  1.00  0.00     0.090 C 
HETATM   13  C19 UNL     1      25.341   3.003  50.772  1.00  0.00     0.033 C 
HETATM   14  C20 UNL     1      26.342   3.985  50.291  1.00  0.00     0.173 C 
HETATM   15  N3  UNL     1      25.801   5.046  49.521  1.00  0.00    -0.318 N 
HETATM   16  C21 UNL     1      26.456   5.415  48.331  1.00  0.00     0.182 C 
ENDROOT
BRANCH  12  17
HETATM   17  O2  UNL     1      23.468   2.127  51.636  1.00  0.00    -0.345 OA
BRANCH  17  18
HETATM   18  C12 UNL     1      24.070   1.019  52.232  1.00  0.00     0.214 C 
BRANCH  18  19
HETATM   19  C13 UNL     1      23.001   0.274  52.973  1.00  0.00    -0.031 A 
HETATM   20  C14 UNL     1      23.398  -0.539  54.033  1.00  0.00     0.009 A 
HETATM   21  C15 UNL     1      22.564  -1.296  54.828  1.00  0.00     0.004 A 
HETATM   22  C16 UNL     1      21.226  -1.218  54.518  1.00  0.00     0.042 A 
HETATM   23  C17 UNL     1      20.793  -0.424  53.476  1.00  0.00     0.117 A 
HETATM   24  F1  UNL     1      19.450  -0.367  53.191  1.00  0.00    -0.206 F 
HETATM   25  C18 UNL     1      21.654   0.328  52.691  1.00  0.00     0.051 A 
ENDBRANCH  18  19
ENDBRANCH  17  18
ENDBRANCH  12  17
BRANCH   1  26
HETATM   26  C1  UNL     1      29.574  10.110  49.373  1.00  0.00     0.228 C 
HETATM   27  N1  UNL     1      28.995  11.388  49.232  1.00  0.00    -0.268 NA
HETATM   28  H1  UNL     1      28.747  12.113  48.521  1.00  0.00     0.127 HD
HETATM   29  H2  UNL     1      28.799  12.032  48.409  1.00  0.00     0.127 HD
HETATM   30  O1  UNL     1      30.792   9.958  49.731  1.00  0.00    -0.274 OA
ENDBRANCH   1  26
TORSDOF 4
ENDMDL
