MODEL 1
REMARK VINA RESULT:      -9.2      0.000      0.000
REMARK  3 active torsions:
REMARK  status: ('A' for Active; 'I' for Inactive)
REMARK    1  A    between atoms: C16_22  and  O2_23 
REMARK    2  A    between atoms: O2_23  and  C17_24 
REMARK    3  A    between atoms: C17_24  and  C18_25 
ROOT
HETATM    1  C1  UNL     1      22.399   5.146  52.289  1.00  0.00     0.068 C 
HETATM    2  C2  UNL     1      22.824   4.380  51.085  1.00  0.00     0.038 C 
HETATM    3  N1  UNL     1      22.548   3.173  51.284  1.00  0.00    -0.249 NA
HETATM    4  C3  UNL     1      21.979   2.438  52.310  1.00  0.00     0.233 C 
HETATM    5  N2  UNL     1      22.348   1.379  51.568  1.00  0.00    -0.240 NA
HETATM    6  C4  UNL     1      23.013   1.815  50.316  1.00  0.00     0.090 C 
HETATM    7  C5  UNL     1      21.828   1.522  49.809  1.00  0.00     0.054 C 
HETATM    8  C6  UNL     1      21.454   1.657  48.368  1.00  0.00     0.287 C 
HETATM    9  F1  UNL     1      22.496   1.206  47.598  1.00  0.00    -0.235 F 
HETATM   10  C7  UNL     1      21.271   3.128  48.082  1.00  0.00     0.255 C 
HETATM   11  O1  UNL     1      21.852   3.936  47.345  1.00  0.00    -0.270 OA
HETATM   12  N3  UNL     1      20.356   4.081  48.587  1.00  0.00    -0.357 N 
HETATM   13  C8  UNL     1      20.464   5.506  48.238  1.00  0.00     0.142 C 
HETATM   14  C9  UNL     1      21.672   6.105  48.932  1.00  0.00     0.137 C 
HETATM   15  N4  UNL     1      22.910   5.524  48.858  1.00  0.00    -0.397 N 
HETATM   16  C10 UNL     1      23.915   6.282  48.128  1.00  0.00     0.118 C 
HETATM   17  C11 UNL     1      25.032   6.542  49.077  1.00  0.00     0.022 C 
HETATM   18  C12 UNL     1      24.565   5.861  50.347  1.00  0.00     0.039 C 
HETATM   19  C13 UNL     1      23.525   4.821  49.868  1.00  0.00     0.071 C 
HETATM   20  C14 UNL     1      24.414   3.701  49.328  1.00  0.00     0.067 C 
HETATM   21  C15 UNL     1      25.062   3.006  50.493  1.00  0.00     0.015 C 
HETATM   22  C16 UNL     1      24.277   2.052  50.947  1.00  0.00     0.094 C 
HETATM   23  H7  UNL     1      19.733   3.499  49.161  1.00  0.00     0.162 HD
ENDROOT
BRANCH  22  24
HETATM   24  O2  UNL     1      24.929   1.459  52.018  1.00  0.00    -0.345 OA
BRANCH  24  25
HETATM   25  C17 UNL     1      26.211   1.961  52.351  1.00  0.00     0.214 C 
BRANCH  25  26
HETATM   26  C18 UNL     1      27.139   0.866  52.708  1.00  0.00    -0.031 A 
HETATM   27  C19 UNL     1      28.374   1.075  53.305  1.00  0.00     0.009 A 
HETATM   28  C20 UNL     1      29.240   0.052  53.637  1.00  0.00     0.004 A 
HETATM   29  C21 UNL     1      28.881  -1.252  53.371  1.00  0.00     0.042 A 
HETATM   30  C22 UNL     1      27.665  -1.507  52.778  1.00  0.00     0.117 A 
HETATM   31  F2  UNL     1      27.236  -2.752  52.485  1.00  0.00    -0.206 F 
HETATM   32  C23 UNL     1      26.823  -0.453  52.461  1.00  0.00     0.051 A 
ENDBRANCH  25  26
ENDBRANCH  24  25
ENDBRANCH  22  24
TORSDOF 3
ENDMDL
MODEL 2
REMARK VINA RESULT:      -9.1      2.415      4.063
REMARK  3 active torsions:
REMARK  status: ('A' for Active; 'I' for Inactive)
REMARK    1  A    between atoms: C16_22  and  O2_23 
REMARK    2  A    between atoms: O2_23  and  C17_24 
REMARK    3  A    between atoms: C17_24  and  C18_25 
ROOT
HETATM    1  C1  UNL     1      22.718   1.851  48.301  1.00  0.00     0.068 C 
HETATM    2  C2  UNL     1      22.640   2.267  49.729  1.00  0.00     0.038 C 
HETATM    3  N1  UNL     1      23.699   2.879  50.007  1.00  0.00    -0.249 NA
HETATM    4  C3  UNL     1      24.854   3.227  49.328  1.00  0.00     0.233 C 
HETATM    5  N2  UNL     1      25.282   3.618  50.541  1.00  0.00    -0.240 NA
HETATM    6  C4  UNL     1      24.237   3.394  51.569  1.00  0.00     0.090 C 
HETATM    7  C5  UNL     1      24.072   4.697  51.413  1.00  0.00     0.054 C 
HETATM    8  C6  UNL     1      23.072   5.530  52.146  1.00  0.00     0.287 C 
HETATM    9  F1  UNL     1      23.052   5.138  53.462  1.00  0.00    -0.235 F 
HETATM   10  C7  UNL     1      21.714   5.234  51.556  1.00  0.00     0.255 C 
HETATM   11  O1  UNL     1      20.675   4.734  52.006  1.00  0.00    -0.270 OA
HETATM   12  N3  UNL     1      21.185   5.433  50.259  1.00  0.00    -0.357 N 
HETATM   13  C8  UNL     1      19.850   4.938  49.893  1.00  0.00     0.142 C 
HETATM   14  C9  UNL     1      19.884   3.425  49.788  1.00  0.00     0.137 C 
HETATM   15  N4  UNL     1      20.400   2.643  50.787  1.00  0.00    -0.397 N 
HETATM   16  C10 UNL     1      19.438   1.805  51.487  1.00  0.00     0.118 C 
HETATM   17  C11 UNL     1      19.888   0.397  51.315  1.00  0.00     0.022 C 
HETATM   18  C12 UNL     1      21.155   0.542  50.497  1.00  0.00     0.039 C 
HETATM   19  C13 UNL     1      21.614   1.997  50.750  1.00  0.00     0.071 C 
HETATM   20  C14 UNL     1      22.253   1.898  52.136  1.00  0.00     0.067 C 
HETATM   21  C15 UNL     1      23.556   1.159  52.005  1.00  0.00     0.015 C 
HETATM   22  C16 UNL     1      24.526   1.998  51.709  1.00  0.00     0.094 C 
HETATM   23  H7  UNL     1      21.944   5.947  49.794  1.00  0.00     0.162 HD
ENDROOT
BRANCH  22  24
HETATM   24  O2  UNL     1      25.692   1.255  51.599  1.00  0.00    -0.345 OA
BRANCH  24  25
HETATM   25  C17 UNL     1      25.800   0.100  52.411  1.00  0.00     0.214 C 
BRANCH  25  26
HETATM   26  C18 UNL     1      27.176  -0.065  52.926  1.00  0.00    -0.031 A 
HETATM   27  C19 UNL     1      27.881  -1.258  52.854  1.00  0.00     0.009 A 
HETATM   28  C20 UNL     1      29.167  -1.411  53.336  1.00  0.00     0.004 A 
HETATM   29  C21 UNL     1      29.802  -0.338  53.923  1.00  0.00     0.042 A 
HETATM   30  C22 UNL     1      29.141   0.865  54.017  1.00  0.00     0.117 A 
HETATM   31  F2  UNL     1      29.688   1.964  54.575  1.00  0.00    -0.206 F 
HETATM   32  C23 UNL     1      27.851   0.979  53.521  1.00  0.00     0.051 A 
ENDBRANCH  25  26
ENDBRANCH  24  25
ENDBRANCH  22  24
TORSDOF 3
ENDMDL
MODEL 3
REMARK VINA RESULT:      -9.0      2.035      2.904
REMARK  3 active torsions:
REMARK  status: ('A' for Active; 'I' for Inactive)
REMARK    1  A    between atoms: C16_22  and  O2_23 
REMARK    2  A    between atoms: O2_23  and  C17_24 
REMARK    3  A    between atoms: C17_24  and  C18_25 
ROOT
HETATM    1  C1  UNL     1      21.957   5.895  51.170  1.00  0.00     0.068 C 
HETATM    2  C2  UNL     1      22.086   4.445  50.857  1.00  0.00     0.038 C 
HETATM    3  N1  UNL     1      22.764   3.916  51.770  1.00  0.00    -0.249 NA
HETATM    4  C3  UNL     1      23.387   4.353  52.927  1.00  0.00     0.233 C 
HETATM    5  N2  UNL     1      23.894   3.108  52.958  1.00  0.00    -0.240 NA
HETATM    6  C4  UNL     1      23.402   2.308  51.810  1.00  0.00     0.090 C 
HETATM    7  C5  UNL     1      22.611   1.807  52.744  1.00  0.00     0.054 C 
HETATM    8  C6  UNL     1      21.580   0.749  52.518  1.00  0.00     0.287 C 
HETATM    9  F1  UNL     1      22.106  -0.209  51.688  1.00  0.00    -0.235 F 
HETATM   10  C7  UNL     1      20.417   1.392  51.803  1.00  0.00     0.255 C 
HETATM   11  O1  UNL     1      19.901   1.231  50.688  1.00  0.00    -0.270 OA
HETATM   12  N3  UNL     1      19.525   2.421  52.186  1.00  0.00    -0.357 N 
HETATM   13  C8  UNL     1      18.535   2.966  51.246  1.00  0.00     0.142 C 
HETATM   14  C9  UNL     1      19.244   3.796  50.192  1.00  0.00     0.137 C 
HETATM   15  N4  UNL     1      20.317   3.311  49.492  1.00  0.00    -0.397 N 
HETATM   16  C10 UNL     1      20.093   3.097  48.071  1.00  0.00     0.118 C 
HETATM   17  C11 UNL     1      21.084   3.939  47.347  1.00  0.00     0.022 C 
HETATM   18  C12 UNL     1      21.857   4.598  48.472  1.00  0.00     0.039 C 
HETATM   19  C13 UNL     1      21.630   3.673  49.690  1.00  0.00     0.071 C 
HETATM   20  C14 UNL     1      22.591   2.519  49.403  1.00  0.00     0.067 C 
HETATM   21  C15 UNL     1      23.996   3.009  49.619  1.00  0.00     0.015 C 
HETATM   22  C16 UNL     1      24.337   2.869  50.882  1.00  0.00     0.094 C 
HETATM   23  H7  UNL     1      19.794   2.586  53.164  1.00  0.00     0.162 HD
ENDROOT
BRANCH  22  24
HETATM   24  O2  UNL     1      25.635   3.342  51.012  1.00  0.00    -0.345 OA
BRANCH  24  25
HETATM   25  C17 UNL     1      26.683   2.449  50.682  1.00  0.00     0.214 C 
BRANCH  25  26
HETATM   26  C18 UNL     1      27.010   1.564  51.820  1.00  0.00    -0.031 A 
HETATM   27  C19 UNL     1      27.705   1.990  52.944  1.00  0.00     0.009 A 
HETATM   28  C20 UNL     1      28.010   1.162  54.007  1.00  0.00     0.004 A 
HETATM   29  C21 UNL     1      27.616  -0.158  53.972  1.00  0.00     0.042 A 
HETATM   30  C22 UNL     1      26.925  -0.625  52.877  1.00  0.00     0.117 A 
HETATM   31  F2  UNL     1      26.502  -1.901  52.762  1.00  0.00    -0.206 F 
HETATM   32  C23 UNL     1      26.638   0.237  51.830  1.00  0.00     0.051 A 
ENDBRANCH  25  26
ENDBRANCH  24  25
ENDBRANCH  22  24
TORSDOF 3
ENDMDL
MODEL 4
REMARK VINA RESULT:      -9.0      3.090      4.269
REMARK  3 active torsions:
REMARK  status: ('A' for Active; 'I' for Inactive)
REMARK    1  A    between atoms: C16_22  and  O2_23 
REMARK    2  A    between atoms: O2_23  and  C17_24 
REMARK    3  A    between atoms: C17_24  and  C18_25 
ROOT
HETATM    1  C1  UNL     1      23.772   4.223  52.820  1.00  0.00     0.068 C 
HETATM    2  C2  UNL     1      23.397   4.407  51.390  1.00  0.00     0.038 C 
HETATM    3  N1  UNL     1      22.147   4.330  51.311  1.00  0.00    -0.249 NA
HETATM    4  C3  UNL     1      21.105   4.120  52.197  1.00  0.00     0.233 C 
HETATM    5  N2  UNL     1      20.356   4.050  51.082  1.00  0.00    -0.240 NA
HETATM    6  C4  UNL     1      21.188   4.257  49.872  1.00  0.00     0.090 C 
HETATM    7  C5  UNL     1      20.646   5.461  49.937  1.00  0.00     0.054 C 
HETATM    8  C6  UNL     1      20.915   6.577  48.979  1.00  0.00     0.287 C 
HETATM    9  F1  UNL     1      20.945   6.067  47.706  1.00  0.00    -0.235 F 
HETATM   10  C7  UNL     1      22.289   7.120  49.291  1.00  0.00     0.255 C 
HETATM   11  O1  UNL     1      23.352   7.175  48.658  1.00  0.00    -0.270 OA
HETATM   12  N3  UNL     1      22.816   7.751  50.442  1.00  0.00    -0.357 N 
HETATM   13  C8  UNL     1      24.245   8.083  50.547  1.00  0.00     0.142 C 
HETATM   14  C9  UNL     1      25.047   6.808  50.720  1.00  0.00     0.137 C 
HETATM   15  N4  UNL     1      24.891   5.736  49.881  1.00  0.00    -0.397 N 
HETATM   16  C10 UNL     1      26.033   5.431  49.034  1.00  0.00     0.118 C 
HETATM   17  C11 UNL     1      26.445   4.036  49.353  1.00  0.00     0.022 C 
HETATM   18  C12 UNL     1      25.440   3.618  50.407  1.00  0.00     0.039 C 
HETATM   19  C13 UNL     1      24.238   4.566  50.193  1.00  0.00     0.071 C 
HETATM   20  C14 UNL     1      23.553   3.949  48.973  1.00  0.00     0.067 C 
HETATM   21  C15 UNL     1      22.891   2.668  49.399  1.00  0.00     0.015 C 
HETATM   22  C16 UNL     1      21.679   2.912  49.852  1.00  0.00     0.094 C 
HETATM   23  H7  UNL     1      21.981   7.856  51.031  1.00  0.00     0.162 HD
ENDROOT
BRANCH  22  24
HETATM   24  O2  UNL     1      21.130   1.695  50.230  1.00  0.00    -0.345 OA
BRANCH  24  25
HETATM   25  C17 UNL     1      22.030   0.681  50.642  1.00  0.00     0.214 C 
BRANCH  25  26
HETATM   26  C18 UNL     1      21.823   0.328  52.063  1.00  0.00    -0.031 A 
HETATM   27  C19 UNL     1      20.617   0.503  52.726  1.00  0.00     0.009 A 
HETATM   28  C20 UNL     1      20.425   0.172  54.054  1.00  0.00     0.004 A 
HETATM   29  C21 UNL     1      21.471  -0.358  54.777  1.00  0.00     0.042 A 
HETATM   30  C22 UNL     1      22.688  -0.548  54.161  1.00  0.00     0.117 A 
HETATM   31  F2  UNL     1      23.762  -1.062  54.794  1.00  0.00    -0.206 F 
HETATM   32  C23 UNL     1      22.840  -0.205  52.826  1.00  0.00     0.051 A 
ENDBRANCH  25  26
ENDBRANCH  24  25
ENDBRANCH  22  24
TORSDOF 3
ENDMDL
MODEL 5
REMARK VINA RESULT:      -8.9      3.168      5.079
REMARK  3 active torsions:
REMARK  status: ('A' for Active; 'I' for Inactive)
REMARK    1  A    between atoms: C16_22  and  O2_23 
REMARK    2  A    between atoms: O2_23  and  C17_24 
REMARK    3  A    between atoms: C17_24  and  C18_25 
ROOT
HETATM    1  C1  UNL     1      21.875   5.818  50.846  1.00  0.00     0.068 C 
HETATM    2  C2  UNL     1      22.116   4.356  50.697  1.00  0.00     0.038 C 
HETATM    3  N1  UNL     1      22.893   4.002  51.616  1.00  0.00    -0.249 NA
HETATM    4  C3  UNL     1      23.541   4.628  52.667  1.00  0.00     0.233 C 
HETATM    5  N2  UNL     1      24.160   3.442  52.808  1.00  0.00    -0.240 NA
HETATM    6  C4  UNL     1      23.674   2.468  51.800  1.00  0.00     0.090 C 
HETATM    7  C5  UNL     1      22.988   2.023  52.838  1.00  0.00     0.054 C 
HETATM    8  C6  UNL     1      22.046   0.864  52.812  1.00  0.00     0.287 C 
HETATM    9  F1  UNL     1      22.606  -0.142  52.064  1.00  0.00    -0.235 F 
HETATM   10  C7  UNL     1      20.789   1.316  52.109  1.00  0.00     0.255 C 
HETATM   11  O1  UNL     1      20.224   0.977  51.060  1.00  0.00    -0.270 OA
HETATM   12  N3  UNL     1      19.832   2.307  52.431  1.00  0.00    -0.357 N 
HETATM   13  C8  UNL     1      18.743   2.649  51.505  1.00  0.00     0.142 C 
HETATM   14  C9  UNL     1      19.309   3.399  50.314  1.00  0.00     0.137 C 
HETATM   15  N4  UNL     1      20.378   2.922  49.602  1.00  0.00    -0.397 N 
HETATM   16  C10 UNL     1      20.090   2.516  48.235  1.00  0.00     0.118 C 
HETATM   17  C11 UNL     1      20.956   3.342  47.350  1.00  0.00     0.022 C 
HETATM   18  C12 UNL     1      21.732   4.195  48.332  1.00  0.00     0.039 C 
HETATM   19  C13 UNL     1      21.663   3.412  49.663  1.00  0.00     0.071 C 
HETATM   20  C14 UNL     1      22.705   2.315  49.447  1.00  0.00     0.067 C 
HETATM   21  C15 UNL     1      24.070   2.941  49.504  1.00  0.00     0.015 C 
HETATM   22  C16 UNL     1      24.498   2.987  50.749  1.00  0.00     0.094 C 
HETATM   23  H7  UNL     1      20.143   2.613  53.362  1.00  0.00     0.162 HD
ENDROOT
BRANCH  22  24
HETATM   24  O2  UNL     1      25.753   3.577  50.730  1.00  0.00    -0.345 OA
BRANCH  24  25
HETATM   25  C17 UNL     1      26.505   3.456  49.537  1.00  0.00     0.214 C 
BRANCH  25  26
HETATM   26  C18 UNL     1      26.920   4.782  49.029  1.00  0.00    -0.031 A 
HETATM   27  C19 UNL     1      26.103   5.904  49.066  1.00  0.00     0.009 A 
HETATM   28  C20 UNL     1      26.492   7.142  48.591  1.00  0.00     0.004 A 
HETATM   29  C21 UNL     1      27.749   7.294  48.048  1.00  0.00     0.042 A 
HETATM   30  C22 UNL     1      28.593   6.209  47.990  1.00  0.00     0.117 A 
HETATM   31  F2  UNL     1      29.839   6.271  47.476  1.00  0.00    -0.206 F 
HETATM   32  C23 UNL     1      28.167   4.983  48.478  1.00  0.00     0.051 A 
ENDBRANCH  25  26
ENDBRANCH  24  25
ENDBRANCH  22  24
TORSDOF 3
ENDMDL
MODEL 6
REMARK VINA RESULT:      -8.6      1.599      2.052
REMARK  3 active torsions:
REMARK  status: ('A' for Active; 'I' for Inactive)
REMARK    1  A    between atoms: C16_22  and  O2_23 
REMARK    2  A    between atoms: O2_23  and  C17_24 
REMARK    3  A    between atoms: C17_24  and  C18_25 
ROOT
HETATM    1  C1  UNL     1      21.750   6.036  51.199  1.00  0.00     0.068 C 
HETATM    2  C2  UNL     1      22.062   4.908  50.278  1.00  0.00     0.038 C 
HETATM    3  N1  UNL     1      22.270   3.889  50.980  1.00  0.00    -0.249 NA
HETATM    4  C3  UNL     1      22.281   3.599  52.334  1.00  0.00     0.233 C 
HETATM    5  N2  UNL     1      22.765   2.410  51.932  1.00  0.00    -0.240 NA
HETATM    6  C4  UNL     1      22.879   2.357  50.454  1.00  0.00     0.090 C 
HETATM    7  C5  UNL     1      21.769   1.650  50.584  1.00  0.00     0.054 C 
HETATM    8  C6  UNL     1      20.995   1.054  49.454  1.00  0.00     0.287 C 
HETATM    9  F1  UNL     1      21.877   0.511  48.553  1.00  0.00    -0.235 F 
HETATM   10  C7  UNL     1      20.261   2.177  48.762  1.00  0.00     0.255 C 
HETATM   11  O1  UNL     1      20.315   2.663  47.625  1.00  0.00    -0.270 OA
HETATM   12  N3  UNL     1      19.255   3.064  49.211  1.00  0.00    -0.357 N 
HETATM   13  C8  UNL     1      18.781   4.174  48.370  1.00  0.00     0.142 C 
HETATM   14  C9  UNL     1      19.860   5.236  48.283  1.00  0.00     0.137 C 
HETATM   15  N4  UNL     1      21.152   4.929  47.945  1.00  0.00    -0.397 N 
HETATM   16  C10 UNL     1      21.607   5.454  46.666  1.00  0.00     0.118 C 
HETATM   17  C11 UNL     1      22.786   6.316  46.951  1.00  0.00     0.022 C 
HETATM   18  C12 UNL     1      22.938   6.200  48.454  1.00  0.00     0.039 C 
HETATM   19  C13 UNL     1      22.216   4.881  48.815  1.00  0.00     0.071 C 
HETATM   20  C14 UNL     1      23.245   3.828  48.405  1.00  0.00     0.067 C 
HETATM   21  C15 UNL     1      24.379   3.864  49.392  1.00  0.00     0.015 C 
HETATM   22  C16 UNL     1      24.113   3.084  50.419  1.00  0.00     0.094 C 
HETATM   23  H7  UNL     1      19.043   2.695  50.146  1.00  0.00     0.162 HD
ENDROOT
BRANCH  22  24
HETATM   24  O2  UNL     1      25.191   3.168  51.288  1.00  0.00    -0.345 OA
BRANCH  24  25
HETATM   25  C17 UNL     1      26.407   2.576  50.866  1.00  0.00     0.214 C 
BRANCH  25  26
HETATM   26  C18 UNL     1      26.882   1.574  51.845  1.00  0.00    -0.031 A 
HETATM   27  C19 UNL     1      26.485   0.245  51.830  1.00  0.00     0.009 A 
HETATM   28  C20 UNL     1      26.929  -0.690  52.745  1.00  0.00     0.004 A 
HETATM   29  C21 UNL     1      27.811  -0.306  53.731  1.00  0.00     0.042 A 
HETATM   30  C22 UNL     1      28.232   1.003  53.785  1.00  0.00     0.117 A 
HETATM   31  F2  UNL     1      29.094   1.462  54.715  1.00  0.00    -0.206 F 
HETATM   32  C23 UNL     1      27.764   1.912  52.848  1.00  0.00     0.051 A 
ENDBRANCH  25  26
ENDBRANCH  24  25
ENDBRANCH  22  24
TORSDOF 3
ENDMDL
MODEL 7
REMARK VINA RESULT:      -8.3      7.495      9.669
REMARK  3 active torsions:
REMARK  status: ('A' for Active; 'I' for Inactive)
REMARK    1  A    between atoms: C16_22  and  O2_23 
REMARK    2  A    between atoms: O2_23  and  C17_24 
REMARK    3  A    between atoms: C17_24  and  C18_25 
ROOT
HETATM    1  C1  UNL     1      28.046   8.454  45.713  1.00  0.00     0.068 C 
HETATM    2  C2  UNL     1      28.596   9.044  46.965  1.00  0.00     0.038 C 
HETATM    3  N1  UNL     1      29.741   9.487  46.707  1.00  0.00    -0.249 NA
HETATM    4  C3  UNL     1      30.559   9.541  45.591  1.00  0.00     0.233 C 
HETATM    5  N2  UNL     1      31.480   9.991  46.460  1.00  0.00    -0.240 NA
HETATM    6  C4  UNL     1      30.917  10.080  47.830  1.00  0.00     0.090 C 
HETATM    7  C5  UNL     1      30.857  11.363  47.517  1.00  0.00     0.054 C 
HETATM    8  C6  UNL     1      30.340  12.441  48.413  1.00  0.00     0.287 C 
HETATM    9  F1  UNL     1      30.804  12.218  49.685  1.00  0.00    -0.235 F 
HETATM   10  C7  UNL     1      28.835  12.324  48.443  1.00  0.00     0.255 C 
HETATM   11  O1  UNL     1      28.013  12.073  49.335  1.00  0.00    -0.270 OA
HETATM   12  N3  UNL     1      27.857  12.458  47.430  1.00  0.00    -0.357 N 
HETATM   13  C8  UNL     1      26.439  12.169  47.691  1.00  0.00     0.142 C 
HETATM   14  C9  UNL     1      26.251  10.672  47.853  1.00  0.00     0.137 C 
HETATM   15  N4  UNL     1      27.030   9.935  48.706  1.00  0.00    -0.397 N 
HETATM   16  C10 UNL     1      26.340   9.371  49.856  1.00  0.00     0.118 C 
HETATM   17  C11 UNL     1      26.516   7.894  49.781  1.00  0.00     0.022 C 
HETATM   18  C12 UNL     1      27.355   7.714  48.532  1.00  0.00     0.039 C 
HETATM   19  C13 UNL     1      28.043   9.084  48.328  1.00  0.00     0.071 C 
HETATM   20  C14 UNL     1      29.168   9.037  49.363  1.00  0.00     0.067 C 
HETATM   21  C15 UNL     1      30.213   8.069  48.884  1.00  0.00     0.015 C 
HETATM   22  C16 UNL     1      31.074   8.681  48.098  1.00  0.00     0.094 C 
HETATM   23  H7  UNL     1      28.419  12.770  46.628  1.00  0.00     0.162 HD
ENDROOT
BRANCH  22  24
HETATM   24  O2  UNL     1      32.002   7.735  47.689  1.00  0.00    -0.345 OA
BRANCH  24  25
HETATM   25  C17 UNL     1      32.442   6.802  48.660  1.00  0.00     0.214 C 
BRANCH  25  26
HETATM   26  C18 UNL     1      32.841   5.524  48.032  1.00  0.00    -0.031 A 
HETATM   27  C19 UNL     1      34.158   5.098  47.936  1.00  0.00     0.009 A 
HETATM   28  C20 UNL     1      34.529   3.903  47.349  1.00  0.00     0.004 A 
HETATM   29  C21 UNL     1      33.559   3.077  46.825  1.00  0.00     0.042 A 
HETATM   30  C22 UNL     1      32.238   3.460  46.896  1.00  0.00     0.117 A 
HETATM   31  F2  UNL     1      31.227   2.711  46.410  1.00  0.00    -0.206 F 
HETATM   32  C23 UNL     1      31.906   4.666  47.494  1.00  0.00     0.051 A 
ENDBRANCH  25  26
ENDBRANCH  24  25
ENDBRANCH  22  24
TORSDOF 3
ENDMDL
MODEL 8
REMARK VINA RESULT:      -8.2      3.226      5.812
REMARK  3 active torsions:
REMARK  status: ('A' for Active; 'I' for Inactive)
REMARK    1  A    between atoms: C16_22  and  O2_23 
REMARK    2  A    between atoms: O2_23  and  C17_24 
REMARK    3  A    between atoms: C17_24  and  C18_25 
ROOT
HETATM    1  C1  UNL     1      23.264   4.754  53.263  1.00  0.00     0.068 C 
HETATM    2  C2  UNL     1      23.230   3.617  52.302  1.00  0.00     0.038 C 
HETATM    3  N1  UNL     1      22.033   3.419  51.986  1.00  0.00    -0.249 NA
HETATM    4  C3  UNL     1      20.812   3.982  52.315  1.00  0.00     0.233 C 
HETATM    5  N2  UNL     1      20.305   2.950  51.617  1.00  0.00    -0.240 NA
HETATM    6  C4  UNL     1      21.390   2.096  51.074  1.00  0.00     0.090 C 
HETATM    7  C5  UNL     1      21.090   2.750  49.965  1.00  0.00     0.054 C 
HETATM    8  C6  UNL     1      21.760   2.552  48.644  1.00  0.00     0.287 C 
HETATM    9  F1  UNL     1      21.948   1.208  48.442  1.00  0.00    -0.235 F 
HETATM   10  C7  UNL     1      23.121   3.202  48.722  1.00  0.00     0.255 C 
HETATM   11  O1  UNL     1      24.280   2.772  48.653  1.00  0.00    -0.270 OA
HETATM   12  N3  UNL     1      23.515   4.546  48.914  1.00  0.00    -0.357 N 
HETATM   13  C8  UNL     1      24.929   4.914  49.081  1.00  0.00     0.142 C 
HETATM   14  C9  UNL     1      25.417   4.441  50.437  1.00  0.00     0.137 C 
HETATM   15  N4  UNL     1      25.229   3.153  50.864  1.00  0.00    -0.397 N 
HETATM   16  C10 UNL     1      26.438   2.357  51.007  1.00  0.00     0.118 C 
HETATM   17  C11 UNL     1      26.498   1.917  52.428  1.00  0.00     0.022 C 
HETATM   18  C12 UNL     1      25.238   2.514  53.022  1.00  0.00     0.039 C 
HETATM   19  C13 UNL     1      24.312   2.749  51.807  1.00  0.00     0.071 C 
HETATM   20  C14 UNL     1      23.783   1.343  51.526  1.00  0.00     0.067 C 
HETATM   21  C15 UNL     1      22.812   0.976  52.614  1.00  0.00     0.015 C 
HETATM   22  C16 UNL     1      21.604   1.402  52.308  1.00  0.00     0.094 C 
HETATM   23  H7  UNL     1      22.614   5.040  48.892  1.00  0.00     0.162 HD
ENDROOT
BRANCH  22  24
HETATM   24  O2  UNL     1      20.764   1.037  53.351  1.00  0.00    -0.345 OA
BRANCH  24  25
HETATM   25  C17 UNL     1      20.640  -0.347  53.625  1.00  0.00     0.214 C 
BRANCH  25  26
HETATM   26  C18 UNL     1      19.297  -0.846  53.259  1.00  0.00    -0.031 A 
HETATM   27  C19 UNL     1      18.729  -1.986  53.812  1.00  0.00     0.009 A 
HETATM   28  C20 UNL     1      17.475  -2.451  53.469  1.00  0.00     0.004 A 
HETATM   29  C21 UNL     1      16.731  -1.767  52.532  1.00  0.00     0.042 A 
HETATM   30  C22 UNL     1      17.255  -0.632  51.956  1.00  0.00     0.117 A 
HETATM   31  F2  UNL     1      16.595   0.097  51.033  1.00  0.00    -0.206 F 
HETATM   32  C23 UNL     1      18.517  -0.196  52.327  1.00  0.00     0.051 A 
ENDBRANCH  25  26
ENDBRANCH  24  25
ENDBRANCH  22  24
TORSDOF 3
ENDMDL
MODEL 9
REMARK VINA RESULT:      -8.1      1.722      2.233
REMARK  3 active torsions:
REMARK  status: ('A' for Active; 'I' for Inactive)
REMARK    1  A    between atoms: C16_22  and  O2_23 
REMARK    2  A    between atoms: O2_23  and  C17_24 
REMARK    3  A    between atoms: C17_24  and  C18_25 
ROOT
HETATM    1  C1  UNL     1      19.317   3.741  51.816  1.00  0.00     0.068 C 
HETATM    2  C2  UNL     1      20.493   3.642  50.908  1.00  0.00     0.038 C 
HETATM    3  N1  UNL     1      20.894   2.454  50.931  1.00  0.00    -0.249 NA
HETATM    4  C3  UNL     1      20.515   1.288  51.575  1.00  0.00     0.233 C 
HETATM    5  N2  UNL     1      21.649   0.794  51.047  1.00  0.00    -0.240 NA
HETATM    6  C4  UNL     1      22.347   1.821  50.236  1.00  0.00     0.090 C 
HETATM    7  C5  UNL     1      21.807   1.132  49.245  1.00  0.00     0.054 C 
HETATM    8  C6  UNL     1      21.964   1.449  47.794  1.00  0.00     0.287 C 
HETATM    9  F1  UNL     1      23.271   1.798  47.558  1.00  0.00    -0.235 F 
HETATM   10  C7  UNL     1      21.105   2.654  47.496  1.00  0.00     0.255 C 
HETATM   11  O1  UNL     1      21.348   3.808  47.117  1.00  0.00    -0.270 OA
HETATM   12  N3  UNL     1      19.706   2.856  47.565  1.00  0.00    -0.357 N 
HETATM   13  C8  UNL     1      19.112   4.182  47.339  1.00  0.00     0.142 C 
HETATM   14  C9  UNL     1      19.431   5.085  48.515  1.00  0.00     0.137 C 
HETATM   15  N4  UNL     1      20.708   5.234  48.986  1.00  0.00    -0.397 N 
HETATM   16  C10 UNL     1      21.295   6.552  48.802  1.00  0.00     0.118 C 
HETATM   17  C11 UNL     1      21.645   7.060  50.156  1.00  0.00     0.022 C 
HETATM   18  C12 UNL     1      21.226   5.923  51.065  1.00  0.00     0.039 C 
HETATM   19  C13 UNL     1      21.203   4.681  50.145  1.00  0.00     0.071 C 
HETATM   20  C14 UNL     1      22.688   4.338  50.028  1.00  0.00     0.067 C 
HETATM   21  C15 UNL     1      23.147   3.767  51.341  1.00  0.00     0.015 C 
HETATM   22  C16 UNL     1      22.934   2.468  51.371  1.00  0.00     0.094 C 
HETATM   23  H7  UNL     1      19.363   1.912  47.784  1.00  0.00     0.162 HD
ENDROOT
BRANCH  22  24
HETATM   24  O2  UNL     1      23.373   2.009  52.604  1.00  0.00    -0.345 OA
BRANCH  24  25
HETATM   25  C17 UNL     1      24.616   2.502  53.071  1.00  0.00     0.214 C 
BRANCH  25  26
HETATM   26  C18 UNL     1      25.638   1.433  53.102  1.00  0.00    -0.031 A 
HETATM   27  C19 UNL     1      25.825   0.526  52.068  1.00  0.00     0.009 A 
HETATM   28  C20 UNL     1      26.780  -0.472  52.098  1.00  0.00     0.004 A 
HETATM   29  C21 UNL     1      27.599  -0.593  53.199  1.00  0.00     0.042 A 
HETATM   30  C22 UNL     1      27.448   0.284  54.249  1.00  0.00     0.117 A 
HETATM   31  F2  UNL     1      28.208   0.238  55.363  1.00  0.00    -0.206 F 
HETATM   32  C23 UNL     1      26.479   1.273  54.182  1.00  0.00     0.051 A 
ENDBRANCH  25  26
ENDBRANCH  24  25
ENDBRANCH  22  24
TORSDOF 3
ENDMDL
