MODEL 1
REMARK VINA RESULT:      -8.6      0.000      0.000
REMARK  8 active torsions:
REMARK  status: ('A' for Active; 'I' for Inactive)
REMARK    1  A    between atoms: N1_2  and  C3_4 
REMARK    2  A    between atoms: C3_4  and  C4_5 
REMARK    3  A    between atoms: C5_6  and  C6_7 
REMARK       I    between atoms: C6_7  and  N2_9 
REMARK    4  A    between atoms: N2_9  and  C7_10 
REMARK    5  A    between atoms: C11_15  and  C12_16 
REMARK    6  A    between atoms: C12_16  and  C13_17 
REMARK    7  A    between atoms: N5_21  and  C16_22 
REMARK    8  A    between atoms: C22_30  and  O2_31 
ROOT
HETATM    1  C13 UNL     1      28.674  -0.134  54.521  1.00  0.00     0.126 C 
HETATM    2  C14 UNL     1      28.805   1.303  54.319  1.00  0.00     0.059 C 
HETATM    3  N4  UNL     1      28.899   2.451  54.171  1.00  0.00    -0.197 NA
ENDROOT
BRANCH   1   4
HETATM    4  C12 UNL     1      27.688  -0.623  53.483  1.00  0.00     0.043 C 
BRANCH   4   5
HETATM    5  C11 UNL     1      26.420   0.205  53.487  1.00  0.00     0.137 C 
HETATM    6  N3  UNL     1      25.401  -0.663  54.056  1.00  0.00    -0.284 NA
HETATM    7  C10 UNL     1      24.182  -0.287  53.851  1.00  0.00     0.069 A 
HETATM    8  C9  UNL     1      23.936   0.933  53.094  1.00  0.00     0.300 A 
HETATM    9  C21 UNL     1      23.148  -1.156  54.400  1.00  0.00     0.068 A 
HETATM   10  C8  UNL     1      22.487   1.088  52.848  1.00  0.00     0.047 A 
HETATM   11  N5  UNL     1      24.763   1.154  51.944  1.00  0.00     0.116 N 
HETATM   12  C7  UNL     1      21.515   0.303  53.328  1.00  0.00     0.067 A 
HETATM   13  C22 UNL     1      21.881  -0.873  54.146  1.00  0.00     0.094 A 
HETATM   14  C15 UNL     1      26.077   0.578  52.065  1.00  0.00     0.302 C 
BRANCH  12  15
HETATM   15  N2  UNL     1      20.158   0.577  53.009  1.00  0.00    -0.321 N 
HETATM   16  C6  UNL     1      19.405   0.574  51.805  1.00  0.00     0.245 C 
HETATM   17  O1  UNL     1      20.103   0.251  50.786  1.00  0.00    -0.268 OA
HETATM   18  H11 UNL     1      19.686   0.826  53.923  1.00  0.00     0.169 HD
BRANCH  16  19
HETATM   19  C5  UNL     1      17.991   0.921  51.857  1.00  0.00     0.072 C 
HETATM   20  C4  UNL     1      16.873   0.177  51.842  1.00  0.00     0.008 C 
BRANCH  20  21
HETATM   21  C3  UNL     1      15.556   0.815  51.907  1.00  0.00     0.299 C 
BRANCH  21  22
HETATM   22  N1  UNL     1      14.772   0.321  53.021  1.00  0.00     0.083 N 
HETATM   23  C1  UNL     1      14.112  -0.906  52.568  1.00  0.00     0.309 C 
HETATM   24  C2  UNL     1      13.703   1.229  53.373  1.00  0.00     0.309 C 
ENDBRANCH  21  22
ENDBRANCH  20  21
ENDBRANCH  16  19
ENDBRANCH  12  15
BRANCH  13  25
HETATM   25  O2  UNL     1      20.888  -1.683  54.650  1.00  0.00    -0.358 OA
HETATM   26  H25 UNL     1      21.095  -2.475  55.254  1.00  0.00     0.217 HD
ENDBRANCH  13  25
BRANCH  11  27
HETATM   27  C16 UNL     1      24.801   2.557  51.603  1.00  0.00     0.275 A 
HETATM   28  C17 UNL     1      23.954   2.943  50.476  1.00  0.00     0.056 A 
HETATM   29  C18 UNL     1      24.659   3.509  49.506  1.00  0.00     0.136 A 
HETATM   30  F1  UNL     1      23.922   3.885  48.435  1.00  0.00    -0.205 F 
HETATM   31  C19 UNL     1      26.059   3.537  49.939  1.00  0.00     0.070 A 
HETATM   32 CL1  UNL     1      27.239   4.236  48.854  1.00  0.00    -0.081 Cl
HETATM   33  C20 UNL     1      26.145   2.991  51.146  1.00  0.00     0.039 A 
ENDBRANCH  11  27
ENDBRANCH   4   5
ENDBRANCH   1   4
TORSDOF 8
ENDMDL
MODEL 2
REMARK VINA RESULT:      -8.2      3.851      9.263
REMARK  8 active torsions:
REMARK  status: ('A' for Active; 'I' for Inactive)
REMARK    1  A    between atoms: N1_2  and  C3_4 
REMARK    2  A    between atoms: C3_4  and  C4_5 
REMARK    3  A    between atoms: C5_6  and  C6_7 
REMARK       I    between atoms: C6_7  and  N2_9 
REMARK    4  A    between atoms: N2_9  and  C7_10 
REMARK    5  A    between atoms: C11_15  and  C12_16 
REMARK    6  A    between atoms: C12_16  and  C13_17 
REMARK    7  A    between atoms: N5_21  and  C16_22 
REMARK    8  A    between atoms: C22_30  and  O2_31 
ROOT
HETATM    1  C13 UNL     1      20.463  -0.046  54.082  1.00  0.00     0.126 C 
HETATM    2  C14 UNL     1      19.433  -0.346  53.098  1.00  0.00     0.059 C 
HETATM    3  N4  UNL     1      18.605  -0.599  52.323  1.00  0.00    -0.197 NA
ENDROOT
BRANCH   1   4
HETATM    4  C12 UNL     1      21.737  -0.687  53.577  1.00  0.00     0.043 C 
BRANCH   4   5
HETATM    5  C11 UNL     1      22.839   0.336  53.394  1.00  0.00     0.137 C 
HETATM    6  N3  UNL     1      22.489   1.061  52.183  1.00  0.00    -0.284 NA
HETATM    7  C10 UNL     1      23.447   1.749  51.658  1.00  0.00     0.069 A 
HETATM    8  C9  UNL     1      24.756   1.743  52.299  1.00  0.00     0.300 A 
HETATM    9  C21 UNL     1      23.117   2.468  50.433  1.00  0.00     0.068 A 
HETATM   10  C8  UNL     1      25.732   2.461  51.453  1.00  0.00     0.047 A 
HETATM   11  N5  UNL     1      25.218   0.484  52.805  1.00  0.00     0.116 N 
HETATM   12  C7  UNL     1      25.463   3.121  50.320  1.00  0.00     0.067 A 
HETATM   13  C22 UNL     1      24.079   3.116  49.799  1.00  0.00     0.094 A 
HETATM   14  C15 UNL     1      24.154  -0.388  53.227  1.00  0.00     0.302 C 
BRANCH  12  15
HETATM   15  N2  UNL     1      26.508   3.771  49.611  1.00  0.00    -0.321 N 
HETATM   16  C6  UNL     1      26.758   5.115  49.227  1.00  0.00     0.245 C 
HETATM   17  O1  UNL     1      25.840   5.916  49.609  1.00  0.00    -0.268 OA
HETATM   18  H11 UNL     1      27.203   3.014  49.353  1.00  0.00     0.169 HD
BRANCH  16  19
HETATM   19  C5  UNL     1      27.970   5.422  48.480  1.00  0.00     0.072 C 
HETATM   20  C4  UNL     1      28.562   6.581  48.148  1.00  0.00     0.008 C 
BRANCH  20  21
HETATM   21  C3  UNL     1      29.804   6.584  47.371  1.00  0.00     0.299 C 
BRANCH  21  22
HETATM   22  N1  UNL     1      30.975   6.579  48.226  1.00  0.00     0.083 N 
HETATM   23  C1  UNL     1      30.948   7.826  48.993  1.00  0.00     0.309 C 
HETATM   24  C2  UNL     1      32.201   6.621  47.460  1.00  0.00     0.309 C 
ENDBRANCH  21  22
ENDBRANCH  20  21
ENDBRANCH  16  19
ENDBRANCH  12  15
BRANCH  13  25
HETATM   25  O2  UNL     1      23.791   3.798  48.637  1.00  0.00    -0.358 OA
HETATM   26  H25 UNL     1      22.869   3.765  48.209  1.00  0.00     0.217 HD
ENDBRANCH  13  25
BRANCH  11  27
HETATM   27  C16 UNL     1      26.214   0.682  53.833  1.00  0.00     0.275 A 
HETATM   28  C17 UNL     1      26.945   1.945  53.749  1.00  0.00     0.056 A 
HETATM   29  C18 UNL     1      28.252   1.747  53.641  1.00  0.00     0.136 A 
HETATM   30  F1  UNL     1      28.979   2.886  53.559  1.00  0.00    -0.205 F 
HETATM   31  C19 UNL     1      28.480   0.299  53.647  1.00  0.00     0.070 A 
HETATM   32 CL1  UNL     1      30.127  -0.273  53.517  1.00  0.00    -0.081 Cl
HETATM   33  C20 UNL     1      27.309  -0.318  53.757  1.00  0.00     0.039 A 
ENDBRANCH  11  27
ENDBRANCH   4   5
ENDBRANCH   1   4
TORSDOF 8
ENDMDL
MODEL 3
REMARK VINA RESULT:      -8.0      1.250      1.409
REMARK  8 active torsions:
REMARK  status: ('A' for Active; 'I' for Inactive)
REMARK    1  A    between atoms: N1_2  and  C3_4 
REMARK    2  A    between atoms: C3_4  and  C4_5 
REMARK    3  A    between atoms: C5_6  and  C6_7 
REMARK       I    between atoms: C6_7  and  N2_9 
REMARK    4  A    between atoms: N2_9  and  C7_10 
REMARK    5  A    between atoms: C11_15  and  C12_16 
REMARK    6  A    between atoms: C12_16  and  C13_17 
REMARK    7  A    between atoms: N5_21  and  C16_22 
REMARK    8  A    between atoms: C22_30  and  O2_31 
ROOT
HETATM    1  C13 UNL     1      28.120   0.431  54.088  1.00  0.00     0.126 C 
HETATM    2  C14 UNL     1      29.327  -0.354  53.870  1.00  0.00     0.059 C 
HETATM    3  N4  UNL     1      30.292  -0.973  53.681  1.00  0.00    -0.197 NA
ENDROOT
BRANCH   1   4
HETATM    4  C12 UNL     1      26.954  -0.506  53.859  1.00  0.00     0.043 C 
BRANCH   4   5
HETATM    5  C11 UNL     1      25.648   0.251  53.740  1.00  0.00     0.137 C 
HETATM    6  N3  UNL     1      24.637  -0.648  54.272  1.00  0.00    -0.284 NA
HETATM    7  C10 UNL     1      23.418  -0.347  53.967  1.00  0.00     0.069 A 
HETATM    8  C9  UNL     1      23.164   0.828  53.144  1.00  0.00     0.300 A 
HETATM    9  C21 UNL     1      22.392  -1.250  54.478  1.00  0.00     0.068 A 
HETATM   10  C8  UNL     1      21.731   0.895  52.792  1.00  0.00     0.047 A 
HETATM   11  N5  UNL     1      24.059   1.050  52.046  1.00  0.00     0.116 N 
HETATM   12  C7  UNL     1      20.768   0.077  53.234  1.00  0.00     0.067 A 
HETATM   13  C22 UNL     1      21.135  -1.046  54.124  1.00  0.00     0.094 A 
HETATM   14  C15 UNL     1      25.389   0.551  52.283  1.00  0.00     0.302 C 
BRANCH  12  15
HETATM   15  N2  UNL     1      19.426   0.264  52.810  1.00  0.00    -0.321 N 
HETATM   16  C6  UNL     1      18.803   0.446  51.547  1.00  0.00     0.245 C 
HETATM   17  O1  UNL     1      19.637   0.437  50.580  1.00  0.00    -0.268 OA
HETATM   18  H11 UNL     1      18.835   0.250  53.689  1.00  0.00     0.169 HD
BRANCH  16  19
HETATM   19  C5  UNL     1      17.357   0.616  51.490  1.00  0.00     0.072 C 
HETATM   20  C4  UNL     1      16.568   1.700  51.547  1.00  0.00     0.008 C 
BRANCH  20  21
HETATM   21  C3  UNL     1      15.112   1.563  51.464  1.00  0.00     0.299 C 
BRANCH  21  22
HETATM   22  N1  UNL     1      14.437   2.369  52.462  1.00  0.00     0.083 N 
HETATM   23  C1  UNL     1      13.173   2.813  51.868  1.00  0.00     0.309 C 
HETATM   24  C2  UNL     1      15.170   3.579  52.763  1.00  0.00     0.309 C 
ENDBRANCH  21  22
ENDBRANCH  20  21
ENDBRANCH  16  19
ENDBRANCH  12  15
BRANCH  13  25
HETATM   25  O2  UNL     1      20.150  -1.889  54.591  1.00  0.00    -0.358 OA
HETATM   26  H25 UNL     1      20.211  -2.332  55.504  1.00  0.00     0.217 HD
ENDBRANCH  13  25
BRANCH  11  27
HETATM   27  C16 UNL     1      24.050   2.439  51.652  1.00  0.00     0.275 A 
HETATM   28  C17 UNL     1      23.325   2.725  50.414  1.00  0.00     0.056 A 
HETATM   29  C18 UNL     1      24.107   3.303  49.512  1.00  0.00     0.136 A 
HETATM   30  F1  UNL     1      23.486   3.588  48.344  1.00  0.00    -0.205 F 
HETATM   31  C19 UNL     1      25.438   3.443  50.110  1.00  0.00     0.070 A 
HETATM   32 CL1  UNL     1      26.696   4.181  49.145  1.00  0.00    -0.081 Cl
HETATM   33  C20 UNL     1      25.409   2.947  51.342  1.00  0.00     0.039 A 
ENDBRANCH  11  27
ENDBRANCH   4   5
ENDBRANCH   1   4
TORSDOF 8
ENDMDL
MODEL 4
REMARK VINA RESULT:      -8.0      1.438      1.745
REMARK  8 active torsions:
REMARK  status: ('A' for Active; 'I' for Inactive)
REMARK    1  A    between atoms: N1_2  and  C3_4 
REMARK    2  A    between atoms: C3_4  and  C4_5 
REMARK    3  A    between atoms: C5_6  and  C6_7 
REMARK       I    between atoms: C6_7  and  N2_9 
REMARK    4  A    between atoms: N2_9  and  C7_10 
REMARK    5  A    between atoms: C11_15  and  C12_16 
REMARK    6  A    between atoms: C12_16  and  C13_17 
REMARK    7  A    between atoms: N5_21  and  C16_22 
REMARK    8  A    between atoms: C22_30  and  O2_31 
ROOT
HETATM    1  C13 UNL     1      27.321  -1.022  52.613  1.00  0.00     0.126 C 
HETATM    2  C14 UNL     1      28.391  -1.906  53.055  1.00  0.00     0.059 C 
HETATM    3  N4  UNL     1      29.232  -2.625  53.411  1.00  0.00    -0.197 NA
ENDROOT
BRANCH   1   4
HETATM    4  C12 UNL     1      27.035  -0.087  53.768  1.00  0.00     0.043 C 
BRANCH   4   5
HETATM    5  C11 UNL     1      25.656   0.527  53.657  1.00  0.00     0.137 C 
HETATM    6  N3  UNL     1      24.758  -0.439  54.268  1.00  0.00    -0.284 NA
HETATM    7  C10 UNL     1      23.506  -0.278  53.991  1.00  0.00     0.069 A 
HETATM    8  C9  UNL     1      23.110   0.820  53.119  1.00  0.00     0.300 A 
HETATM    9  C21 UNL     1      22.594  -1.250  54.583  1.00  0.00     0.068 A 
HETATM   10  C8  UNL     1      21.668   0.724  52.814  1.00  0.00     0.047 A 
HETATM   11  N5  UNL     1      23.945   1.070  51.981  1.00  0.00     0.116 N 
HETATM   12  C7  UNL     1      20.807  -0.162  53.331  1.00  0.00     0.067 A 
HETATM   13  C22 UNL     1      21.312  -1.192  54.263  1.00  0.00     0.094 A 
HETATM   14  C15 UNL     1      25.325   0.721  52.196  1.00  0.00     0.302 C 
BRANCH  12  15
HETATM   15  N2  UNL     1      19.440  -0.134  52.945  1.00  0.00    -0.321 N 
HETATM   16  C6  UNL     1      18.762   0.115  51.722  1.00  0.00     0.245 C 
HETATM   17  O1  UNL     1      19.560   0.366  50.757  1.00  0.00    -0.268 OA
HETATM   18  H11 UNL     1      18.884  -0.357  53.817  1.00  0.00     0.169 HD
BRANCH  16  19
HETATM   19  C5  UNL     1      17.306   0.061  51.699  1.00  0.00     0.072 C 
HETATM   20  C4  UNL     1      16.410  -0.580  52.466  1.00  0.00     0.008 C 
BRANCH  20  21
HETATM   21  C3  UNL     1      14.976  -0.446  52.201  1.00  0.00     0.299 C 
BRANCH  21  22
HETATM   22  N1  UNL     1      14.385  -1.702  51.784  1.00  0.00     0.083 N 
HETATM   23  C1  UNL     1      15.211  -2.771  52.350  1.00  0.00     0.309 C 
HETATM   24  C2  UNL     1      14.452  -1.879  50.350  1.00  0.00     0.309 C 
ENDBRANCH  21  22
ENDBRANCH  20  21
ENDBRANCH  16  19
ENDBRANCH  12  15
BRANCH  13  25
HETATM   25  O2  UNL     1      20.433  -2.103  54.806  1.00  0.00    -0.358 OA
HETATM   26  H25 UNL     1      20.563  -2.485  55.740  1.00  0.00     0.217 HD
ENDBRANCH  13  25
BRANCH  11  27
HETATM   27  C16 UNL     1      23.782   2.429  51.517  1.00  0.00     0.275 A 
HETATM   28  C17 UNL     1      23.144   2.561  50.208  1.00  0.00     0.056 A 
HETATM   29  C18 UNL     1      23.920   3.209  49.349  1.00  0.00     0.136 A 
HETATM   30  F1  UNL     1      23.376   3.359  48.119  1.00  0.00    -0.205 F 
HETATM   31  C19 UNL     1      25.158   3.558  50.052  1.00  0.00     0.070 A 
HETATM   32 CL1  UNL     1      26.387   4.429  49.164  1.00  0.00    -0.081 Cl
HETATM   33  C20 UNL     1      25.082   3.110  51.300  1.00  0.00     0.039 A 
ENDBRANCH  11  27
ENDBRANCH   4   5
ENDBRANCH   1   4
TORSDOF 8
ENDMDL
MODEL 5
REMARK VINA RESULT:      -7.9      4.618      9.140
REMARK  8 active torsions:
REMARK  status: ('A' for Active; 'I' for Inactive)
REMARK    1  A    between atoms: N1_2  and  C3_4 
REMARK    2  A    between atoms: C3_4  and  C4_5 
REMARK    3  A    between atoms: C5_6  and  C6_7 
REMARK       I    between atoms: C6_7  and  N2_9 
REMARK    4  A    between atoms: N2_9  and  C7_10 
REMARK    5  A    between atoms: C11_15  and  C12_16 
REMARK    6  A    between atoms: C12_16  and  C13_17 
REMARK    7  A    between atoms: N5_21  and  C16_22 
REMARK    8  A    between atoms: C22_30  and  O2_31 
ROOT
HETATM    1  C13 UNL     1      20.476  -0.201  53.886  1.00  0.00     0.126 C 
HETATM    2  C14 UNL     1      21.531  -0.887  54.620  1.00  0.00     0.059 C 
HETATM    3  N4  UNL     1      22.375  -1.420  55.214  1.00  0.00    -0.197 NA
ENDROOT
BRANCH   1   4
HETATM    4  C12 UNL     1      21.081   0.225  52.566  1.00  0.00     0.043 C 
BRANCH   4   5
HETATM    5  C11 UNL     1      22.163   1.266  52.761  1.00  0.00     0.137 C 
HETATM    6  N3  UNL     1      21.526   2.537  52.456  1.00  0.00    -0.284 NA
HETATM    7  C10 UNL     1      22.337   3.519  52.235  1.00  0.00     0.069 A 
HETATM    8  C9  UNL     1      23.772   3.281  52.307  1.00  0.00     0.300 A 
HETATM    9  C21 UNL     1      21.714   4.798  51.911  1.00  0.00     0.068 A 
HETATM   10  C8  UNL     1      24.504   4.488  51.872  1.00  0.00     0.047 A 
HETATM   11  N5  UNL     1      24.250   2.056  51.737  1.00  0.00     0.116 N 
HETATM   12  C7  UNL     1      23.963   5.671  51.557  1.00  0.00     0.067 A 
HETATM   13  C22 UNL     1      22.491   5.817  51.586  1.00  0.00     0.094 A 
HETATM   14  C15 UNL     1      23.291   0.984  51.797  1.00  0.00     0.302 C 
BRANCH  12  15
HETATM   15  N2  UNL     1      24.795   6.750  51.155  1.00  0.00    -0.321 N 
HETATM   16  C6  UNL     1      25.651   6.979  50.045  1.00  0.00     0.245 C 
HETATM   17  O1  UNL     1      25.672   5.999  49.227  1.00  0.00    -0.268 OA
HETATM   18  H11 UNL     1      24.691   7.495  51.901  1.00  0.00     0.169 HD
BRANCH  16  19
HETATM   19  C5  UNL     1      26.374   8.241  49.961  1.00  0.00     0.072 C 
HETATM   20  C4  UNL     1      27.028   8.846  48.957  1.00  0.00     0.008 C 
BRANCH  20  21
HETATM   21  C3  UNL     1      27.677  10.143  49.168  1.00  0.00     0.299 C 
BRANCH  21  22
HETATM   22  N1  UNL     1      29.122  10.028  49.174  1.00  0.00     0.083 N 
HETATM   23  C1  UNL     1      29.655  11.343  48.812  1.00  0.00     0.309 C 
HETATM   24  C2  UNL     1      29.594   9.123  48.149  1.00  0.00     0.309 C 
ENDBRANCH  21  22
ENDBRANCH  20  21
ENDBRANCH  16  19
ENDBRANCH  12  15
BRANCH  13  25
HETATM   25  O2  UNL     1      21.925   7.032  51.271  1.00  0.00    -0.358 OA
HETATM   26  H25 UNL     1      21.605   7.678  51.989  1.00  0.00     0.217 HD
ENDBRANCH  13  25
BRANCH  11  27
HETATM   27  C16 UNL     1      25.527   1.691  52.305  1.00  0.00     0.275 A 
HETATM   28  C17 UNL     1      26.029   0.378  51.902  1.00  0.00     0.056 A 
HETATM   29  C18 UNL     1      26.240  -0.407  52.951  1.00  0.00     0.136 A 
HETATM   30  F1  UNL     1      26.706  -1.638  52.634  1.00  0.00    -0.205 F 
HETATM   31  C19 UNL     1      25.881   0.355  54.150  1.00  0.00     0.070 A 
HETATM   32 CL1  UNL     1      26.057  -0.430  55.703  1.00  0.00    -0.081 Cl
HETATM   33  C20 UNL     1      25.470   1.563  53.783  1.00  0.00     0.039 A 
ENDBRANCH  11  27
ENDBRANCH   4   5
ENDBRANCH   1   4
TORSDOF 8
ENDMDL
MODEL 6
REMARK VINA RESULT:      -7.8      4.565      9.923
REMARK  8 active torsions:
REMARK  status: ('A' for Active; 'I' for Inactive)
REMARK    1  A    between atoms: N1_2  and  C3_4 
REMARK    2  A    between atoms: C3_4  and  C4_5 
REMARK    3  A    between atoms: C5_6  and  C6_7 
REMARK       I    between atoms: C6_7  and  N2_9 
REMARK    4  A    between atoms: N2_9  and  C7_10 
REMARK    5  A    between atoms: C11_15  and  C12_16 
REMARK    6  A    between atoms: C12_16  and  C13_17 
REMARK    7  A    between atoms: N5_21  and  C16_22 
REMARK    8  A    between atoms: C22_30  and  O2_31 
ROOT
HETATM    1  C13 UNL     1      20.515   1.352  53.465  1.00  0.00     0.126 C 
HETATM    2  C14 UNL     1      21.161   0.233  54.136  1.00  0.00     0.059 C 
HETATM    3  N4  UNL     1      21.688  -0.649  54.680  1.00  0.00    -0.197 NA
ENDROOT
BRANCH   1   4
HETATM    4  C12 UNL     1      21.071   1.385  52.058  1.00  0.00     0.043 C 
BRANCH   4   5
HETATM    5  C11 UNL     1      22.419   2.073  52.009  1.00  0.00     0.137 C 
HETATM    6  N3  UNL     1      22.277   3.120  51.010  1.00  0.00    -0.284 NA
HETATM    7  C10 UNL     1      23.386   3.612  50.568  1.00  0.00     0.069 A 
HETATM    8  C9  UNL     1      24.646   3.097  51.087  1.00  0.00     0.300 A 
HETATM    9  C21 UNL     1      23.261   4.652  49.552  1.00  0.00     0.068 A 
HETATM   10  C8  UNL     1      25.776   3.684  50.338  1.00  0.00     0.047 A 
HETATM   11  N5  UNL     1      24.730   1.678  51.278  1.00  0.00     0.116 N 
HETATM   12  C7  UNL     1      25.694   4.630  49.395  1.00  0.00     0.067 A 
HETATM   13  C22 UNL     1      24.360   5.131  48.996  1.00  0.00     0.094 A 
HETATM   14  C15 UNL     1      23.465   1.067  51.589  1.00  0.00     0.302 C 
BRANCH  12  15
HETATM   15  N2  UNL     1      26.871   5.104  48.758  1.00  0.00    -0.321 N 
HETATM   16  C6  UNL     1      27.501   6.373  48.658  1.00  0.00     0.245 C 
HETATM   17  O1  UNL     1      26.867   7.289  49.283  1.00  0.00    -0.268 OA
HETATM   18  H11 UNL     1      27.307   4.264  48.283  1.00  0.00     0.169 HD
BRANCH  16  19
HETATM   19  C5  UNL     1      28.736   6.490  47.895  1.00  0.00     0.072 C 
HETATM   20  C4  UNL     1      30.030   6.428  48.249  1.00  0.00     0.008 C 
BRANCH  20  21
HETATM   21  C3  UNL     1      31.083   6.585  47.243  1.00  0.00     0.299 C 
BRANCH  21  22
HETATM   22  N1  UNL     1      32.394   6.709  47.849  1.00  0.00     0.083 N 
HETATM   23  C1  UNL     1      32.779   5.373  48.309  1.00  0.00     0.309 C 
HETATM   24  C2  UNL     1      32.362   7.533  49.037  1.00  0.00     0.309 C 
ENDBRANCH  21  22
ENDBRANCH  20  21
ENDBRANCH  16  19
ENDBRANCH  12  15
BRANCH  13  25
HETATM   25  O2  UNL     1      24.265   6.109  48.031  1.00  0.00    -0.358 OA
HETATM   26  H25 UNL     1      25.017   6.286  47.370  1.00  0.00     0.217 HD
ENDBRANCH  13  25
BRANCH  11  27
HETATM   27  C16 UNL     1      25.756   1.352  52.242  1.00  0.00     0.275 A 
HETATM   28  C17 UNL     1      26.477   0.109  51.978  1.00  0.00     0.056 A 
HETATM   29  C18 UNL     1      26.377  -0.739  52.993  1.00  0.00     0.136 A 
HETATM   30  F1  UNL     1      27.028  -1.910  52.801  1.00  0.00    -0.205 F 
HETATM   31  C19 UNL     1      25.560  -0.094  54.025  1.00  0.00     0.070 A 
HETATM   32 CL1  UNL     1      25.251  -0.982  55.500  1.00  0.00    -0.081 Cl
HETATM   33  C20 UNL     1      25.200   1.110  53.596  1.00  0.00     0.039 A 
ENDBRANCH  11  27
ENDBRANCH   4   5
ENDBRANCH   1   4
TORSDOF 8
ENDMDL
MODEL 7
REMARK VINA RESULT:      -7.6      4.607     10.174
REMARK  8 active torsions:
REMARK  status: ('A' for Active; 'I' for Inactive)
REMARK    1  A    between atoms: N1_2  and  C3_4 
REMARK    2  A    between atoms: C3_4  and  C4_5 
REMARK    3  A    between atoms: C5_6  and  C6_7 
REMARK       I    between atoms: C6_7  and  N2_9 
REMARK    4  A    between atoms: N2_9  and  C7_10 
REMARK    5  A    between atoms: C11_15  and  C12_16 
REMARK    6  A    between atoms: C12_16  and  C13_17 
REMARK    7  A    between atoms: N5_21  and  C16_22 
REMARK    8  A    between atoms: C22_30  and  O2_31 
ROOT
HETATM    1  C13 UNL     1      20.674   0.916  51.037  1.00  0.00     0.126 C 
HETATM    2  C14 UNL     1      19.281   0.917  50.611  1.00  0.00     0.059 C 
HETATM    3  N4  UNL     1      18.175   0.925  50.255  1.00  0.00    -0.197 NA
ENDROOT
BRANCH   1   4
HETATM    4  C12 UNL     1      20.831   2.085  51.985  1.00  0.00     0.043 C 
BRANCH   4   5
HETATM    5  C11 UNL     1      22.235   2.650  51.941  1.00  0.00     0.137 C 
HETATM    6  N3  UNL     1      22.198   3.685  50.920  1.00  0.00    -0.284 NA
HETATM    7  C10 UNL     1      23.352   4.068  50.484  1.00  0.00     0.069 A 
HETATM    8  C9  UNL     1      24.555   3.455  51.031  1.00  0.00     0.300 A 
HETATM    9  C21 UNL     1      23.331   5.094  49.447  1.00  0.00     0.068 A 
HETATM   10  C8  UNL     1      25.741   3.925  50.286  1.00  0.00     0.047 A 
HETATM   11  N5  UNL     1      24.511   2.038  51.250  1.00  0.00     0.116 N 
HETATM   12  C7  UNL     1      25.754   4.855  49.324  1.00  0.00     0.067 A 
HETATM   13  C22 UNL     1      24.476   5.462  48.896  1.00  0.00     0.094 A 
HETATM   14  C15 UNL     1      23.193   1.547  51.555  1.00  0.00     0.302 C 
BRANCH  12  15
HETATM   15  N2  UNL     1      26.977   5.210  48.694  1.00  0.00    -0.321 N 
HETATM   16  C6  UNL     1      27.684   6.429  48.520  1.00  0.00     0.245 C 
HETATM   17  O1  UNL     1      27.087   7.425  49.052  1.00  0.00    -0.268 OA
HETATM   18  H11 UNL     1      27.376   4.311  48.300  1.00  0.00     0.169 HD
BRANCH  16  19
HETATM   19  C5  UNL     1      28.947   6.416  47.795  1.00  0.00     0.072 C 
HETATM   20  C4  UNL     1      30.188   6.041  48.142  1.00  0.00     0.008 C 
BRANCH  20  21
HETATM   21  C3  UNL     1      31.290   6.142  47.181  1.00  0.00     0.299 C 
BRANCH  21  22
HETATM   22  N1  UNL     1      32.568   5.837  47.792  1.00  0.00     0.083 N 
HETATM   23  C1  UNL     1      32.828   4.416  47.551  1.00  0.00     0.309 C 
HETATM   24  C2  UNL     1      32.526   5.984  49.230  1.00  0.00     0.309 C 
ENDBRANCH  21  22
ENDBRANCH  20  21
ENDBRANCH  16  19
ENDBRANCH  12  15
BRANCH  13  25
HETATM   25  O2  UNL     1      24.479   6.425  47.911  1.00  0.00    -0.358 OA
HETATM   26  H25 UNL     1      24.507   6.183  46.924  1.00  0.00     0.217 HD
ENDBRANCH  13  25
BRANCH  11  27
HETATM   27  C16 UNL     1      25.492   1.643  52.234  1.00  0.00     0.275 A 
HETATM   28  C17 UNL     1      26.296   0.478  51.871  1.00  0.00     0.056 A 
HETATM   29  C18 UNL     1      26.180  -0.494  52.767  1.00  0.00     0.136 A 
HETATM   30  F1  UNL     1      26.905  -1.600  52.478  1.00  0.00    -0.205 F 
HETATM   31  C19 UNL     1      25.267  -0.022  53.812  1.00  0.00     0.070 A 
HETATM   32 CL1  UNL     1      24.918  -1.100  55.144  1.00  0.00    -0.081 Cl
HETATM   33  C20 UNL     1      24.869   1.208  53.509  1.00  0.00     0.039 A 
ENDBRANCH  11  27
ENDBRANCH   4   5
ENDBRANCH   1   4
TORSDOF 8
ENDMDL
MODEL 8
REMARK VINA RESULT:      -7.5      4.652      6.628
REMARK  8 active torsions:
REMARK  status: ('A' for Active; 'I' for Inactive)
REMARK    1  A    between atoms: N1_2  and  C3_4 
REMARK    2  A    between atoms: C3_4  and  C4_5 
REMARK    3  A    between atoms: C5_6  and  C6_7 
REMARK       I    between atoms: C6_7  and  N2_9 
REMARK    4  A    between atoms: N2_9  and  C7_10 
REMARK    5  A    between atoms: C11_15  and  C12_16 
REMARK    6  A    between atoms: C12_16  and  C13_17 
REMARK    7  A    between atoms: N5_21  and  C16_22 
REMARK    8  A    between atoms: C22_30  and  O2_31 
ROOT
HETATM    1  C13 UNL     1      28.021   0.254  54.495  1.00  0.00     0.126 C 
HETATM    2  C14 UNL     1      28.642  -0.918  53.894  1.00  0.00     0.059 C 
HETATM    3  N4  UNL     1      29.152  -1.850  53.425  1.00  0.00    -0.197 NA
ENDROOT
BRANCH   1   4
HETATM    4  C12 UNL     1      28.177   1.380  53.497  1.00  0.00     0.043 C 
BRANCH   4   5
HETATM    5  C11 UNL     1      27.037   1.400  52.500  1.00  0.00     0.137 C 
HETATM    6  N3  UNL     1      27.321   2.522  51.620  1.00  0.00    -0.284 NA
HETATM    7  C10 UNL     1      26.323   2.929  50.908  1.00  0.00     0.069 A 
HETATM    8  C9  UNL     1      25.039   2.253  51.039  1.00  0.00     0.300 A 
HETATM    9  C21 UNL     1      26.587   4.065  50.032  1.00  0.00     0.068 A 
HETATM   10  C8  UNL     1      24.011   2.972  50.258  1.00  0.00     0.047 A 
HETATM   11  N5  UNL     1      24.635   1.892  52.366  1.00  0.00     0.116 N 
HETATM   12  C7  UNL     1      24.218   4.023  49.455  1.00  0.00     0.067 A 
HETATM   13  C22 UNL     1      25.582   4.584  49.346  1.00  0.00     0.094 A 
HETATM   14  C15 UNL     1      25.741   1.615  53.245  1.00  0.00     0.302 C 
BRANCH  12  15
HETATM   15  N2  UNL     1      23.129   4.613  48.761  1.00  0.00    -0.321 N 
HETATM   16  C6  UNL     1      22.267   5.711  49.023  1.00  0.00     0.245 C 
HETATM   17  O1  UNL     1      22.535   6.297  50.125  1.00  0.00    -0.268 OA
HETATM   18  H11 UNL     1      23.007   4.050  47.873  1.00  0.00     0.169 HD
BRANCH  16  19
HETATM   19  C5  UNL     1      21.224   6.035  48.058  1.00  0.00     0.072 C 
HETATM   20  C4  UNL     1      21.260   6.587  46.835  1.00  0.00     0.008 C 
BRANCH  20  21
HETATM   21  C3  UNL     1      20.023   6.798  46.079  1.00  0.00     0.299 C 
BRANCH  21  22
HETATM   22  N1  UNL     1      19.744   5.694  45.182  1.00  0.00     0.083 N 
HETATM   23  C1  UNL     1      19.363   6.277  43.894  1.00  0.00     0.309 C 
HETATM   24  C2  UNL     1      18.598   4.926  45.615  1.00  0.00     0.309 C 
ENDBRANCH  21  22
ENDBRANCH  20  21
ENDBRANCH  16  19
ENDBRANCH  12  15
BRANCH  13  25
HETATM   25  O2  UNL     1      25.807   5.660  48.517  1.00  0.00    -0.358 OA
HETATM   26  H25 UNL     1      26.697   6.154  48.507  1.00  0.00     0.217 HD
ENDBRANCH  13  25
BRANCH  11  27
HETATM   27  C16 UNL     1      23.670   0.817  52.332  1.00  0.00     0.275 A 
HETATM   28  C17 UNL     1      22.323   1.184  52.764  1.00  0.00     0.056 A 
HETATM   29  C18 UNL     1      21.919   0.442  53.787  1.00  0.00     0.136 A 
HETATM   30  F1  UNL     1      20.675   0.740  54.230  1.00  0.00    -0.205 F 
HETATM   31  C19 UNL     1      23.003  -0.491  54.108  1.00  0.00     0.070 A 
HETATM   32 CL1  UNL     1      22.757  -1.611  55.430  1.00  0.00    -0.081 Cl
HETATM   33  C20 UNL     1      24.013  -0.278  53.272  1.00  0.00     0.039 A 
ENDBRANCH  11  27
ENDBRANCH   4   5
ENDBRANCH   1   4
TORSDOF 8
ENDMDL
MODEL 9
REMARK VINA RESULT:      -7.2      1.972      2.297
REMARK  8 active torsions:
REMARK  status: ('A' for Active; 'I' for Inactive)
REMARK    1  A    between atoms: N1_2  and  C3_4 
REMARK    2  A    between atoms: C3_4  and  C4_5 
REMARK    3  A    between atoms: C5_6  and  C6_7 
REMARK       I    between atoms: C6_7  and  N2_9 
REMARK    4  A    between atoms: N2_9  and  C7_10 
REMARK    5  A    between atoms: C11_15  and  C12_16 
REMARK    6  A    between atoms: C12_16  and  C13_17 
REMARK    7  A    between atoms: N5_21  and  C16_22 
REMARK    8  A    between atoms: C22_30  and  O2_31 
ROOT
HETATM    1  C13 UNL     1      27.651   0.805  54.314  1.00  0.00     0.126 C 
HETATM    2  C14 UNL     1      28.727  -0.122  53.992  1.00  0.00     0.059 C 
HETATM    3  N4  UNL     1      29.596  -0.853  53.747  1.00  0.00    -0.197 NA
ENDROOT
BRANCH   1   4
HETATM    4  C12 UNL     1      27.589   1.800  53.177  1.00  0.00     0.043 C 
BRANCH   4   5
HETATM    5  C11 UNL     1      26.160   2.085  52.765  1.00  0.00     0.137 C 
HETATM    6  N3  UNL     1      25.360   1.081  53.447  1.00  0.00    -0.284 NA
HETATM    7  C10 UNL     1      24.163   0.925  52.986  1.00  0.00     0.069 A 
HETATM    8  C9  UNL     1      23.727   1.740  51.860  1.00  0.00     0.300 A 
HETATM    9  C21 UNL     1      23.353  -0.091  53.648  1.00  0.00     0.068 A 
HETATM   10  C8  UNL     1      22.396   1.293  51.401  1.00  0.00     0.047 A 
HETATM   11  N5  UNL     1      24.681   1.948  50.809  1.00  0.00     0.116 N 
HETATM   12  C7  UNL     1      21.633   0.357  51.980  1.00  0.00     0.067 A 
HETATM   13  C22 UNL     1      22.152  -0.360  53.164  1.00  0.00     0.094 A 
HETATM   14  C15 UNL     1      26.046   1.938  51.266  1.00  0.00     0.302 C 
BRANCH  12  15
HETATM   15  N2  UNL     1      20.366   0.031  51.426  1.00  0.00    -0.321 N 
HETATM   16  C6  UNL     1      19.045  -0.025  51.943  1.00  0.00     0.245 C 
HETATM   17  O1  UNL     1      18.984   0.293  53.178  1.00  0.00    -0.268 OA
HETATM   18  H11 UNL     1      20.543  -0.208  50.410  1.00  0.00     0.169 HD
BRANCH  16  19
HETATM   19  C5  UNL     1      17.957  -0.417  51.057  1.00  0.00     0.072 C 
HETATM   20  C4  UNL     1      17.257   0.254  50.128  1.00  0.00     0.008 C 
BRANCH  20  21
HETATM   21  C3  UNL     1      16.194  -0.414  49.374  1.00  0.00     0.299 C 
BRANCH  21  22
HETATM   22  N1  UNL     1      14.923   0.269  49.514  1.00  0.00     0.083 N 
HETATM   23  C1  UNL     1      15.221   1.692  49.689  1.00  0.00     0.309 C 
HETATM   24  C2  UNL     1      14.225  -0.132  50.716  1.00  0.00     0.309 C 
ENDBRANCH  21  22
ENDBRANCH  20  21
ENDBRANCH  16  19
ENDBRANCH  12  15
BRANCH  13  25
HETATM   25  O2  UNL     1      21.372  -1.319  53.770  1.00  0.00    -0.358 OA
HETATM   26  H25 UNL     1      20.830  -1.990  53.231  1.00  0.00     0.217 HD
ENDBRANCH  13  25
BRANCH  11  27
HETATM   27  C16 UNL     1      24.358   3.136  50.053  1.00  0.00     0.275 A 
HETATM   28  C17 UNL     1      25.489   3.759  49.369  1.00  0.00     0.056 A 
HETATM   29  C18 UNL     1      25.658   5.018  49.751  1.00  0.00     0.136 A 
HETATM   30  F1  UNL     1      26.696   5.643  49.147  1.00  0.00    -0.205 F 
HETATM   31  C19 UNL     1      24.621   5.320  50.741  1.00  0.00     0.070 A 
HETATM   32 CL1  UNL     1      24.590   6.926  51.432  1.00  0.00    -0.081 Cl
HETATM   33  C20 UNL     1      23.870   4.239  50.917  1.00  0.00     0.039 A 
ENDBRANCH  11  27
ENDBRANCH   4   5
ENDBRANCH   1   4
TORSDOF 8
ENDMDL
