MODEL 1
REMARK VINA RESULT:      -9.2      0.000      0.000
REMARK  6 active torsions:
REMARK  status: ('A' for Active; 'I' for Inactive)
REMARK    1  A    between atoms: N1_2  and  C3_4 
REMARK    2  A    between atoms: C3_4  and  C4_5 
REMARK    3  A    between atoms: C4_5  and  C5_6 
REMARK       I    between atoms: C5_6  and  N2_8 
REMARK    4  A    between atoms: N2_8  and  C6_9 
REMARK    5  A    between atoms: C9_12  and  N3_13 
REMARK    6  A    between atoms: N3_13  and  C10_14 
ROOT
HETATM    1  C6  UNL     1      26.502   3.103  50.254  1.00  0.00     0.135 C 
HETATM    2  C7  UNL     1      26.557   2.467  51.369  1.00  0.00     0.123 C 
HETATM    3  C8  UNL     1      25.913   1.388  52.082  1.00  0.00     0.073 C 
HETATM    4  C9  UNL     1      25.804   0.666  53.173  1.00  0.00     0.036 C 
HETATM    5  C16 UNL     1      26.279   0.663  54.607  1.00  0.00     0.227 C 
HETATM    6  O2  UNL     1      27.031  -0.463  54.806  1.00  0.00    -0.364 OA
HETATM    7  C17 UNL     1      28.227  -0.455  54.060  1.00  0.00     0.316 C 
HETATM    8  N4  UNL     1      29.129   0.558  54.512  1.00  0.00    -0.274 NA
HETATM    9  C18 UNL     1      29.185   1.745  54.115  1.00  0.00     0.144 C 
HETATM   10  C19 UNL     1      28.318   2.258  53.115  1.00  0.00     0.201 C 
HETATM   11  N5  UNL     1      27.480   2.409  52.268  1.00  0.00    -0.415 NA
ENDROOT
BRANCH   1  12
HETATM   12  N2  UNL     1      27.127   4.141  49.572  1.00  0.00    -0.334 N 
HETATM   13  C5  UNL     1      26.740   5.300  48.889  1.00  0.00     0.223 C 
HETATM   14  O1  UNL     1      25.509   5.483  48.830  1.00  0.00    -0.273 OA
HETATM   15  H11 UNL     1      28.185   4.031  49.557  1.00  0.00     0.168 HD
BRANCH  13  16
HETATM   16  C4  UNL     1      27.722   6.257  48.275  1.00  0.00     0.122 C 
BRANCH  16  17
HETATM   17  C3  UNL     1      29.090   5.603  48.252  1.00  0.00     0.125 C 
BRANCH  17  18
HETATM   18  N1  UNL     1      30.136   6.511  48.487  1.00  0.00    -0.420 N 
HETATM   19  C1  UNL     1      29.811   7.883  48.580  1.00  0.00     0.142 C 
HETATM   20  C2  UNL     1      31.352   6.089  49.051  1.00  0.00     0.142 C 
ENDBRANCH  17  18
ENDBRANCH  16  17
ENDBRANCH  13  16
ENDBRANCH   1  12
BRANCH   4  21
HETATM   21  N3  UNL     1      24.814  -0.379  53.085  1.00  0.00    -0.358 N 
HETATM   22  H14 UNL     1      25.252  -1.286  52.736  1.00  0.00     0.166 HD
BRANCH  21  23
HETATM   23  C10 UNL     1      23.432  -0.150  53.449  1.00  0.00     0.033 A 
HETATM   24  C11 UNL     1      23.084  -1.004  54.505  1.00  0.00     0.029 A 
HETATM   25  C12 UNL     1      21.734  -0.759  54.863  1.00  0.00     0.004 A 
HETATM   26  C13 UNL     1      20.861   0.168  54.286  1.00  0.00     0.019 A 
HETATM   27  C14 UNL     1      21.435   0.900  53.255  1.00  0.00     0.013 A 
HETATM   28 BR1  UNL     1      20.244   2.185  52.457  1.00  0.00    -0.051 Br
HETATM   29  C15 UNL     1      22.719   0.791  52.786  1.00  0.00     0.048 A 
ENDBRANCH  21  23
ENDBRANCH   4  21
TORSDOF 6
ENDMDL
MODEL 2
REMARK VINA RESULT:      -9.1      0.998      1.257
REMARK  6 active torsions:
REMARK  status: ('A' for Active; 'I' for Inactive)
REMARK    1  A    between atoms: N1_2  and  C3_4 
REMARK    2  A    between atoms: C3_4  and  C4_5 
REMARK    3  A    between atoms: C4_5  and  C5_6 
REMARK       I    between atoms: C5_6  and  N2_8 
REMARK    4  A    between atoms: N2_8  and  C6_9 
REMARK    5  A    between atoms: C9_12  and  N3_13 
REMARK    6  A    between atoms: N3_13  and  C10_14 
ROOT
HETATM    1  C6  UNL     1      26.512   3.068  50.199  1.00  0.00     0.135 C 
HETATM    2  C7  UNL     1      26.559   2.452  51.326  1.00  0.00     0.123 C 
HETATM    3  C8  UNL     1      25.910   1.384  52.052  1.00  0.00     0.073 C 
HETATM    4  C9  UNL     1      25.793   0.681  53.154  1.00  0.00     0.036 C 
HETATM    5  C16 UNL     1      26.254   0.704  54.592  1.00  0.00     0.227 C 
HETATM    6  O2  UNL     1      27.007  -0.417  54.818  1.00  0.00    -0.364 OA
HETATM    7  C17 UNL     1      28.210  -0.419  54.083  1.00  0.00     0.316 C 
HETATM    8  N4  UNL     1      29.106   0.604  54.525  1.00  0.00    -0.274 NA
HETATM    9  C18 UNL     1      29.162   1.784  54.107  1.00  0.00     0.144 C 
HETATM   10  C19 UNL     1      28.303   2.278  53.091  1.00  0.00     0.201 C 
HETATM   11  N5  UNL     1      27.474   2.411  52.233  1.00  0.00    -0.415 NA
ENDROOT
BRANCH   1  12
HETATM   12  N2  UNL     1      27.141   4.095  49.505  1.00  0.00    -0.334 N 
HETATM   13  C5  UNL     1      26.776   5.315  48.923  1.00  0.00     0.223 C 
HETATM   14  O1  UNL     1      25.564   5.589  49.005  1.00  0.00    -0.273 OA
HETATM   15  H11 UNL     1      28.181   3.911  49.371  1.00  0.00     0.168 HD
BRANCH  13  16
HETATM   16  C4  UNL     1      27.760   6.232  48.254  1.00  0.00     0.122 C 
BRANCH  16  17
HETATM   17  C3  UNL     1      27.134   7.608  48.125  1.00  0.00     0.125 C 
BRANCH  17  18
HETATM   18  N1  UNL     1      27.691   8.548  49.007  1.00  0.00    -0.420 N 
HETATM   19  C1  UNL     1      26.960   8.878  50.170  1.00  0.00     0.142 C 
HETATM   20  C2  UNL     1      29.071   8.817  49.005  1.00  0.00     0.142 C 
ENDBRANCH  17  18
ENDBRANCH  16  17
ENDBRANCH  13  16
ENDBRANCH   1  12
BRANCH   4  21
HETATM   21  N3  UNL     1      24.805  -0.367  53.075  1.00  0.00    -0.358 N 
HETATM   22  H14 UNL     1      25.246  -1.275  52.730  1.00  0.00     0.166 HD
BRANCH  21  23
HETATM   23  C10 UNL     1      23.424  -0.141  53.443  1.00  0.00     0.033 A 
HETATM   24  C11 UNL     1      23.079  -1.000  54.495  1.00  0.00     0.029 A 
HETATM   25  C12 UNL     1      21.729  -0.757  54.857  1.00  0.00     0.004 A 
HETATM   26  C13 UNL     1      20.855   0.172  54.287  1.00  0.00     0.019 A 
HETATM   27  C14 UNL     1      21.427   0.909  53.258  1.00  0.00     0.013 A 
HETATM   28 BR1  UNL     1      20.233   2.198  52.469  1.00  0.00    -0.051 Br
HETATM   29  C15 UNL     1      22.710   0.803  52.786  1.00  0.00     0.048 A 
ENDBRANCH  21  23
ENDBRANCH   4  21
TORSDOF 6
ENDMDL
MODEL 3
REMARK VINA RESULT:      -7.3      3.477      5.042
REMARK  6 active torsions:
REMARK  status: ('A' for Active; 'I' for Inactive)
REMARK    1  A    between atoms: N1_2  and  C3_4 
REMARK    2  A    between atoms: C3_4  and  C4_5 
REMARK    3  A    between atoms: C4_5  and  C5_6 
REMARK       I    between atoms: C5_6  and  N2_8 
REMARK    4  A    between atoms: N2_8  and  C6_9 
REMARK    5  A    between atoms: C9_12  and  N3_13 
REMARK    6  A    between atoms: N3_13  and  C10_14 
ROOT
HETATM    1  C6  UNL     1      27.095   4.571  49.176  1.00  0.00     0.135 C 
HETATM    2  C7  UNL     1      25.923   4.237  49.582  1.00  0.00     0.123 C 
HETATM    3  C8  UNL     1      25.229   3.166  50.259  1.00  0.00     0.073 C 
HETATM    4  C9  UNL     1      24.103   2.654  50.700  1.00  0.00     0.036 C 
HETATM    5  C16 UNL     1      22.614   2.875  50.587  1.00  0.00     0.227 C 
HETATM    6  O2  UNL     1      22.128   3.162  51.834  1.00  0.00    -0.364 OA
HETATM    7  C17 UNL     1      22.610   4.390  52.333  1.00  0.00     0.316 C 
HETATM    8  N4  UNL     1      22.110   5.501  51.584  1.00  0.00    -0.274 NA
HETATM    9  C18 UNL     1      22.631   6.014  50.567  1.00  0.00     0.144 C 
HETATM   10  C19 UNL     1      23.842   5.535  50.002  1.00  0.00     0.201 C 
HETATM   11  N5  UNL     1      24.854   4.938  49.758  1.00  0.00    -0.415 NA
ENDROOT
BRANCH   1  12
HETATM   12  N2  UNL     1      27.757   5.606  48.526  1.00  0.00    -0.334 N 
HETATM   13  C5  UNL     1      29.059   5.878  48.090  1.00  0.00     0.223 C 
HETATM   14  O1  UNL     1      29.892   4.990  48.352  1.00  0.00    -0.273 OA
HETATM   15  H11 UNL     1      27.107   6.417  48.296  1.00  0.00     0.168 HD
BRANCH  13  16
HETATM   16  C4  UNL     1      29.434   7.136  47.359  1.00  0.00     0.122 C 
BRANCH  16  17
HETATM   17  C3  UNL     1      28.415   8.211  47.685  1.00  0.00     0.125 C 
BRANCH  17  18
HETATM   18  N1  UNL     1      28.761   8.969  48.817  1.00  0.00    -0.420 N 
HETATM   19  C1  UNL     1      29.877   9.828  48.720  1.00  0.00     0.142 C 
HETATM   20  C2  UNL     1      27.824   9.227  49.832  1.00  0.00     0.142 C 
ENDBRANCH  17  18
ENDBRANCH  16  17
ENDBRANCH  13  16
ENDBRANCH   1  12
BRANCH   4  21
HETATM   21  N3  UNL     1      24.264   1.395  51.384  1.00  0.00    -0.358 N 
HETATM   22  H14 UNL     1      23.513   0.701  51.080  1.00  0.00     0.166 HD
BRANCH  21  23
HETATM   23  C10 UNL     1      25.333   1.176  52.335  1.00  0.00     0.033 A 
HETATM   24  C11 UNL     1      25.245   2.131  53.358  1.00  0.00     0.029 A 
HETATM   25  C12 UNL     1      26.286   1.896  54.291  1.00  0.00     0.004 A 
HETATM   26  C13 UNL     1      27.259   0.893  54.238  1.00  0.00     0.019 A 
HETATM   27  C14 UNL     1      27.141   0.068  53.128  1.00  0.00     0.013 A 
HETATM   28 BR1  UNL     1      28.471  -1.323  53.047  1.00  0.00    -0.051 Br
HETATM   29  C15 UNL     1      26.197   0.154  52.136  1.00  0.00     0.048 A 
ENDBRANCH  21  23
ENDBRANCH   4  21
TORSDOF 6
ENDMDL
MODEL 4
REMARK VINA RESULT:      -7.3      3.525      5.585
REMARK  6 active torsions:
REMARK  status: ('A' for Active; 'I' for Inactive)
REMARK    1  A    between atoms: N1_2  and  C3_4 
REMARK    2  A    between atoms: C3_4  and  C4_5 
REMARK    3  A    between atoms: C4_5  and  C5_6 
REMARK       I    between atoms: C5_6  and  N2_8 
REMARK    4  A    between atoms: N2_8  and  C6_9 
REMARK    5  A    between atoms: C9_12  and  N3_13 
REMARK    6  A    between atoms: N3_13  and  C10_14 
ROOT
HETATM    1  C6  UNL     1      24.094   3.860  52.466  1.00  0.00     0.135 C 
HETATM    2  C7  UNL     1      23.634   2.673  52.633  1.00  0.00     0.123 C 
HETATM    3  C8  UNL     1      23.988   1.401  53.221  1.00  0.00     0.073 C 
HETATM    4  C9  UNL     1      23.691   0.142  53.445  1.00  0.00     0.036 C 
HETATM    5  C16 UNL     1      22.699  -0.906  53.000  1.00  0.00     0.227 C 
HETATM    6  O2  UNL     1      21.968  -1.293  54.091  1.00  0.00    -0.364 OA
HETATM    7  C17 UNL     1      21.154  -0.257  54.592  1.00  0.00     0.316 C 
HETATM    8  N4  UNL     1      20.113   0.093  53.676  1.00  0.00    -0.274 NA
HETATM    9  C18 UNL     1      20.175   0.945  52.760  1.00  0.00     0.144 C 
HETATM   10  C19 UNL     1      21.343   1.710  52.504  1.00  0.00     0.201 C 
HETATM   11  N5  UNL     1      22.437   2.204  52.526  1.00  0.00    -0.415 NA
ENDROOT
BRANCH   1  12
HETATM   12  N2  UNL     1      23.747   5.082  51.900  1.00  0.00    -0.334 N 
HETATM   13  C5  UNL     1      23.147   5.532  50.718  1.00  0.00     0.223 C 
HETATM   14  O1  UNL     1      22.844   4.632  49.912  1.00  0.00    -0.273 OA
HETATM   15  H11 UNL     1      24.005   5.902  52.526  1.00  0.00     0.168 HD
BRANCH  13  16
HETATM   16  C4  UNL     1      22.880   6.983  50.434  1.00  0.00     0.122 C 
BRANCH  16  17
HETATM   17  C3  UNL     1      24.113   7.786  50.803  1.00  0.00     0.125 C 
BRANCH  17  18
HETATM   18  N1  UNL     1      25.074   7.817  49.779  1.00  0.00    -0.420 N 
HETATM   19  C1  UNL     1      24.617   7.935  48.448  1.00  0.00     0.142 C 
HETATM   20  C2  UNL     1      26.408   8.171  50.045  1.00  0.00     0.142 C 
ENDBRANCH  17  18
ENDBRANCH  16  17
ENDBRANCH  13  16
ENDBRANCH   1  12
BRANCH   4  21
HETATM   21  N3  UNL     1      24.674  -0.557  54.236  1.00  0.00    -0.358 N 
HETATM   22  H14 UNL     1      24.207  -1.094  55.030  1.00  0.00     0.166 HD
BRANCH  21  23
HETATM   23  C10 UNL     1      26.086  -0.496  53.923  1.00  0.00     0.033 A 
HETATM   24  C11 UNL     1      26.417  -1.560  53.071  1.00  0.00     0.029 A 
HETATM   25  C12 UNL     1      27.798  -1.480  52.759  1.00  0.00     0.004 A 
HETATM   26  C13 UNL     1      28.711  -0.520  53.203  1.00  0.00     0.019 A 
HETATM   27  C14 UNL     1      28.146   0.434  54.040  1.00  0.00     0.013 A 
HETATM   28 BR1  UNL     1      29.394   1.766  54.653  1.00  0.00    -0.051 Br
HETATM   29  C15 UNL     1      26.837   0.504  54.439  1.00  0.00     0.048 A 
ENDBRANCH  21  23
ENDBRANCH   4  21
TORSDOF 6
ENDMDL
MODEL 5
REMARK VINA RESULT:      -7.3      4.301      6.284
REMARK  6 active torsions:
REMARK  status: ('A' for Active; 'I' for Inactive)
REMARK    1  A    between atoms: N1_2  and  C3_4 
REMARK    2  A    between atoms: C3_4  and  C4_5 
REMARK    3  A    between atoms: C4_5  and  C5_6 
REMARK       I    between atoms: C5_6  and  N2_8 
REMARK    4  A    between atoms: N2_8  and  C6_9 
REMARK    5  A    between atoms: C9_12  and  N3_13 
REMARK    6  A    between atoms: N3_13  and  C10_14 
ROOT
HETATM    1  C6  UNL     1      23.755   2.554  50.594  1.00  0.00     0.135 C 
HETATM    2  C7  UNL     1      23.335   1.597  51.340  1.00  0.00     0.123 C 
HETATM    3  C8  UNL     1      23.745   0.782  52.462  1.00  0.00     0.073 C 
HETATM    4  C9  UNL     1      23.493  -0.208  53.286  1.00  0.00     0.036 C 
HETATM    5  C16 UNL     1      22.521  -1.353  53.452  1.00  0.00     0.227 C 
HETATM    6  O2  UNL     1      21.832  -1.163  54.619  1.00  0.00    -0.364 OA
HETATM    7  C17 UNL     1      21.001  -0.025  54.579  1.00  0.00     0.316 C 
HETATM    8  N4  UNL     1      19.925  -0.185  53.650  1.00  0.00    -0.274 NA
HETATM    9  C18 UNL     1      19.936   0.108  52.432  1.00  0.00     0.144 C 
HETATM   10  C19 UNL     1      21.073   0.664  51.789  1.00  0.00     0.201 C 
HETATM   11  N5  UNL     1      22.152   1.119  51.523  1.00  0.00    -0.415 NA
ENDROOT
BRANCH   1  12
HETATM   12  N2  UNL     1      23.355   3.336  49.516  1.00  0.00    -0.334 N 
HETATM   13  C5  UNL     1      22.683   3.144  48.302  1.00  0.00     0.223 C 
HETATM   14  O1  UNL     1      22.354   1.966  48.070  1.00  0.00    -0.273 OA
HETATM   15  H11 UNL     1      23.632   4.356  49.635  1.00  0.00     0.168 HD
BRANCH  13  16
HETATM   16  C4  UNL     1      22.375   4.264  47.349  1.00  0.00     0.122 C 
BRANCH  16  17
HETATM   17  C3  UNL     1      22.655   5.584  48.042  1.00  0.00     0.125 C 
BRANCH  17  18
HETATM   18  N1  UNL     1      21.495   6.197  48.544  1.00  0.00    -0.420 N 
HETATM   19  C1  UNL     1      20.365   6.262  47.699  1.00  0.00     0.142 C 
HETATM   20  C2  UNL     1      21.286   6.333  49.927  1.00  0.00     0.142 C 
ENDBRANCH  17  18
ENDBRANCH  16  17
ENDBRANCH  13  16
ENDBRANCH   1  12
BRANCH   4  21
HETATM   21  N3  UNL     1      24.518  -0.415  54.279  1.00  0.00    -0.358 N 
HETATM   22  H14 UNL     1      24.084  -0.580  55.240  1.00  0.00     0.166 HD
BRANCH  21  23
HETATM   23  C10 UNL     1      25.924  -0.397  53.937  1.00  0.00     0.033 A 
HETATM   24  C11 UNL     1      26.218  -1.507  53.133  1.00  0.00     0.029 A 
HETATM   25  C12 UNL     1      27.594  -1.469  52.791  1.00  0.00     0.004 A 
HETATM   26  C13 UNL     1      28.534  -0.506  53.171  1.00  0.00     0.019 A 
HETATM   27  C14 UNL     1      28.003   0.498  53.970  1.00  0.00     0.013 A 
HETATM   28 BR1  UNL     1      29.286   1.835  54.493  1.00  0.00    -0.051 Br
HETATM   29  C15 UNL     1      26.703   0.613  54.390  1.00  0.00     0.048 A 
ENDBRANCH  21  23
ENDBRANCH   4  21
TORSDOF 6
ENDMDL
MODEL 6
REMARK VINA RESULT:      -7.2      3.523      5.830
REMARK  6 active torsions:
REMARK  status: ('A' for Active; 'I' for Inactive)
REMARK    1  A    between atoms: N1_2  and  C3_4 
REMARK    2  A    between atoms: C3_4  and  C4_5 
REMARK    3  A    between atoms: C4_5  and  C5_6 
REMARK       I    between atoms: C5_6  and  N2_8 
REMARK    4  A    between atoms: N2_8  and  C6_9 
REMARK    5  A    between atoms: C9_12  and  N3_13 
REMARK    6  A    between atoms: N3_13  and  C10_14 
ROOT
HETATM    1  C6  UNL     1      28.851   5.206  48.285  1.00  0.00     0.135 C 
HETATM    2  C7  UNL     1      27.609   5.340  48.582  1.00  0.00     0.123 C 
HETATM    3  C8  UNL     1      26.467   4.569  49.017  1.00  0.00     0.073 C 
HETATM    4  C9  UNL     1      25.189   4.519  49.316  1.00  0.00     0.036 C 
HETATM    5  C16 UNL     1      23.944   5.366  49.202  1.00  0.00     0.227 C 
HETATM    6  O2  UNL     1      23.486   5.624  50.466  1.00  0.00    -0.364 OA
HETATM    7  C17 UNL     1      24.371   6.433  51.208  1.00  0.00     0.316 C 
HETATM    8  N4  UNL     1      24.458   7.757  50.673  1.00  0.00    -0.274 NA
HETATM    9  C18 UNL     1      25.251   8.159  49.791  1.00  0.00     0.144 C 
HETATM   10  C19 UNL     1      26.212   7.310  49.182  1.00  0.00     0.201 C 
HETATM   11  N5  UNL     1      26.910   6.388  48.858  1.00  0.00    -0.415 NA
ENDROOT
BRANCH   1  12
HETATM   12  N2  UNL     1      29.947   5.953  47.869  1.00  0.00    -0.334 N 
HETATM   13  C5  UNL     1      31.336   5.921  48.040  1.00  0.00     0.223 C 
HETATM   14  O1  UNL     1      31.750   5.005  48.775  1.00  0.00    -0.273 OA
HETATM   15  H11 UNL     1      29.663   6.776  47.256  1.00  0.00     0.168 HD
BRANCH  13  16
HETATM   16  C4  UNL     1      32.266   6.907  47.390  1.00  0.00     0.122 C 
BRANCH  16  17
HETATM   17  C3  UNL     1      33.637   6.270  47.259  1.00  0.00     0.125 C 
BRANCH  17  18
HETATM   18  N1  UNL     1      34.543   6.716  48.236  1.00  0.00    -0.420 N 
HETATM   19  C1  UNL     1      35.268   5.742  48.957  1.00  0.00     0.142 C 
HETATM   20  C2  UNL     1      35.057   8.024  48.208  1.00  0.00     0.142 C 
ENDBRANCH  17  18
ENDBRANCH  16  17
ENDBRANCH  13  16
ENDBRANCH   1  12
BRANCH   4  21
HETATM   21  N3  UNL     1      24.742   3.218  49.748  1.00  0.00    -0.358 N 
HETATM   22  H14 UNL     1      24.172   2.741  48.982  1.00  0.00     0.166 HD
BRANCH  21  23
HETATM   23  C10 UNL     1      25.072   2.695  51.056  1.00  0.00     0.033 A 
HETATM   24  C11 UNL     1      23.895   2.309  51.712  1.00  0.00     0.029 A 
HETATM   25  C12 UNL     1      24.233   1.784  52.985  1.00  0.00     0.004 A 
HETATM   26  C13 UNL     1      25.512   1.655  53.533  1.00  0.00     0.019 A 
HETATM   27  C14 UNL     1      26.521   2.108  52.694  1.00  0.00     0.013 A 
HETATM   28 BR1  UNL     1      28.289   1.928  53.436  1.00  0.00    -0.051 Br
HETATM   29  C15 UNL     1      26.369   2.639  51.439  1.00  0.00     0.048 A 
ENDBRANCH  21  23
ENDBRANCH   4  21
TORSDOF 6
ENDMDL
MODEL 7
REMARK VINA RESULT:      -7.2      3.460      5.053
REMARK  6 active torsions:
REMARK  status: ('A' for Active; 'I' for Inactive)
REMARK    1  A    between atoms: N1_2  and  C3_4 
REMARK    2  A    between atoms: C3_4  and  C4_5 
REMARK    3  A    between atoms: C4_5  and  C5_6 
REMARK       I    between atoms: C5_6  and  N2_8 
REMARK    4  A    between atoms: N2_8  and  C6_9 
REMARK    5  A    between atoms: C9_12  and  N3_13 
REMARK    6  A    between atoms: N3_13  and  C10_14 
ROOT
HETATM    1  C6  UNL     1      25.065   4.845  50.284  1.00  0.00     0.135 C 
HETATM    2  C7  UNL     1      24.123   3.992  50.099  1.00  0.00     0.123 C 
HETATM    3  C8  UNL     1      23.145   3.220  50.831  1.00  0.00     0.073 C 
HETATM    4  C9  UNL     1      22.187   2.322  50.827  1.00  0.00     0.036 C 
HETATM    5  C16 UNL     1      21.566   1.300  49.904  1.00  0.00     0.227 C 
HETATM    6  O2  UNL     1      20.256   1.643  49.706  1.00  0.00    -0.364 OA
HETATM    7  C17 UNL     1      20.114   2.856  49.002  1.00  0.00     0.316 C 
HETATM    8  N4  UNL     1      20.574   2.745  47.652  1.00  0.00    -0.274 NA
HETATM    9  C18 UNL     1      21.738   2.949  47.238  1.00  0.00     0.144 C 
HETATM   10  C19 UNL     1      22.800   3.335  48.097  1.00  0.00     0.201 C 
HETATM   11  N5  UNL     1      23.480   3.655  49.033  1.00  0.00    -0.415 NA
ENDROOT
BRANCH   1  12
HETATM   12  N2  UNL     1      26.003   5.586  49.575  1.00  0.00    -0.334 N 
HETATM   13  C5  UNL     1      27.178   5.336  48.855  1.00  0.00     0.223 C 
HETATM   14  O1  UNL     1      27.533   4.143  48.836  1.00  0.00    -0.273 OA
HETATM   15  H11 UNL     1      25.778   6.626  49.575  1.00  0.00     0.168 HD
BRANCH  13  16
HETATM   16  C4  UNL     1      27.957   6.414  48.155  1.00  0.00     0.122 C 
BRANCH  16  17
HETATM   17  C3  UNL     1      29.423   6.023  48.138  1.00  0.00     0.125 C 
BRANCH  17  18
HETATM   18  N1  UNL     1      30.279   7.096  48.437  1.00  0.00    -0.420 N 
HETATM   19  C1  UNL     1      31.595   7.052  47.924  1.00  0.00     0.142 C 
HETATM   20  C2  UNL     1      29.769   8.348  48.820  1.00  0.00     0.142 C 
ENDBRANCH  17  18
ENDBRANCH  16  17
ENDBRANCH  13  16
ENDBRANCH   1  12
BRANCH   4  21
HETATM   21  N3  UNL     1      21.610   2.079  52.127  1.00  0.00    -0.358 N 
HETATM   22  H14 UNL     1      20.818   2.765  52.322  1.00  0.00     0.166 HD
BRANCH  21  23
HETATM   23  C10 UNL     1      22.092   1.019  52.986  1.00  0.00     0.033 A 
HETATM   24  C11 UNL     1      21.002   0.411  53.625  1.00  0.00     0.029 A 
HETATM   25  C12 UNL     1      21.485  -0.636  54.451  1.00  0.00     0.004 A 
HETATM   26  C13 UNL     1      22.815  -1.028  54.629  1.00  0.00     0.019 A 
HETATM   27  C14 UNL     1      23.716  -0.273  53.890  1.00  0.00     0.013 A 
HETATM   28 BR1  UNL     1      25.552  -0.808  54.120  1.00  0.00    -0.051 Br
HETATM   29  C15 UNL     1      23.420   0.767  53.046  1.00  0.00     0.048 A 
ENDBRANCH  21  23
ENDBRANCH   4  21
TORSDOF 6
ENDMDL
MODEL 8
REMARK VINA RESULT:      -7.1      3.389      4.780
REMARK  6 active torsions:
REMARK  status: ('A' for Active; 'I' for Inactive)
REMARK    1  A    between atoms: N1_2  and  C3_4 
REMARK    2  A    between atoms: C3_4  and  C4_5 
REMARK    3  A    between atoms: C4_5  and  C5_6 
REMARK       I    between atoms: C5_6  and  N2_8 
REMARK    4  A    between atoms: N2_8  and  C6_9 
REMARK    5  A    between atoms: C9_12  and  N3_13 
REMARK    6  A    between atoms: N3_13  and  C10_14 
ROOT
HETATM    1  C6  UNL     1      26.792   4.129  49.204  1.00  0.00     0.135 C 
HETATM    2  C7  UNL     1      25.527   4.156  49.422  1.00  0.00     0.123 C 
HETATM    3  C8  UNL     1      24.411   3.275  49.684  1.00  0.00     0.073 C 
HETATM    4  C9  UNL     1      23.123   3.117  49.880  1.00  0.00     0.036 C 
HETATM    5  C16 UNL     1      21.834   3.897  49.768  1.00  0.00     0.227 C 
HETATM    6  O2  UNL     1      21.277   3.982  51.016  1.00  0.00    -0.364 OA
HETATM    7  C17 UNL     1      22.056   4.751  51.905  1.00  0.00     0.316 C 
HETATM    8  N4  UNL     1      22.090   6.130  51.527  1.00  0.00    -0.274 NA
HETATM    9  C18 UNL     1      22.912   6.676  50.755  1.00  0.00     0.144 C 
HETATM   10  C19 UNL     1      23.966   5.960  50.129  1.00  0.00     0.201 C 
HETATM   11  N5  UNL     1      24.743   5.123  49.758  1.00  0.00    -0.415 NA
ENDROOT
BRANCH   1  12
HETATM   12  N2  UNL     1      27.861   4.982  48.954  1.00  0.00    -0.334 N 
HETATM   13  C5  UNL     1      28.061   6.227  48.345  1.00  0.00     0.223 C 
HETATM   14  O1  UNL     1      27.035   6.740  47.860  1.00  0.00    -0.273 OA
HETATM   15  H11 UNL     1      28.781   4.589  49.317  1.00  0.00     0.168 HD
BRANCH  13  16
HETATM   16  C4  UNL     1      29.401   6.902  48.278  1.00  0.00     0.122 C 
BRANCH  16  17
HETATM   17  C3  UNL     1      29.192   8.371  47.966  1.00  0.00     0.125 C 
BRANCH  17  18
HETATM   18  N1  UNL     1      29.264   9.189  49.106  1.00  0.00    -0.420 N 
HETATM   19  C1  UNL     1      30.539   9.641  49.514  1.00  0.00     0.142 C 
HETATM   20  C2  UNL     1      28.142   9.903  49.561  1.00  0.00     0.142 C 
ENDBRANCH  17  18
ENDBRANCH  16  17
ENDBRANCH  13  16
ENDBRANCH   1  12
BRANCH   4  21
HETATM   21  N3  UNL     1      22.735   1.751  50.132  1.00  0.00    -0.358 N 
HETATM   22  H14 UNL     1      22.255   1.331  49.278  1.00  0.00     0.166 HD
BRANCH  21  23
HETATM   23  C10 UNL     1      23.006   1.104  51.398  1.00  0.00     0.033 A 
HETATM   24  C11 UNL     1      21.848   0.450  51.841  1.00  0.00     0.029 A 
HETATM   25  C12 UNL     1      22.131  -0.193  53.073  1.00  0.00     0.004 A 
HETATM   26  C13 UNL     1      23.345  -0.199  53.765  1.00  0.00     0.019 A 
HETATM   27  C14 UNL     1      24.347   0.521  53.126  1.00  0.00     0.013 A 
HETATM   28 BR1  UNL     1      26.028   0.515  54.066  1.00  0.00    -0.051 Br
HETATM   29  C15 UNL     1      24.244   1.197  51.938  1.00  0.00     0.048 A 
ENDBRANCH  21  23
ENDBRANCH   4  21
TORSDOF 6
ENDMDL
MODEL 9
REMARK VINA RESULT:      -7.1      3.914      9.585
REMARK  6 active torsions:
REMARK  status: ('A' for Active; 'I' for Inactive)
REMARK    1  A    between atoms: N1_2  and  C3_4 
REMARK    2  A    between atoms: C3_4  and  C4_5 
REMARK    3  A    between atoms: C4_5  and  C5_6 
REMARK       I    between atoms: C5_6  and  N2_8 
REMARK    4  A    between atoms: N2_8  and  C6_9 
REMARK    5  A    between atoms: C9_12  and  N3_13 
REMARK    6  A    between atoms: N3_13  and  C10_14 
ROOT
HETATM    1  C6  UNL     1      26.550   3.636  49.745  1.00  0.00     0.135 C 
HETATM    2  C7  UNL     1      26.256   4.886  49.696  1.00  0.00     0.123 C 
HETATM    3  C8  UNL     1      26.542   6.080  48.935  1.00  0.00     0.073 C 
HETATM    4  C9  UNL     1      26.384   7.372  48.765  1.00  0.00     0.036 C 
HETATM    5  C16 UNL     1      25.833   8.573  49.496  1.00  0.00     0.227 C 
HETATM    6  O2  UNL     1      24.798   9.084  48.760  1.00  0.00    -0.364 OA
HETATM    7  C17 UNL     1      23.698   8.204  48.689  1.00  0.00     0.316 C 
HETATM    8  N4  UNL     1      23.069   8.035  49.962  1.00  0.00    -0.274 NA
HETATM    9  C18 UNL     1      23.356   7.181  50.832  1.00  0.00     0.144 C 
HETATM   10  C19 UNL     1      24.392   6.226  50.656  1.00  0.00     0.201 C 
HETATM   11  N5  UNL     1      25.293   5.552  50.236  1.00  0.00    -0.415 NA
ENDROOT
BRANCH   1  12
HETATM   12  N2  UNL     1      26.269   2.490  50.480  1.00  0.00    -0.334 N 
HETATM   13  C5  UNL     1      26.735   1.882  51.652  1.00  0.00     0.223 C 
HETATM   14  O1  UNL     1      27.671   2.482  52.213  1.00  0.00    -0.273 OA
HETATM   15  H11 UNL     1      25.494   1.910  50.038  1.00  0.00     0.168 HD
BRANCH  13  16
HETATM   16  C4  UNL     1      26.157   0.608  52.201  1.00  0.00     0.122 C 
BRANCH  16  17
HETATM   17  C3  UNL     1      27.290  -0.255  52.723  1.00  0.00     0.125 C 
BRANCH  17  18
HETATM   18  N1  UNL     1      27.478  -0.133  54.110  1.00  0.00    -0.420 N 
HETATM   19  C1  UNL     1      28.794   0.067  54.582  1.00  0.00     0.142 C 
HETATM   20  C2  UNL     1      26.418   0.232  54.957  1.00  0.00     0.142 C 
ENDBRANCH  17  18
ENDBRANCH  16  17
ENDBRANCH  13  16
ENDBRANCH   1  12
BRANCH   4  21
HETATM   21  N3  UNL     1      27.066   7.896  47.607  1.00  0.00    -0.358 N 
HETATM   22  H14 UNL     1      26.406   7.944  46.770  1.00  0.00     0.166 HD
BRANCH  21  23
HETATM   23  C10 UNL     1      28.457   8.291  47.656  1.00  0.00     0.033 A 
HETATM   24  C11 UNL     1      29.255   7.234  47.194  1.00  0.00     0.029 A 
HETATM   25  C12 UNL     1      30.613   7.639  47.232  1.00  0.00     0.004 A 
HETATM   26  C13 UNL     1      31.116   8.873  47.653  1.00  0.00     0.019 A 
HETATM   27  C14 UNL     1      30.130   9.759  48.067  1.00  0.00     0.013 A 
HETATM   28 BR1  UNL     1      30.811  11.466  48.642  1.00  0.00    -0.051 Br
HETATM   29  C15 UNL     1      28.779   9.531  48.093  1.00  0.00     0.048 A 
ENDBRANCH  21  23
ENDBRANCH   4  21
TORSDOF 6
ENDMDL
