MODEL 1
REMARK VINA RESULT:      -8.2      0.000      0.000
REMARK  3 active torsions:
REMARK  status: ('A' for Active; 'I' for Inactive)
REMARK    1  A    between atoms: C4_5  and  C5_6 
REMARK    2  A    between atoms: C5_6  and  N2_7 
REMARK    3  A    between atoms: C13_17  and  N5_18 
ROOT
HETATM    1  C5  UNL     1      33.650   6.475  44.324  1.00  0.00     0.213 C 
HETATM    2  C6  UNL     1      34.657   7.401  44.836  1.00  0.00     0.066 C 
HETATM    3  C7  UNL     1      34.250   8.829  45.222  1.00  0.00     0.131 C 
HETATM    4  N3  UNL     1      33.359   8.710  46.392  1.00  0.00    -0.358 N 
HETATM    5  C8  UNL     1      32.005   8.786  46.612  1.00  0.00     0.103 A 
HETATM    6  C9  UNL     1      31.992   8.329  47.908  1.00  0.00    -0.008 A 
HETATM    7  C10 UNL     1      33.093   7.989  48.574  1.00  0.00     0.040 A 
HETATM    8  C11 UNL     1      33.972   8.260  47.512  1.00  0.00     0.032 A 
HETATM    9  C12 UNL     1      35.255   7.854  48.117  1.00  0.00     0.208 C 
HETATM   10  N4  UNL     1      35.228   6.475  48.548  1.00  0.00    -0.271 NA
HETATM   11  C13 UNL     1      34.785   5.450  47.915  1.00  0.00     0.099 C 
HETATM   12  C14 UNL     1      34.200   4.489  46.933  1.00  0.00     0.088 C 
HETATM   13  C15 UNL     1      34.820   4.589  45.555  1.00  0.00     0.049 C 
HETATM   14  C16 UNL     1      33.726   5.041  44.645  1.00  0.00     0.163 C 
HETATM   15  O1  UNL     1      32.559   4.498  45.284  1.00  0.00    -0.375 OA
HETATM   16  C17 UNL     1      32.725   4.823  46.617  1.00  0.00     0.157 C 
HETATM   17  C18 UNL     1      31.918   4.203  47.655  1.00  0.00     0.208 C 
HETATM   18  O2  UNL     1      30.554   4.310  47.803  1.00  0.00    -0.349 OA
HETATM   19  C19 UNL     1      29.855   5.458  47.975  1.00  0.00     0.069 A 
HETATM   20  C20 UNL     1      28.643   6.058  48.133  1.00  0.00     0.037 A 
HETATM   21  C21 UNL     1      28.325   7.387  48.272  1.00  0.00     0.004 A 
HETATM   22  C22 UNL     1      29.285   8.412  48.270  1.00  0.00     0.012 A 
HETATM   23  C23 UNL     1      30.557   8.043  48.129  1.00  0.00    -0.022 A 
HETATM   24  C24 UNL     1      30.570   6.618  48.014  1.00  0.00     0.049 A 
ENDROOT
BRANCH   1  25
HETATM   25  C4  UNL     1      33.589   6.711  42.790  1.00  0.00     0.266 C 
HETATM   26  C2  UNL     1      33.608   5.448  41.973  1.00  0.00     0.045 C 
HETATM   27  C1  UNL     1      32.451   5.342  40.983  1.00  0.00     0.014 C 
HETATM   28  C3  UNL     1      34.866   5.910  41.291  1.00  0.00     0.276 C 
HETATM   29  N1  UNL     1      34.900   7.003  42.251  1.00  0.00     0.091 N 
HETATM   30  H7  UNL     1      35.012   7.933  41.823  1.00  0.00     0.316 HD
ENDBRANCH   1  25
BRANCH   1  31
HETATM   31  N2  UNL     1      32.243   6.843  44.624  1.00  0.00     0.092 N 
HETATM   32  H9  UNL     1      31.594   6.387  43.951  1.00  0.00     0.314 HD
HETATM   33  H10 UNL     1      32.016   6.608  45.614  1.00  0.00     0.314 HD
ENDBRANCH   1  31
BRANCH  11  34
HETATM   34  N5  UNL     1      35.257   4.906  49.177  1.00  0.00    -0.387 N 
HETATM   35  H19 UNL     1      35.590   4.506  50.105  1.00  0.00     0.157 HD
HETATM   36  H20 UNL     1      35.895   4.581  49.964  1.00  0.00     0.157 HD
ENDBRANCH  11  34
TORSDOF 3
ENDMDL
MODEL 2
REMARK VINA RESULT:      -8.1      1.938      5.835
REMARK  3 active torsions:
REMARK  status: ('A' for Active; 'I' for Inactive)
REMARK    1  A    between atoms: C4_5  and  C5_6 
REMARK    2  A    between atoms: C5_6  and  N2_7 
REMARK    3  A    between atoms: C13_17  and  N5_18 
ROOT
HETATM    1  C5  UNL     1      31.073   6.731  47.474  1.00  0.00     0.213 C 
HETATM    2  C6  UNL     1      31.461   5.484  48.128  1.00  0.00     0.066 C 
HETATM    3  C7  UNL     1      31.551   4.191  47.308  1.00  0.00     0.131 C 
HETATM    4  N3  UNL     1      32.669   4.370  46.362  1.00  0.00    -0.358 N 
HETATM    5  C8  UNL     1      32.793   4.653  45.023  1.00  0.00     0.103 A 
HETATM    6  C9  UNL     1      34.148   4.878  44.996  1.00  0.00    -0.008 A 
HETATM    7  C10 UNL     1      34.928   4.775  46.068  1.00  0.00     0.040 A 
HETATM    8  C11 UNL     1      33.887   4.438  46.950  1.00  0.00     0.032 A 
HETATM    9  C12 UNL     1      34.631   4.354  48.222  1.00  0.00     0.208 C 
HETATM   10  N4  UNL     1      35.308   5.594  48.526  1.00  0.00    -0.271 NA
HETATM   11  C13 UNL     1      34.851   6.791  48.450  1.00  0.00     0.099 C 
HETATM   12  C14 UNL     1      34.033   8.026  48.259  1.00  0.00     0.088 C 
HETATM   13  C15 UNL     1      32.699   7.975  48.974  1.00  0.00     0.049 C 
HETATM   14  C16 UNL     1      31.658   8.011  47.903  1.00  0.00     0.163 C 
HETATM   15  O1  UNL     1      32.318   8.755  46.867  1.00  0.00    -0.375 OA
HETATM   16  C17 UNL     1      33.575   8.186  46.793  1.00  0.00     0.157 C 
HETATM   17  C18 UNL     1      34.661   8.836  46.078  1.00  0.00     0.208 C 
HETATM   18  O2  UNL     1      34.708   9.103  44.729  1.00  0.00    -0.349 OA
HETATM   19  C19 UNL     1      34.623   8.192  43.729  1.00  0.00     0.069 A 
HETATM   20  C20 UNL     1      34.596   7.950  42.390  1.00  0.00     0.037 A 
HETATM   21  C21 UNL     1      34.467   6.764  41.708  1.00  0.00     0.004 A 
HETATM   22  C22 UNL     1      34.330   5.520  42.346  1.00  0.00     0.012 A 
HETATM   23  C23 UNL     1      34.335   5.526  43.678  1.00  0.00    -0.022 A 
HETATM   24  C24 UNL     1      34.487   6.885  44.092  1.00  0.00     0.049 A 
ENDROOT
BRANCH   1  25
HETATM   25  C4  UNL     1      29.521   6.774  47.517  1.00  0.00     0.266 C 
HETATM   26  C2  UNL     1      28.941   8.157  47.400  1.00  0.00     0.045 C 
HETATM   27  C1  UNL     1      27.906   8.295  46.288  1.00  0.00     0.014 C 
HETATM   28  C3  UNL     1      28.279   7.990  48.741  1.00  0.00     0.276 C 
HETATM   29  N1  UNL     1      29.033   6.754  48.879  1.00  0.00     0.091 N 
HETATM   30  H7  UNL     1      28.457   5.939  49.138  1.00  0.00     0.316 HD
ENDBRANCH   1  25
BRANCH   1  31
HETATM   31  N2  UNL     1      31.217   6.740  45.996  1.00  0.00     0.092 N 
HETATM   32  H9  UNL     1      30.474   7.321  45.559  1.00  0.00     0.314 HD
HETATM   33  H10 UNL     1      32.175   7.059  45.733  1.00  0.00     0.314 HD
ENDBRANCH   1  31
BRANCH  11  34
HETATM   34  N5  UNL     1      36.218   6.965  48.914  1.00  0.00    -0.387 N 
HETATM   35  H19 UNL     1      37.222   7.096  49.240  1.00  0.00     0.157 HD
HETATM   36  H20 UNL     1      37.084   6.976  49.531  1.00  0.00     0.157 HD
ENDBRANCH  11  34
TORSDOF 3
ENDMDL
MODEL 3
REMARK VINA RESULT:      -7.6      9.578     12.790
REMARK  3 active torsions:
REMARK  status: ('A' for Active; 'I' for Inactive)
REMARK    1  A    between atoms: C4_5  and  C5_6 
REMARK    2  A    between atoms: C5_6  and  N2_7 
REMARK    3  A    between atoms: C13_17  and  N5_18 
ROOT
HETATM    1  C5  UNL     1      22.595   5.953  50.051  1.00  0.00     0.213 C 
HETATM    2  C6  UNL     1      23.177   5.485  48.795  1.00  0.00     0.066 C 
HETATM    3  C7  UNL     1      24.304   4.446  48.820  1.00  0.00     0.131 C 
HETATM    4  N3  UNL     1      23.713   3.197  49.338  1.00  0.00    -0.358 N 
HETATM    5  C8  UNL     1      23.724   2.522  50.535  1.00  0.00     0.103 A 
HETATM    6  C9  UNL     1      22.749   1.598  50.246  1.00  0.00    -0.008 A 
HETATM    7  C10 UNL     1      22.121   1.539  49.075  1.00  0.00     0.040 A 
HETATM    8  C11 UNL     1      22.802   2.631  48.511  1.00  0.00     0.032 A 
HETATM    9  C12 UNL     1      22.136   2.712  47.196  1.00  0.00     0.208 C 
HETATM   10  N4  UNL     1      20.709   2.889  47.332  1.00  0.00    -0.271 NA
HETATM   11  C13 UNL     1      20.076   3.691  48.110  1.00  0.00     0.099 C 
HETATM   12  C14 UNL     1      19.656   4.715  49.112  1.00  0.00     0.088 C 
HETATM   13  C15 UNL     1      20.328   6.057  48.914  1.00  0.00     0.049 C 
HETATM   14  C16 UNL     1      21.163   6.282  50.132  1.00  0.00     0.163 C 
HETATM   15  O1  UNL     1      20.430   5.561  51.136  1.00  0.00    -0.375 OA
HETATM   16  C17 UNL     1      20.136   4.353  50.535  1.00  0.00     0.157 C 
HETATM   17  C18 UNL     1      19.149   3.445  51.097  1.00  0.00     0.208 C 
HETATM   18  O2  UNL     1      19.220   2.816  52.319  1.00  0.00    -0.349 OA
HETATM   19  C19 UNL     1      20.198   1.972  52.730  1.00  0.00     0.069 A 
HETATM   20  C20 UNL     1      20.704   1.188  53.721  1.00  0.00     0.037 A 
HETATM   21  C21 UNL     1      21.848   0.428  53.752  1.00  0.00     0.004 A 
HETATM   22  C22 UNL     1      22.744   0.343  52.673  1.00  0.00     0.012 A 
HETATM   23  C23 UNL     1      22.436   1.040  51.581  1.00  0.00    -0.022 A 
HETATM   24  C24 UNL     1      21.204   1.714  51.846  1.00  0.00     0.049 A 
ENDROOT
BRANCH   1  25
HETATM   25  C4  UNL     1      23.477   7.144  50.516  1.00  0.00     0.266 C 
HETATM   26  C2  UNL     1      24.499   7.583  49.503  1.00  0.00     0.045 C 
HETATM   27  C1  UNL     1      24.435   9.072  49.175  1.00  0.00     0.014 C 
HETATM   28  C3  UNL     1      25.598   7.291  50.488  1.00  0.00     0.276 C 
HETATM   29  N1  UNL     1      24.580   6.691  51.337  1.00  0.00     0.091 N 
HETATM   30  H7  UNL     1      24.588   7.037  52.308  1.00  0.00     0.316 HD
ENDBRANCH   1  25
BRANCH   1  31
HETATM   31  N2  UNL     1      22.836   5.076  51.224  1.00  0.00     0.092 N 
HETATM   32  H9  UNL     1      23.102   4.119  50.917  1.00  0.00     0.314 HD
HETATM   33  H10 UNL     1      23.552   5.504  51.850  1.00  0.00     0.314 HD
ENDBRANCH   1  31
BRANCH  11  34
HETATM   34  N5  UNL     1      19.023   2.994  47.390  1.00  0.00    -0.387 N 
HETATM   35  H19 UNL     1      18.262   2.476  46.857  1.00  0.00     0.157 HD
HETATM   36  H20 UNL     1      18.068   2.710  47.018  1.00  0.00     0.157 HD
ENDBRANCH  11  34
TORSDOF 3
ENDMDL
MODEL 4
REMARK VINA RESULT:      -7.4      2.759      4.950
REMARK  3 active torsions:
REMARK  status: ('A' for Active; 'I' for Inactive)
REMARK    1  A    between atoms: C4_5  and  C5_6 
REMARK    2  A    between atoms: C5_6  and  N2_7 
REMARK    3  A    between atoms: C13_17  and  N5_18 
ROOT
HETATM    1  C5  UNL     1      32.195   7.218  47.137  1.00  0.00     0.213 C 
HETATM    2  C6  UNL     1      33.057   8.342  46.779  1.00  0.00     0.066 C 
HETATM    3  C7  UNL     1      33.024   8.899  45.350  1.00  0.00     0.131 C 
HETATM    4  N3  UNL     1      31.689   9.499  45.163  1.00  0.00    -0.358 N 
HETATM    5  C8  UNL     1      30.525   9.137  44.529  1.00  0.00     0.103 A 
HETATM    6  C9  UNL     1      29.713  10.124  45.034  1.00  0.00    -0.008 A 
HETATM    7  C10 UNL     1      30.142  11.069  45.866  1.00  0.00     0.040 A 
HETATM    8  C11 UNL     1      31.465  10.599  45.919  1.00  0.00     0.032 A 
HETATM    9  C12 UNL     1      32.048  11.552  46.885  1.00  0.00     0.208 C 
HETATM   10  N4  UNL     1      31.344  11.530  48.146  1.00  0.00    -0.271 NA
HETATM   11  C13 UNL     1      30.959  10.512  48.826  1.00  0.00     0.099 C 
HETATM   12  C14 UNL     1      30.657   9.151  49.362  1.00  0.00     0.088 C 
HETATM   13  C15 UNL     1      31.874   8.252  49.433  1.00  0.00     0.049 C 
HETATM   14  C16 UNL     1      31.609   7.129  48.484  1.00  0.00     0.163 C 
HETATM   15  O1  UNL     1      30.176   7.037  48.519  1.00  0.00    -0.375 OA
HETATM   16  C17 UNL     1      29.753   8.347  48.402  1.00  0.00     0.157 C 
HETATM   17  C18 UNL     1      28.381   8.730  48.692  1.00  0.00     0.208 C 
HETATM   18  O2  UNL     1      27.256   8.311  48.019  1.00  0.00    -0.349 OA
HETATM   19  C19 UNL     1      27.002   8.482  46.699  1.00  0.00     0.069 A 
HETATM   20  C20 UNL     1      26.161   8.272  45.650  1.00  0.00     0.037 A 
HETATM   21  C21 UNL     1      26.288   8.626  44.328  1.00  0.00     0.004 A 
HETATM   22  C22 UNL     1      27.403   9.314  43.821  1.00  0.00     0.012 A 
HETATM   23  C23 UNL     1      28.361   9.628  44.690  1.00  0.00    -0.022 A 
HETATM   24  C24 UNL     1      27.946   9.140  45.968  1.00  0.00     0.049 A 
ENDROOT
BRANCH   1  25
HETATM   25  C4  UNL     1      32.993   5.934  46.780  1.00  0.00     0.266 C 
HETATM   26  C2  UNL     1      32.983   4.884  47.858  1.00  0.00     0.045 C 
HETATM   27  C1  UNL     1      32.520   3.513  47.374  1.00  0.00     0.014 C 
HETATM   28  C3  UNL     1      34.483   4.955  47.938  1.00  0.00     0.276 C 
HETATM   29  N1  UNL     1      34.406   6.102  47.047  1.00  0.00     0.091 N 
HETATM   30  H7  UNL     1      35.028   6.039  46.227  1.00  0.00     0.316 HD
ENDBRANCH   1  25
BRANCH   1  31
HETATM   31  N2  UNL     1      31.049   6.984  46.224  1.00  0.00     0.092 N 
HETATM   32  H9  UNL     1      30.302   6.444  46.705  1.00  0.00     0.314 HD
HETATM   33  H10 UNL     1      30.702   7.892  45.847  1.00  0.00     0.314 HD
ENDBRANCH   1  31
BRANCH  11  34
HETATM   34  N5  UNL     1      30.521  11.650  49.618  1.00  0.00    -0.387 N 
HETATM   35  H19 UNL     1      30.213  12.488  50.196  1.00  0.00     0.157 HD
HETATM   36  H20 UNL     1      29.915  12.316  50.184  1.00  0.00     0.157 HD
ENDBRANCH  11  34
TORSDOF 3
ENDMDL
MODEL 5
REMARK VINA RESULT:      -7.1      2.234      5.474
REMARK  3 active torsions:
REMARK  status: ('A' for Active; 'I' for Inactive)
REMARK    1  A    between atoms: C4_5  and  C5_6 
REMARK    2  A    between atoms: C5_6  and  N2_7 
REMARK    3  A    between atoms: C13_17  and  N5_18 
ROOT
HETATM    1  C5  UNL     1      30.741   8.739  47.181  1.00  0.00     0.213 C 
HETATM    2  C6  UNL     1      31.616   9.396  48.148  1.00  0.00     0.066 C 
HETATM    3  C7  UNL     1      31.967   8.685  49.462  1.00  0.00     0.131 C 
HETATM    4  N3  UNL     1      32.783   7.510  49.099  1.00  0.00    -0.358 N 
HETATM    5  C8  UNL     1      32.570   6.157  48.989  1.00  0.00     0.103 A 
HETATM    6  C9  UNL     1      33.755   5.822  48.380  1.00  0.00    -0.008 A 
HETATM    7  C10 UNL     1      34.705   6.708  48.091  1.00  0.00     0.040 A 
HETATM    8  C11 UNL     1      33.999   7.816  48.590  1.00  0.00     0.032 A 
HETATM    9  C12 UNL     1      34.944   8.903  48.265  1.00  0.00     0.208 C 
HETATM   10  N4  UNL     1      35.233   8.952  46.850  1.00  0.00    -0.271 NA
HETATM   11  C13 UNL     1      34.413   8.877  45.866  1.00  0.00     0.099 C 
HETATM   12  C14 UNL     1      33.224   8.764  44.969  1.00  0.00     0.088 C 
HETATM   13  C15 UNL     1      32.125   9.750  45.307  1.00  0.00     0.049 C 
HETATM   14  C16 UNL     1      30.954   8.926  45.736  1.00  0.00     0.163 C 
HETATM   15  O1  UNL     1      31.148   7.715  44.989  1.00  0.00    -0.375 OA
HETATM   16  C17 UNL     1      32.486   7.422  45.166  1.00  0.00     0.157 C 
HETATM   17  C18 UNL     1      33.164   6.440  44.334  1.00  0.00     0.208 C 
HETATM   18  O2  UNL     1      32.883   5.095  44.263  1.00  0.00    -0.349 OA
HETATM   19  C19 UNL     1      32.916   4.214  45.294  1.00  0.00     0.069 A 
HETATM   20  C20 UNL     1      32.731   2.937  45.725  1.00  0.00     0.037 A 
HETATM   21  C21 UNL     1      32.868   2.398  46.981  1.00  0.00     0.004 A 
HETATM   22  C22 UNL     1      33.250   3.151  48.103  1.00  0.00     0.012 A 
HETATM   23  C23 UNL     1      33.489   4.446  47.904  1.00  0.00    -0.022 A 
HETATM   24  C24 UNL     1      33.271   4.704  46.515  1.00  0.00     0.049 A 
ENDROOT
BRANCH   1  25
HETATM   25  C4  UNL     1      29.290   9.109  47.593  1.00  0.00     0.266 C 
HETATM   26  C2  UNL     1      29.205  10.178  48.649  1.00  0.00     0.045 C 
HETATM   27  C1  UNL     1      28.317  11.355  48.258  1.00  0.00     0.014 C 
HETATM   28  C3  UNL     1      28.475   9.223  49.552  1.00  0.00     0.276 C 
HETATM   29  N1  UNL     1      28.771   8.184  48.577  1.00  0.00     0.091 N 
HETATM   30  H7  UNL     1      27.949   7.635  48.288  1.00  0.00     0.316 HD
ENDBRANCH   1  25
BRANCH   1  31
HETATM   31  N2  UNL     1      30.610   7.269  47.343  1.00  0.00     0.092 N 
HETATM   32  H9  UNL     1      30.518   6.805  46.417  1.00  0.00     0.314 HD
HETATM   33  H10 UNL     1      31.414   6.898  47.895  1.00  0.00     0.314 HD
ENDBRANCH   1  31
BRANCH  11  34
HETATM   34  N5  UNL     1      35.712   9.022  45.230  1.00  0.00    -0.387 N 
HETATM   35  H19 UNL     1      36.657   9.127  44.753  1.00  0.00     0.157 HD
HETATM   36  H20 UNL     1      36.760   9.130  45.081  1.00  0.00     0.157 HD
ENDBRANCH  11  34
TORSDOF 3
ENDMDL
MODEL 6
REMARK VINA RESULT:      -7.1      9.984     12.621
REMARK  3 active torsions:
REMARK  status: ('A' for Active; 'I' for Inactive)
REMARK    1  A    between atoms: C4_5  and  C5_6 
REMARK    2  A    between atoms: C5_6  and  N2_7 
REMARK    3  A    between atoms: C13_17  and  N5_18 
ROOT
HETATM    1  C5  UNL     1      23.358   3.277  50.946  1.00  0.00     0.213 C 
HETATM    2  C6  UNL     1      22.300   3.500  51.929  1.00  0.00     0.066 C 
HETATM    3  C7  UNL     1      21.914   4.932  52.318  1.00  0.00     0.131 C 
HETATM    4  N3  UNL     1      21.315   5.547  51.118  1.00  0.00    -0.358 N 
HETATM    5  C8  UNL     1      21.726   6.438  50.156  1.00  0.00     0.103 A 
HETATM    6  C9  UNL     1      20.672   6.287  49.288  1.00  0.00    -0.008 A 
HETATM    7  C10 UNL     1      19.644   5.475  49.519  1.00  0.00     0.040 A 
HETATM    8  C11 UNL     1      20.129   5.005  50.751  1.00  0.00     0.032 A 
HETATM    9  C12 UNL     1      19.082   4.024  51.094  1.00  0.00     0.208 C 
HETATM   10  N4  UNL     1      18.942   3.014  50.070  1.00  0.00    -0.271 NA
HETATM   11  C13 UNL     1      19.866   2.362  49.463  1.00  0.00     0.099 C 
HETATM   12  C14 UNL     1      21.149   1.789  48.956  1.00  0.00     0.088 C 
HETATM   13  C15 UNL     1      22.056   1.286  50.059  1.00  0.00     0.049 C 
HETATM   14  C16 UNL     1      23.277   2.145  50.009  1.00  0.00     0.163 C 
HETATM   15  O1  UNL     1      23.337   2.502  48.619  1.00  0.00    -0.375 OA
HETATM   16  C17 UNL     1      22.042   2.871  48.311  1.00  0.00     0.157 C 
HETATM   17  C18 UNL     1      21.602   3.018  46.933  1.00  0.00     0.208 C 
HETATM   18  O2  UNL     1      22.075   3.929  46.016  1.00  0.00    -0.349 OA
HETATM   19  C19 UNL     1      22.055   5.278  46.144  1.00  0.00     0.069 A 
HETATM   20  C20 UNL     1      22.371   6.491  45.614  1.00  0.00     0.037 A 
HETATM   21  C21 UNL     1      22.176   7.755  46.117  1.00  0.00     0.004 A 
HETATM   22  C22 UNL     1      21.574   8.003  47.361  1.00  0.00     0.012 A 
HETATM   23  C23 UNL     1      21.179   6.939  48.059  1.00  0.00    -0.022 A 
HETATM   24  C24 UNL     1      21.506   5.783  47.285  1.00  0.00     0.049 A 
ENDROOT
BRANCH   1  25
HETATM   25  C4  UNL     1      24.690   3.258  51.745  1.00  0.00     0.266 C 
HETATM   26  C2  UNL     1      25.323   1.897  51.852  1.00  0.00     0.045 C 
HETATM   27  C1  UNL     1      26.776   1.860  51.387  1.00  0.00     0.014 C 
HETATM   28  C3  UNL     1      25.234   1.976  53.351  1.00  0.00     0.276 C 
HETATM   29  N1  UNL     1      24.446   3.185  53.170  1.00  0.00     0.091 N 
HETATM   30  H7  UNL     1      24.779   3.988  53.724  1.00  0.00     0.316 HD
ENDBRANCH   1  25
BRANCH   1  31
HETATM   31  N2  UNL     1      23.676   4.443  50.085  1.00  0.00     0.092 N 
HETATM   32  H9  UNL     1      22.806   4.938  49.803  1.00  0.00     0.314 HD
HETATM   33  H10 UNL     1      24.350   5.073  50.571  1.00  0.00     0.314 HD
ENDBRANCH   1  31
BRANCH  11  34
HETATM   34  N5  UNL     1      18.635   1.852  48.882  1.00  0.00    -0.387 N 
HETATM   35  H19 UNL     1      17.729   1.475  48.470  1.00  0.00     0.157 HD
HETATM   36  H20 UNL     1      17.897   1.547  48.179  1.00  0.00     0.157 HD
ENDBRANCH  11  34
TORSDOF 3
ENDMDL
MODEL 7
REMARK VINA RESULT:      -7.0     10.899     13.869
REMARK  3 active torsions:
REMARK  status: ('A' for Active; 'I' for Inactive)
REMARK    1  A    between atoms: C4_5  and  C5_6 
REMARK    2  A    between atoms: C5_6  and  N2_7 
REMARK    3  A    between atoms: C13_17  and  N5_18 
ROOT
HETATM    1  C5  UNL     1      19.670   1.948  50.594  1.00  0.00     0.213 C 
HETATM    2  C6  UNL     1      20.835   1.071  50.685  1.00  0.00     0.066 C 
HETATM    3  C7  UNL     1      21.542   0.611  49.404  1.00  0.00     0.131 C 
HETATM    4  N3  UNL     1      22.146   1.816  48.802  1.00  0.00    -0.358 N 
HETATM    5  C8  UNL     1      21.843   2.653  47.755  1.00  0.00     0.103 A 
HETATM    6  C9  UNL     1      22.761   3.639  48.022  1.00  0.00    -0.008 A 
HETATM    7  C10 UNL     1      23.616   3.587  49.041  1.00  0.00     0.040 A 
HETATM    8  C11 UNL     1      23.156   2.351  49.527  1.00  0.00     0.032 A 
HETATM    9  C12 UNL     1      24.004   2.203  50.726  1.00  0.00     0.208 C 
HETATM   10  N4  UNL     1      23.840   3.314  51.635  1.00  0.00    -0.271 NA
HETATM   11  C13 UNL     1      22.751   3.869  52.027  1.00  0.00     0.099 C 
HETATM   12  C14 UNL     1      21.337   4.279  52.281  1.00  0.00     0.088 C 
HETATM   13  C15 UNL     1      20.448   3.128  52.703  1.00  0.00     0.049 C 
HETATM   14  C16 UNL     1      19.431   2.976  51.619  1.00  0.00     0.163 C 
HETATM   15  O1  UNL     1      19.322   4.319  51.120  1.00  0.00    -0.375 OA
HETATM   16  C17 UNL     1      20.633   4.734  50.984  1.00  0.00     0.157 C 
HETATM   17  C18 UNL     1      20.968   6.135  50.789  1.00  0.00     0.208 C 
HETATM   18  O2  UNL     1      20.614   6.919  49.715  1.00  0.00    -0.349 OA
HETATM   19  C19 UNL     1      20.923   6.686  48.416  1.00  0.00     0.069 A 
HETATM   20  C20 UNL     1      20.820   7.080  47.118  1.00  0.00     0.037 A 
HETATM   21  C21 UNL     1      21.315   6.500  45.975  1.00  0.00     0.004 A 
HETATM   22  C22 UNL     1      22.065   5.312  45.978  1.00  0.00     0.012 A 
HETATM   23  C23 UNL     1      22.293   4.750  47.163  1.00  0.00    -0.022 A 
HETATM   24  C24 UNL     1      21.665   5.574  48.147  1.00  0.00     0.049 A 
ENDROOT
BRANCH   1  25
HETATM   25  C4  UNL     1      18.440   1.014  50.430  1.00  0.00     0.266 C 
HETATM   26  C2  UNL     1      17.241   1.430  51.237  1.00  0.00     0.045 C 
HETATM   27  C1  UNL     1      15.967   1.578  50.409  1.00  0.00     0.014 C 
HETATM   28  C3  UNL     1      17.270   0.110  51.957  1.00  0.00     0.276 C 
HETATM   29  N1  UNL     1      18.540  -0.143  51.294  1.00  0.00     0.091 N 
HETATM   30  H7  UNL     1      18.590  -1.056  50.819  1.00  0.00     0.316 HD
ENDBRANCH   1  25
BRANCH   1  31
HETATM   31  N2  UNL     1      19.525   2.673  49.308  1.00  0.00     0.092 N 
HETATM   32  H9  UNL     1      18.521   2.765  49.050  1.00  0.00     0.314 HD
HETATM   33  H10 UNL     1      20.005   3.598  49.362  1.00  0.00     0.314 HD
ENDBRANCH   1  31
BRANCH  11  34
HETATM   34  N5  UNL     1      23.793   4.618  52.709  1.00  0.00    -0.387 N 
HETATM   35  H19 UNL     1      24.559   5.173  53.197  1.00  0.00     0.157 HD
HETATM   36  H20 UNL     1      24.437   4.997  53.466  1.00  0.00     0.157 HD
ENDBRANCH  11  34
TORSDOF 3
ENDMDL
MODEL 8
REMARK VINA RESULT:      -7.0     23.210     25.693
REMARK  3 active torsions:
REMARK  status: ('A' for Active; 'I' for Inactive)
REMARK    1  A    between atoms: C4_5  and  C5_6 
REMARK    2  A    between atoms: C5_6  and  N2_7 
REMARK    3  A    between atoms: C13_17  and  N5_18 
ROOT
HETATM    1  C5  UNL     1      41.768  -0.289  68.998  1.00  0.00     0.213 C 
HETATM    2  C6  UNL     1      42.267  -1.657  68.874  1.00  0.00     0.066 C 
HETATM    3  C7  UNL     1      42.289  -2.572  70.105  1.00  0.00     0.131 C 
HETATM    4  N3  UNL     1      40.881  -2.820  70.470  1.00  0.00    -0.358 N 
HETATM    5  C8  UNL     1      40.016  -2.358  71.432  1.00  0.00     0.103 A 
HETATM    6  C9  UNL     1      38.858  -2.902  70.930  1.00  0.00    -0.008 A 
HETATM    7  C10 UNL     1      38.818  -3.646  69.828  1.00  0.00     0.040 A 
HETATM    8  C11 UNL     1      40.195  -3.554  69.563  1.00  0.00     0.032 A 
HETATM    9  C12 UNL     1      40.274  -4.307  68.296  1.00  0.00     0.208 C 
HETATM   10  N4  UNL     1      39.419  -3.735  67.282  1.00  0.00    -0.271 NA
HETATM   11  C13 UNL     1      39.278  -2.500  66.962  1.00  0.00     0.099 C 
HETATM   12  C14 UNL     1      39.348  -1.014  66.836  1.00  0.00     0.088 C 
HETATM   13  C15 UNL     1      40.761  -0.493  66.676  1.00  0.00     0.049 C 
HETATM   14  C16 UNL     1      41.031   0.337  67.889  1.00  0.00     0.163 C 
HETATM   15  O1  UNL     1      39.719   0.815  68.224  1.00  0.00    -0.375 OA
HETATM   16  C17 UNL     1      38.921  -0.309  68.142  1.00  0.00     0.157 C 
HETATM   17  C18 UNL     1      37.471  -0.210  68.115  1.00  0.00     0.208 C 
HETATM   18  O2  UNL     1      36.666   0.282  69.117  1.00  0.00    -0.349 OA
HETATM   19  C19 UNL     1      36.589  -0.187  70.386  1.00  0.00     0.069 A 
HETATM   20  C20 UNL     1      36.043  -0.071  71.628  1.00  0.00     0.037 A 
HETATM   21  C21 UNL     1      36.263  -0.812  72.764  1.00  0.00     0.004 A 
HETATM   22  C22 UNL     1      37.162  -1.889  72.818  1.00  0.00     0.012 A 
HETATM   23  C23 UNL     1      37.813  -2.184  71.694  1.00  0.00    -0.022 A 
HETATM   24  C24 UNL     1      37.376  -1.256  70.699  1.00  0.00     0.049 A 
ENDROOT
BRANCH   1  25
HETATM   25  C4  UNL     1      42.985   0.574  69.430  1.00  0.00     0.266 C 
HETATM   26  C2  UNL     1      42.868   2.028  69.060  1.00  0.00     0.045 C 
HETATM   27  C1  UNL     1      43.061   2.977  70.240  1.00  0.00     0.014 C 
HETATM   28  C3  UNL     1      44.125   1.917  68.241  1.00  0.00     0.276 C 
HETATM   29  N1  UNL     1      44.063   0.482  68.469  1.00  0.00     0.091 N 
HETATM   30  H7  UNL     1      44.942   0.075  68.820  1.00  0.00     0.316 HD
ENDBRANCH   1  25
BRANCH   1  31
HETATM   31  N2  UNL     1      40.924  -0.030  70.190  1.00  0.00     0.092 N 
HETATM   32  H9  UNL     1      40.687   0.980  70.260  1.00  0.00     0.314 HD
HETATM   33  H10 UNL     1      40.074  -0.636  70.165  1.00  0.00     0.314 HD
ENDBRANCH   1  31
BRANCH  11  34
HETATM   34  N5  UNL     1      38.374  -3.201  66.066  1.00  0.00    -0.387 N 
HETATM   35  H19 UNL     1      37.722  -3.721  65.405  1.00  0.00     0.157 HD
HETATM   36  H20 UNL     1      37.496  -3.507  65.549  1.00  0.00     0.157 HD
ENDBRANCH  11  34
TORSDOF 3
ENDMDL
MODEL 9
REMARK VINA RESULT:      -6.8      7.815     11.656
REMARK  3 active torsions:
REMARK  status: ('A' for Active; 'I' for Inactive)
REMARK    1  A    between atoms: C4_5  and  C5_6 
REMARK    2  A    between atoms: C5_6  and  N2_7 
REMARK    3  A    between atoms: C13_17  and  N5_18 
ROOT
HETATM    1  C5  UNL     1      24.137   6.848  48.326  1.00  0.00     0.213 C 
HETATM    2  C6  UNL     1      23.359   7.311  47.180  1.00  0.00     0.066 C 
HETATM    3  C7  UNL     1      23.018   6.334  46.048  1.00  0.00     0.131 C 
HETATM    4  N3  UNL     1      22.101   5.330  46.622  1.00  0.00    -0.358 N 
HETATM    5  C8  UNL     1      22.207   4.031  47.056  1.00  0.00     0.103 A 
HETATM    6  C9  UNL     1      20.973   3.922  47.650  1.00  0.00    -0.008 A 
HETATM    7  C10 UNL     1      20.080   4.908  47.666  1.00  0.00     0.040 A 
HETATM    8  C11 UNL     1      20.888   5.822  46.969  1.00  0.00     0.032 A 
HETATM    9  C12 UNL     1      20.013   7.010  46.973  1.00  0.00     0.208 C 
HETATM   10  N4  UNL     1      19.662   7.409  48.317  1.00  0.00    -0.271 NA
HETATM   11  C13 UNL     1      20.429   7.518  49.341  1.00  0.00     0.099 C 
HETATM   12  C14 UNL     1      21.563   7.547  50.312  1.00  0.00     0.088 C 
HETATM   13  C15 UNL     1      22.747   8.355  49.824  1.00  0.00     0.049 C 
HETATM   14  C16 UNL     1      23.872   7.384  49.671  1.00  0.00     0.163 C 
HETATM   15  O1  UNL     1      23.554   6.397  50.666  1.00  0.00    -0.375 OA
HETATM   16  C17 UNL     1      22.207   6.153  50.479  1.00  0.00     0.157 C 
HETATM   17  C18 UNL     1      21.421   5.439  51.471  1.00  0.00     0.208 C 
HETATM   18  O2  UNL     1      21.597   4.134  51.870  1.00  0.00    -0.349 OA
HETATM   19  C19 UNL     1      21.546   3.039  51.072  1.00  0.00     0.069 A 
HETATM   20  C20 UNL     1      21.656   1.687  50.961  1.00  0.00     0.037 A 
HETATM   21  C21 UNL     1      21.537   0.876  49.858  1.00  0.00     0.004 A 
HETATM   22  C22 UNL     1      21.265   1.366  48.570  1.00  0.00     0.012 A 
HETATM   23  C23 UNL     1      21.114   2.683  48.448  1.00  0.00    -0.022 A 
HETATM   24  C24 UNL     1      21.286   3.248  49.750  1.00  0.00     0.049 A 
ENDROOT
BRANCH   1  25
HETATM   25  C4  UNL     1      25.629   7.021  47.931  1.00  0.00     0.266 C 
HETATM   26  C2  UNL     1      26.601   6.557  48.982  1.00  0.00     0.045 C 
HETATM   27  C1  UNL     1      27.629   5.554  48.465  1.00  0.00     0.014 C 
HETATM   28  C3  UNL     1      27.182   7.943  49.053  1.00  0.00     0.276 C 
HETATM   29  N1  UNL     1      26.089   8.368  48.192  1.00  0.00     0.091 N 
HETATM   30  H7  UNL     1      26.391   8.908  47.368  1.00  0.00     0.316 HD
ENDBRANCH   1  25
BRANCH   1  31
HETATM   31  N2  UNL     1      24.166   5.377  48.517  1.00  0.00     0.092 N 
HETATM   32  H9  UNL     1      24.391   4.895  47.624  1.00  0.00     0.314 HD
HETATM   33  H10 UNL     1      24.834   5.128  49.280  1.00  0.00     0.314 HD
ENDBRANCH   1  31
BRANCH  11  34
HETATM   34  N5  UNL     1      19.116   7.888  49.843  1.00  0.00    -0.387 N 
HETATM   35  H19 UNL     1      18.161   8.167  50.220  1.00  0.00     0.157 HD
HETATM   36  H20 UNL     1      18.062   7.944  49.978  1.00  0.00     0.157 HD
ENDBRANCH  11  34
TORSDOF 3
ENDMDL
