MODEL 1
REMARK VINA RESULT:      -9.0      0.000      0.000
REMARK  2 active torsions:
REMARK  status: ('A' for Active; 'I' for Inactive)
REMARK    1  A    between atoms: N2_11  and  C9_12 
REMARK    2  A    between atoms: C10_14  and  C11_15 
ROOT
HETATM    1  C1  UNL     1      26.761   0.099  51.894  1.00  0.00     0.051 C 
HETATM    2  C2  UNL     1      25.772   1.200  52.169  1.00  0.00    -0.027 A 
HETATM    3  C3  UNL     1      24.682   1.231  52.925  1.00  0.00     0.019 A 
HETATM    4  C4  UNL     1      24.369   2.645  52.603  1.00  0.00    -0.020 A 
HETATM    5  C5  UNL     1      25.448   2.614  51.855  1.00  0.00     0.084 A 
HETATM    6  O1  UNL     1      26.101   3.541  51.039  1.00  0.00    -0.323 OA
HETATM    7  C6  UNL     1      26.189   3.394  49.636  1.00  0.00     0.261 C 
HETATM    8  C7  UNL     1      24.733   3.560  49.144  1.00  0.00     0.117 C 
HETATM    9  C8  UNL     1      24.550   4.901  49.821  1.00  0.00     0.059 C 
HETATM   10  N1  UNL     1      25.519   5.453  49.195  1.00  0.00    -0.172 NA
HETATM   11  N2  UNL     1      26.665   4.660  49.111  1.00  0.00    -0.215 N 
HETATM   12  C18 UNL     1      23.564   5.275  50.827  1.00  0.00     0.025 C 
HETATM   13  C19 UNL     1      23.193   4.729  51.973  1.00  0.00    -0.020 C 
HETATM   14  C20 UNL     1      23.359   3.658  52.931  1.00  0.00     0.068 C 
ENDROOT
BRANCH  11  15
HETATM   15  C9  UNL     1      27.942   5.116  48.607  1.00  0.00     0.192 A 
HETATM   16  N3  UNL     1      28.990   4.781  48.276  1.00  0.00    -0.222 NA
HETATM   17  C10 UNL     1      29.970   5.548  47.840  1.00  0.00     0.076 A 
HETATM   18  C17 UNL     1      29.699   6.934  47.774  1.00  0.00     0.086 A 
HETATM   19  S1  UNL     1      28.005   6.999  48.365  1.00  0.00    -0.060 SA
BRANCH  17  20
HETATM   20  C11 UNL     1      31.275   5.027  47.439  1.00  0.00    -0.007 A 
HETATM   21  C12 UNL     1      32.459   5.722  47.502  1.00  0.00     0.015 A 
HETATM   22  C13 UNL     1      33.687   5.226  47.122  1.00  0.00     0.024 A 
HETATM   23  C14 UNL     1      33.768   3.946  46.637  1.00  0.00     0.034 A 
HETATM   24 CL1  UNL     1      35.343   3.356  46.166  1.00  0.00    -0.084 Cl
HETATM   25  C15 UNL     1      32.616   3.197  46.549  1.00  0.00     0.024 A 
HETATM   26  C16 UNL     1      31.439   3.749  46.942  1.00  0.00     0.015 A 
ENDBRANCH  17  20
ENDBRANCH  11  15
TORSDOF 2
ENDMDL
MODEL 2
REMARK VINA RESULT:      -9.0      3.106      4.583
REMARK  2 active torsions:
REMARK  status: ('A' for Active; 'I' for Inactive)
REMARK    1  A    between atoms: N2_11  and  C9_12 
REMARK    2  A    between atoms: C10_14  and  C11_15 
ROOT
HETATM    1  C1  UNL     1      25.651  -0.639  53.096  1.00  0.00     0.051 C 
HETATM    2  C2  UNL     1      24.223  -0.271  53.402  1.00  0.00    -0.027 A 
HETATM    3  C3  UNL     1      23.322  -0.838  54.192  1.00  0.00     0.019 A 
HETATM    4  C4  UNL     1      22.265   0.155  53.878  1.00  0.00    -0.020 A 
HETATM    5  C5  UNL     1      23.158   0.716  53.096  1.00  0.00     0.084 A 
HETATM    6  O1  UNL     1      23.162   1.833  52.258  1.00  0.00    -0.323 OA
HETATM    7  C6  UNL     1      23.279   1.733  50.853  1.00  0.00     0.261 C 
HETATM    8  C7  UNL     1      21.967   1.050  50.408  1.00  0.00     0.117 C 
HETATM    9  C8  UNL     1      21.084   2.074  51.089  1.00  0.00     0.059 C 
HETATM   10  N1  UNL     1      21.564   3.061  50.431  1.00  0.00    -0.172 NA
HETATM   11  N2  UNL     1      22.955   3.039  50.312  1.00  0.00    -0.215 N 
HETATM   12  C18 UNL     1      20.084   1.855  52.126  1.00  0.00     0.025 C 
HETATM   13  C19 UNL     1      20.111   1.217  53.284  1.00  0.00    -0.020 C 
HETATM   14  C20 UNL     1      20.871   0.439  54.238  1.00  0.00     0.068 C 
ENDROOT
BRANCH  11  15
HETATM   15  C9  UNL     1      23.747   4.120  49.765  1.00  0.00     0.192 A 
HETATM   16  N3  UNL     1      24.800   4.429  49.428  1.00  0.00    -0.222 NA
HETATM   17  C10 UNL     1      25.171   5.598  48.944  1.00  0.00     0.076 A 
HETATM   18  C17 UNL     1      24.158   6.577  48.828  1.00  0.00     0.086 A 
HETATM   19  S1  UNL     1      22.725   5.690  49.448  1.00  0.00    -0.060 SA
BRANCH  17  20
HETATM   20  C11 UNL     1      26.542   5.898  48.539  1.00  0.00    -0.007 A 
HETATM   21  C12 UNL     1      27.602   5.028  48.626  1.00  0.00     0.015 A 
HETATM   22  C13 UNL     1      28.893   5.316  48.243  1.00  0.00     0.024 A 
HETATM   23  C14 UNL     1      29.178   6.558  47.734  1.00  0.00     0.034 A 
HETATM   24 CL1  UNL     1      30.827   6.882  47.261  1.00  0.00    -0.084 Cl
HETATM   25  C15 UNL     1      28.158   7.475  47.621  1.00  0.00     0.024 A 
HETATM   26  C16 UNL     1      26.908   7.124  48.018  1.00  0.00     0.015 A 
ENDBRANCH  17  20
ENDBRANCH  11  15
TORSDOF 2
ENDMDL
MODEL 3
REMARK VINA RESULT:      -8.9      3.665      9.040
REMARK  2 active torsions:
REMARK  status: ('A' for Active; 'I' for Inactive)
REMARK    1  A    between atoms: N2_11  and  C9_12 
REMARK    2  A    between atoms: C10_14  and  C11_15 
ROOT
HETATM    1  C1  UNL     1      32.144  10.614  46.575  1.00  0.00     0.051 C 
HETATM    2  C2  UNL     1      33.058   9.569  47.158  1.00  0.00    -0.027 A 
HETATM    3  C3  UNL     1      34.376   9.539  47.302  1.00  0.00     0.019 A 
HETATM    4  C4  UNL     1      34.384   8.196  47.933  1.00  0.00    -0.020 A 
HETATM    5  C5  UNL     1      33.078   8.226  47.790  1.00  0.00     0.084 A 
HETATM    6  O1  UNL     1      32.039   7.347  48.100  1.00  0.00    -0.323 OA
HETATM    7  C6  UNL     1      31.253   6.715  47.110  1.00  0.00     0.261 C 
HETATM    8  C7  UNL     1      32.234   5.754  46.401  1.00  0.00     0.117 C 
HETATM    9  C8  UNL     1      32.649   5.067  47.684  1.00  0.00     0.059 C 
HETATM   10  N1  UNL     1      31.461   4.692  47.975  1.00  0.00    -0.172 NA
HETATM   11  N2  UNL     1      30.491   5.677  47.779  1.00  0.00    -0.215 N 
HETATM   12  C18 UNL     1      33.984   4.964  48.259  1.00  0.00     0.025 C 
HETATM   13  C19 UNL     1      34.926   5.854  48.518  1.00  0.00    -0.020 C 
HETATM   14  C20 UNL     1      35.349   7.237  48.485  1.00  0.00     0.068 C 
ENDROOT
BRANCH  11  15
HETATM   15  C9  UNL     1      29.109   5.560  48.191  1.00  0.00     0.192 A 
HETATM   16  N3  UNL     1      28.340   4.873  48.696  1.00  0.00    -0.222 NA
HETATM   17  C10 UNL     1      27.065   5.130  48.913  1.00  0.00     0.076 A 
HETATM   18  C17 UNL     1      26.596   6.389  48.474  1.00  0.00     0.086 A 
HETATM   19  S1  UNL     1      28.085   7.103  47.768  1.00  0.00    -0.060 SA
BRANCH  17  20
HETATM   20  C11 UNL     1      26.160   4.189  49.569  1.00  0.00    -0.007 A 
HETATM   21  C12 UNL     1      26.536   3.231  50.480  1.00  0.00     0.015 A 
HETATM   22  C13 UNL     1      25.679   2.347  51.095  1.00  0.00     0.024 A 
HETATM   23  C14 UNL     1      24.341   2.397  50.797  1.00  0.00     0.034 A 
HETATM   24 CL1  UNL     1      23.288   1.257  51.599  1.00  0.00    -0.084 Cl
HETATM   25  C15 UNL     1      23.900   3.335  49.892  1.00  0.00     0.024 A 
HETATM   26  C16 UNL     1      24.800   4.177  49.323  1.00  0.00     0.015 A 
ENDBRANCH  17  20
ENDBRANCH  11  15
TORSDOF 2
ENDMDL
MODEL 4
REMARK VINA RESULT:      -8.5      6.821     11.031
REMARK  2 active torsions:
REMARK  status: ('A' for Active; 'I' for Inactive)
REMARK    1  A    between atoms: N2_11  and  C9_12 
REMARK    2  A    between atoms: C10_14  and  C11_15 
ROOT
HETATM    1  C1  UNL     1      25.715  -0.397  53.984  1.00  0.00     0.051 C 
HETATM    2  C2  UNL     1      25.919   0.568  52.846  1.00  0.00    -0.027 A 
HETATM    3  C3  UNL     1      27.024   1.055  52.298  1.00  0.00     0.019 A 
HETATM    4  C4  UNL     1      26.295   1.881  51.304  1.00  0.00    -0.020 A 
HETATM    5  C5  UNL     1      25.200   1.398  51.847  1.00  0.00     0.084 A 
HETATM    6  O1  UNL     1      23.834   1.567  51.614  1.00  0.00    -0.323 OA
HETATM    7  C6  UNL     1      22.972   2.189  52.545  1.00  0.00     0.261 C 
HETATM    8  C7  UNL     1      23.439   3.662  52.571  1.00  0.00     0.117 C 
HETATM    9  C8  UNL     1      23.299   3.840  51.074  1.00  0.00     0.059 C 
HETATM   10  N1  UNL     1      22.054   3.548  51.064  1.00  0.00    -0.172 NA
HETATM   11  N2  UNL     1      21.723   2.445  51.853  1.00  0.00    -0.215 N 
HETATM   12  C18 UNL     1      24.328   4.210  50.111  1.00  0.00     0.025 C 
HETATM   13  C19 UNL     1      25.544   3.751  49.869  1.00  0.00    -0.020 C 
HETATM   14  C20 UNL     1      26.589   2.809  50.206  1.00  0.00     0.068 C 
ENDROOT
BRANCH  11  15
HETATM   15  C9  UNL     1      20.420   1.815  51.876  1.00  0.00     0.192 A 
HETATM   16  N3  UNL     1      19.848   0.863  52.166  1.00  0.00    -0.222 NA
HETATM   17  C10 UNL     1      18.556   0.636  52.024  1.00  0.00     0.076 A 
HETATM   18  C17 UNL     1      17.796   1.681  51.452  1.00  0.00     0.086 A 
HETATM   19  S1  UNL     1      19.055   2.929  51.165  1.00  0.00    -0.060 SA
BRANCH  17  20
HETATM   20  C11 UNL     1      17.915  -0.613  52.426  1.00  0.00    -0.007 A 
HETATM   21  C12 UNL     1      16.693  -1.056  51.981  1.00  0.00     0.015 A 
HETATM   22  C13 UNL     1      16.092  -2.235  52.363  1.00  0.00     0.024 A 
HETATM   23  C14 UNL     1      16.736  -3.052  53.258  1.00  0.00     0.034 A 
HETATM   24 CL1  UNL     1      15.940  -4.538  53.717  1.00  0.00    -0.084 Cl
HETATM   25  C15 UNL     1      17.965  -2.665  53.741  1.00  0.00     0.024 A 
HETATM   26  C16 UNL     1      18.498  -1.489  53.321  1.00  0.00     0.015 A 
ENDBRANCH  17  20
ENDBRANCH  11  15
TORSDOF 2
ENDMDL
MODEL 5
REMARK VINA RESULT:      -8.5      3.849      5.309
REMARK  2 active torsions:
REMARK  status: ('A' for Active; 'I' for Inactive)
REMARK    1  A    between atoms: N2_11  and  C9_12 
REMARK    2  A    between atoms: C10_14  and  C11_15 
ROOT
HETATM    1  C1  UNL     1      26.799  -0.334  52.901  1.00  0.00     0.051 C 
HETATM    2  C2  UNL     1      25.383  -0.309  53.415  1.00  0.00    -0.027 A 
HETATM    3  C3  UNL     1      24.705  -1.176  54.155  1.00  0.00     0.019 A 
HETATM    4  C4  UNL     1      23.463  -0.363  54.159  1.00  0.00    -0.020 A 
HETATM    5  C5  UNL     1      24.136   0.495  53.427  1.00  0.00     0.084 A 
HETATM    6  O1  UNL     1      23.839   1.729  52.843  1.00  0.00    -0.323 OA
HETATM    7  C6  UNL     1      23.783   1.917  51.443  1.00  0.00     0.261 C 
HETATM    8  C7  UNL     1      22.556   1.090  50.997  1.00  0.00     0.117 C 
HETATM    9  C8  UNL     1      21.613   1.781  51.959  1.00  0.00     0.059 C 
HETATM   10  N1  UNL     1      21.828   2.946  51.476  1.00  0.00    -0.172 NA
HETATM   11  N2  UNL     1      23.174   3.214  51.219  1.00  0.00    -0.215 N 
HETATM   12  C18 UNL     1      20.813   1.185  53.021  1.00  0.00     0.025 C 
HETATM   13  C19 UNL     1      21.101   0.359  54.013  1.00  0.00    -0.020 C 
HETATM   14  C20 UNL     1      22.102  -0.423  54.705  1.00  0.00     0.068 C 
ENDROOT
BRANCH  11  15
HETATM   15  C9  UNL     1      23.692   4.509  50.834  1.00  0.00     0.192 A 
HETATM   16  N3  UNL     1      24.616   5.067  50.442  1.00  0.00    -0.222 NA
HETATM   17  C10 UNL     1      24.721   6.357  50.192  1.00  0.00     0.076 A 
HETATM   18  C17 UNL     1      23.569   7.138  50.437  1.00  0.00     0.086 A 
HETATM   19  S1  UNL     1      22.409   5.898  51.021  1.00  0.00    -0.060 SA
BRANCH  17  20
HETATM   20  C11 UNL     1      25.945   6.978  49.690  1.00  0.00    -0.007 A 
HETATM   21  C12 UNL     1      26.775   6.436  48.739  1.00  0.00     0.015 A 
HETATM   22  C13 UNL     1      27.928   7.025  48.269  1.00  0.00     0.024 A 
HETATM   23  C14 UNL     1      28.306   8.245  48.768  1.00  0.00     0.034 A 
HETATM   24 CL1  UNL     1      29.774   8.957  48.146  1.00  0.00    -0.084 Cl
HETATM   25  C15 UNL     1      27.515   8.842  49.724  1.00  0.00     0.024 A 
HETATM   26  C16 UNL     1      26.391   8.204  50.142  1.00  0.00     0.015 A 
ENDBRANCH  17  20
ENDBRANCH  11  15
TORSDOF 2
ENDMDL
MODEL 6
REMARK VINA RESULT:      -8.4      2.728      4.645
REMARK  2 active torsions:
REMARK  status: ('A' for Active; 'I' for Inactive)
REMARK    1  A    between atoms: N2_11  and  C9_12 
REMARK    2  A    between atoms: C10_14  and  C11_15 
ROOT
HETATM    1  C1  UNL     1      19.583   2.705  51.925  1.00  0.00     0.051 C 
HETATM    2  C2  UNL     1      20.585   1.632  52.261  1.00  0.00    -0.027 A 
HETATM    3  C3  UNL     1      20.445   0.465  52.875  1.00  0.00     0.019 A 
HETATM    4  C4  UNL     1      21.883   0.113  52.763  1.00  0.00    -0.020 A 
HETATM    5  C5  UNL     1      22.020   1.270  52.154  1.00  0.00     0.084 A 
HETATM    6  O1  UNL     1      23.097   1.959  51.593  1.00  0.00    -0.323 OA
HETATM    7  C6  UNL     1      23.586   3.173  52.124  1.00  0.00     0.261 C 
HETATM    8  C7  UNL     1      24.187   2.777  53.491  1.00  0.00     0.117 C 
HETATM    9  C8  UNL     1      25.089   1.714  52.901  1.00  0.00     0.059 C 
HETATM   10  N1  UNL     1      25.700   2.532  52.130  1.00  0.00    -0.172 NA
HETATM   11  N2  UNL     1      24.858   3.432  51.476  1.00  0.00    -0.215 N 
HETATM   12  C18 UNL     1      25.121   0.290  53.205  1.00  0.00     0.025 C 
HETATM   13  C19 UNL     1      24.186  -0.642  53.263  1.00  0.00    -0.020 C 
HETATM   14  C20 UNL     1      22.786  -0.985  53.127  1.00  0.00     0.068 C 
ENDROOT
BRANCH  11  15
HETATM   15  C9  UNL     1      25.281   4.339  50.430  1.00  0.00     0.192 A 
HETATM   16  N3  UNL     1      26.192   4.789  49.896  1.00  0.00    -0.222 NA
HETATM   17  C10 UNL     1      26.185   5.658  48.904  1.00  0.00     0.076 A 
HETATM   18  C17 UNL     1      24.915   6.079  48.450  1.00  0.00     0.086 A 
HETATM   19  S1  UNL     1      23.819   5.154  49.531  1.00  0.00    -0.060 SA
BRANCH  17  20
HETATM   20  C11 UNL     1      27.403   6.174  48.284  1.00  0.00    -0.007 A 
HETATM   21  C12 UNL     1      27.492   7.341  47.563  1.00  0.00     0.015 A 
HETATM   22  C13 UNL     1      28.643   7.823  46.980  1.00  0.00     0.024 A 
HETATM   23  C14 UNL     1      29.807   7.109  47.110  1.00  0.00     0.034 A 
HETATM   24 CL1  UNL     1      31.243   7.756  46.356  1.00  0.00    -0.084 Cl
HETATM   25  C15 UNL     1      29.783   5.931  47.822  1.00  0.00     0.024 A 
HETATM   26  C16 UNL     1      28.613   5.514  48.370  1.00  0.00     0.015 A 
ENDBRANCH  17  20
ENDBRANCH  11  15
TORSDOF 2
ENDMDL
MODEL 7
REMARK VINA RESULT:      -8.2      4.266      7.238
REMARK  2 active torsions:
REMARK  status: ('A' for Active; 'I' for Inactive)
REMARK    1  A    between atoms: N2_11  and  C9_12 
REMARK    2  A    between atoms: C10_14  and  C11_15 
ROOT
HETATM    1  C1  UNL     1      27.835   7.073  48.130  1.00  0.00     0.051 C 
HETATM    2  C2  UNL     1      26.374   7.338  47.876  1.00  0.00    -0.027 A 
HETATM    3  C3  UNL     1      25.767   8.227  47.103  1.00  0.00     0.019 A 
HETATM    4  C4  UNL     1      24.402   7.771  47.469  1.00  0.00    -0.020 A 
HETATM    5  C5  UNL     1      25.005   6.891  48.235  1.00  0.00     0.084 A 
HETATM    6  O1  UNL     1      24.570   5.880  49.095  1.00  0.00    -0.323 OA
HETATM    7  C6  UNL     1      24.770   5.929  50.493  1.00  0.00     0.261 C 
HETATM    8  C7  UNL     1      23.883   7.103  50.965  1.00  0.00     0.117 C 
HETATM    9  C8  UNL     1      22.627   6.540  50.332  1.00  0.00     0.059 C 
HETATM   10  N1  UNL     1      22.673   5.447  50.995  1.00  0.00    -0.172 NA
HETATM   11  N2  UNL     1      23.948   4.883  51.071  1.00  0.00    -0.215 N 
HETATM   12  C18 UNL     1      21.775   7.154  49.322  1.00  0.00     0.025 C 
HETATM   13  C19 UNL     1      22.024   7.715  48.151  1.00  0.00    -0.020 C 
HETATM   14  C20 UNL     1      23.005   8.097  47.158  1.00  0.00     0.068 C 
ENDROOT
BRANCH  11  15
HETATM   15  C9  UNL     1      24.233   3.572  51.614  1.00  0.00     0.192 A 
HETATM   16  N3  UNL     1      25.067   2.820  51.851  1.00  0.00    -0.222 NA
HETATM   17  C10 UNL     1      24.932   1.624  52.390  1.00  0.00     0.076 A 
HETATM   18  C17 UNL     1      23.614   1.228  52.712  1.00  0.00     0.086 A 
HETATM   19  S1  UNL     1      22.667   2.661  52.188  1.00  0.00    -0.060 SA
BRANCH  17  20
HETATM   20  C11 UNL     1      26.060   0.735  52.656  1.00  0.00    -0.007 A 
HETATM   21  C12 UNL     1      26.054  -0.628  52.479  1.00  0.00     0.015 A 
HETATM   22  C13 UNL     1      27.120  -1.462  52.732  1.00  0.00     0.024 A 
HETATM   23  C14 UNL     1      28.293  -0.924  53.197  1.00  0.00     0.034 A 
HETATM   24 CL1  UNL     1      29.620  -2.017  53.505  1.00  0.00    -0.084 Cl
HETATM   25  C15 UNL     1      28.364   0.436  53.395  1.00  0.00     0.024 A 
HETATM   26  C16 UNL     1      27.274   1.199  53.125  1.00  0.00     0.015 A 
ENDBRANCH  17  20
ENDBRANCH  11  15
TORSDOF 2
ENDMDL
MODEL 8
REMARK VINA RESULT:      -8.2      7.461      9.213
REMARK  2 active torsions:
REMARK  status: ('A' for Active; 'I' for Inactive)
REMARK    1  A    between atoms: N2_11  and  C9_12 
REMARK    2  A    between atoms: C10_14  and  C11_15 
ROOT
HETATM    1  C1  UNL     1      16.389  -2.606  52.448  1.00  0.00     0.051 C 
HETATM    2  C2  UNL     1      16.303  -1.113  52.266  1.00  0.00    -0.027 A 
HETATM    3  C3  UNL     1      15.281  -0.325  51.963  1.00  0.00     0.019 A 
HETATM    4  C4  UNL     1      16.091   0.918  51.996  1.00  0.00    -0.020 A 
HETATM    5  C5  UNL     1      17.103   0.136  52.297  1.00  0.00     0.084 A 
HETATM    6  O1  UNL     1      18.458   0.347  52.559  1.00  0.00    -0.323 OA
HETATM    7  C6  UNL     1      19.483  -0.123  51.707  1.00  0.00     0.261 C 
HETATM    8  C7  UNL     1      19.313   0.706  50.414  1.00  0.00     0.117 C 
HETATM    9  C8  UNL     1      19.388   2.035  51.135  1.00  0.00     0.059 C 
HETATM   10  N1  UNL     1      20.550   1.810  51.621  1.00  0.00    -0.172 NA
HETATM   11  N2  UNL     1      20.711   0.522  52.133  1.00  0.00    -0.215 N 
HETATM   12  C18 UNL     1      18.390   3.096  51.173  1.00  0.00     0.025 C 
HETATM   13  C19 UNL     1      17.095   3.109  51.439  1.00  0.00    -0.020 C 
HETATM   14  C20 UNL     1      15.912   2.362  51.804  1.00  0.00     0.068 C 
ENDROOT
BRANCH  11  15
HETATM   15  C9  UNL     1      21.865   0.077  52.883  1.00  0.00     0.192 A 
HETATM   16  N3  UNL     1      23.013   0.053  52.905  1.00  0.00    -0.222 NA
HETATM   17  C10 UNL     1      23.781  -0.490  53.830  1.00  0.00     0.076 A 
HETATM   18  C17 UNL     1      23.115  -1.111  54.911  1.00  0.00     0.086 A 
HETATM   19  S1  UNL     1      21.393  -0.844  54.477  1.00  0.00    -0.060 SA
BRANCH  17  20
HETATM   20  C11 UNL     1      25.240  -0.468  53.771  1.00  0.00    -0.007 A 
HETATM   21  C12 UNL     1      26.003  -1.038  52.780  1.00  0.00     0.015 A 
HETATM   22  C13 UNL     1      27.379  -1.014  52.729  1.00  0.00     0.024 A 
HETATM   23  C14 UNL     1      28.073  -0.384  53.731  1.00  0.00     0.034 A 
HETATM   24 CL1  UNL     1      29.816  -0.378  53.630  1.00  0.00    -0.084 Cl
HETATM   25  C15 UNL     1      27.366   0.206  54.754  1.00  0.00     0.024 A 
HETATM   26  C16 UNL     1      26.010   0.145  54.741  1.00  0.00     0.015 A 
ENDBRANCH  17  20
ENDBRANCH  11  15
TORSDOF 2
ENDMDL
MODEL 9
REMARK VINA RESULT:      -8.1      5.757      7.109
REMARK  2 active torsions:
REMARK  status: ('A' for Active; 'I' for Inactive)
REMARK    1  A    between atoms: N2_11  and  C9_12 
REMARK    2  A    between atoms: C10_14  and  C11_15 
ROOT
HETATM    1  C1  UNL     1      20.825   0.273  54.172  1.00  0.00     0.051 C 
HETATM    2  C2  UNL     1      22.261  -0.047  53.849  1.00  0.00    -0.027 A 
HETATM    3  C3  UNL     1      23.096  -0.940  54.363  1.00  0.00     0.019 A 
HETATM    4  C4  UNL     1      24.222  -0.554  53.477  1.00  0.00    -0.020 A 
HETATM    5  C5  UNL     1      23.394   0.330  52.968  1.00  0.00     0.084 A 
HETATM    6  O1  UNL     1      23.489   1.296  51.965  1.00  0.00    -0.323 OA
HETATM    7  C6  UNL     1      23.416   2.682  52.232  1.00  0.00     0.261 C 
HETATM    8  C7  UNL     1      24.701   2.983  53.036  1.00  0.00     0.117 C 
HETATM    9  C8  UNL     1      25.619   2.394  51.986  1.00  0.00     0.059 C 
HETATM   10  N1  UNL     1      25.223   3.187  51.064  1.00  0.00    -0.172 NA
HETATM   11  N2  UNL     1      23.839   3.364  51.023  1.00  0.00    -0.215 N 
HETATM   12  C18 UNL     1      26.564   1.295  52.131  1.00  0.00     0.025 C 
HETATM   13  C19 UNL     1      26.457   0.070  52.617  1.00  0.00    -0.020 C 
HETATM   14  C20 UNL     1      25.617  -0.937  53.228  1.00  0.00     0.068 C 
ENDROOT
BRANCH  11  15
HETATM   15  C9  UNL     1      23.134   4.072  49.976  1.00  0.00     0.192 A 
HETATM   16  N3  UNL     1      23.256   4.638  48.984  1.00  0.00    -0.222 NA
HETATM   17  C10 UNL     1      22.303   5.190  48.259  1.00  0.00     0.076 A 
HETATM   18  C17 UNL     1      20.987   5.071  48.760  1.00  0.00     0.086 A 
HETATM   19  S1  UNL     1      21.259   4.146  50.275  1.00  0.00    -0.060 SA
BRANCH  17  20
HETATM   20  C11 UNL     1      22.558   5.892  47.003  1.00  0.00    -0.007 A 
HETATM   21  C12 UNL     1      22.008   5.565  45.787  1.00  0.00     0.015 A 
HETATM   22  C13 UNL     1      22.252   6.229  44.606  1.00  0.00     0.024 A 
HETATM   23  C14 UNL     1      23.106   7.303  44.608  1.00  0.00     0.034 A 
HETATM   24 CL1  UNL     1      23.389   8.117  43.089  1.00  0.00    -0.084 Cl
HETATM   25  C15 UNL     1      23.690   7.681  45.796  1.00  0.00     0.024 A 
HETATM   26  C16 UNL     1      23.404   6.981  46.923  1.00  0.00     0.015 A 
ENDBRANCH  17  20
ENDBRANCH  11  15
TORSDOF 2
ENDMDL
