MODEL 1
REMARK VINA RESULT:      -8.0      0.000      0.000
REMARK  5 active torsions:
REMARK  status: ('A' for Active; 'I' for Inactive)
REMARK    1  A    between atoms: C2_2  and  C3_3 
REMARK    2  A    between atoms: C7_7  and  N1_8 
REMARK    3  A    between atoms: N1_8  and  C8_9 
REMARK    4  A    between atoms: C8_9  and  O1_10 
REMARK    5  A    between atoms: N2_18  and  O2_19 
ROOT
HETATM    1  C8  UNL     1      26.569   0.607  53.263  1.00  0.00     0.242 C 
HETATM    2  C9  UNL     1      26.798   0.042  51.944  1.00  0.00     0.083 C 
HETATM    3  C10 UNL     1      26.271  -1.130  52.277  1.00  0.00    -0.029 C 
HETATM    4  C11 UNL     1      27.170  -2.012  52.716  1.00  0.00     0.039 C 
HETATM    5  C12 UNL     1      28.259  -1.270  53.301  1.00  0.00     0.021 C 
HETATM    6  C13 UNL     1      29.553  -1.390  53.248  1.00  0.00    -0.020 C 
HETATM    7  C14 UNL     1      29.824  -0.224  54.127  1.00  0.00     0.016 C 
HETATM    8  C15 UNL     1      28.700   0.388  54.550  1.00  0.00     0.122 C 
HETATM    9  N2  UNL     1      27.297   0.228  54.389  1.00  0.00    -0.217 N 
ENDROOT
BRANCH   1  10
HETATM   10  N1  UNL     1      25.159   0.899  53.511  1.00  0.00    -0.339 N 
HETATM   11  H9  UNL     1      24.732   0.333  54.278  1.00  0.00     0.164 HD
BRANCH  10  12
HETATM   12  C7  UNL     1      24.365   1.853  52.813  1.00  0.00     0.032 A 
HETATM   13  C6  UNL     1      24.216   3.173  53.169  1.00  0.00     0.029 A 
HETATM   14  C5  UNL     1      23.435   4.063  52.471  1.00  0.00     0.003 A 
HETATM   15  C4  UNL     1      22.748   3.649  51.349  1.00  0.00     0.007 A 
HETATM   16  C3  UNL     1      22.889   2.327  50.983  1.00  0.00    -0.056 A 
HETATM   17  C16 UNL     1      23.677   1.445  51.693  1.00  0.00     0.036 A 
BRANCH  16  18
HETATM   18  C2  UNL     1      22.179   1.799  49.780  1.00  0.00     0.034 C 
HETATM   19  C1  UNL     1      21.234   0.714  50.198  1.00  0.00     0.010 C 
ENDBRANCH  16  18
ENDBRANCH  10  12
ENDBRANCH   1  10
BRANCH   1  20
HETATM   20  O1  UNL     1      27.093   1.927  53.038  1.00  0.00    -0.352 OA
HETATM   21  H10 UNL     1      28.025   1.906  52.775  1.00  0.00     0.214 HD
ENDBRANCH   1  20
BRANCH   9  22
HETATM   22  O2  UNL     1      26.537  -0.330  55.344  1.00  0.00    -0.284 OA
HETATM   23  H17 UNL     1      27.037  -0.714  56.104  1.00  0.00     0.245 HD
ENDBRANCH   9  22
TORSDOF 5
ENDMDL
MODEL 2
REMARK VINA RESULT:      -7.9      1.575      2.142
REMARK  5 active torsions:
REMARK  status: ('A' for Active; 'I' for Inactive)
REMARK    1  A    between atoms: C2_2  and  C3_3 
REMARK    2  A    between atoms: C7_7  and  N1_8 
REMARK    3  A    between atoms: N1_8  and  C8_9 
REMARK    4  A    between atoms: C8_9  and  O1_10 
REMARK    5  A    between atoms: N2_18  and  O2_19 
ROOT
HETATM    1  C8  UNL     1      26.807   1.242  52.979  1.00  0.00     0.242 C 
HETATM    2  C9  UNL     1      26.811   0.385  51.806  1.00  0.00     0.083 C 
HETATM    3  C10 UNL     1      26.143  -0.583  52.423  1.00  0.00    -0.029 C 
HETATM    4  C11 UNL     1      26.933  -1.497  52.987  1.00  0.00     0.039 C 
HETATM    5  C12 UNL     1      28.176  -0.852  53.323  1.00  0.00     0.021 C 
HETATM    6  C13 UNL     1      29.425  -1.205  53.215  1.00  0.00    -0.020 C 
HETATM    7  C14 UNL     1      29.961   0.052  53.796  1.00  0.00     0.016 C 
HETATM    8  C15 UNL     1      28.995   0.925  54.144  1.00  0.00     0.122 C 
HETATM    9  N2  UNL     1      27.575   0.983  54.112  1.00  0.00    -0.217 N 
ENDROOT
BRANCH   1  10
HETATM   10  N1  UNL     1      25.491   1.820  53.246  1.00  0.00    -0.339 N 
HETATM   11  H9  UNL     1      25.498   2.593  53.949  1.00  0.00     0.164 HD
BRANCH  10  12
HETATM   12  C7  UNL     1      24.263   1.423  52.645  1.00  0.00     0.032 A 
HETATM   13  C6  UNL     1      23.795   1.864  51.430  1.00  0.00     0.029 A 
HETATM   14  C5  UNL     1      22.600   1.460  50.885  1.00  0.00     0.003 A 
HETATM   15  C4  UNL     1      21.798   0.565  51.563  1.00  0.00     0.007 A 
HETATM   16  C3  UNL     1      22.257   0.116  52.782  1.00  0.00    -0.056 A 
HETATM   17  C16 UNL     1      23.459   0.530  53.316  1.00  0.00     0.036 A 
BRANCH  16  18
HETATM   18  C2  UNL     1      21.449  -0.855  53.579  1.00  0.00     0.034 C 
HETATM   19  C1  UNL     1      22.247  -1.312  54.762  1.00  0.00     0.010 C 
ENDBRANCH  16  18
ENDBRANCH  10  12
ENDBRANCH   1  10
BRANCH   1  20
HETATM   20  O1  UNL     1      27.506   2.375  52.436  1.00  0.00    -0.352 OA
HETATM   21  H10 UNL     1      27.985   2.866  53.120  1.00  0.00     0.214 HD
ENDBRANCH   1  20
BRANCH   9  22
HETATM   22  O2  UNL     1      26.837   0.776  55.214  1.00  0.00    -0.284 OA
HETATM   23  H17 UNL     1      25.871   0.650  55.052  1.00  0.00     0.245 HD
ENDBRANCH   9  22
TORSDOF 5
ENDMDL
MODEL 3
REMARK VINA RESULT:      -7.7      1.847      2.445
REMARK  5 active torsions:
REMARK  status: ('A' for Active; 'I' for Inactive)
REMARK    1  A    between atoms: C2_2  and  C3_3 
REMARK    2  A    between atoms: C7_7  and  N1_8 
REMARK    3  A    between atoms: N1_8  and  C8_9 
REMARK    4  A    between atoms: C8_9  and  O1_10 
REMARK    5  A    between atoms: N2_18  and  O2_19 
ROOT
HETATM    1  C8  UNL     1      26.817   1.416  52.596  1.00  0.00     0.242 C 
HETATM    2  C9  UNL     1      26.826   0.374  51.583  1.00  0.00     0.083 C 
HETATM    3  C10 UNL     1      26.045  -0.426  52.299  1.00  0.00    -0.029 C 
HETATM    4  C11 UNL     1      26.721  -1.284  53.064  1.00  0.00     0.039 C 
HETATM    5  C12 UNL     1      27.989  -0.678  53.383  1.00  0.00     0.021 C 
HETATM    6  C13 UNL     1      29.209  -1.130  53.428  1.00  0.00    -0.020 C 
HETATM    7  C14 UNL     1      29.808   0.168  53.833  1.00  0.00     0.016 C 
HETATM    8  C15 UNL     1      28.896   1.152  53.959  1.00  0.00     0.122 C 
HETATM    9  N2  UNL     1      27.490   1.301  53.811  1.00  0.00    -0.217 N 
ENDROOT
BRANCH   1  10
HETATM   10  N1  UNL     1      25.539   2.121  52.665  1.00  0.00    -0.339 N 
HETATM   11  H9  UNL     1      25.206   2.313  53.636  1.00  0.00     0.164 HD
BRANCH  10  12
HETATM   12  C7  UNL     1      24.753   2.543  51.554  1.00  0.00     0.032 A 
HETATM   13  C6  UNL     1      23.582   1.955  51.142  1.00  0.00     0.029 A 
HETATM   14  C5  UNL     1      22.854   2.390  50.060  1.00  0.00     0.003 A 
HETATM   15  C4  UNL     1      23.291   3.470  49.321  1.00  0.00     0.007 A 
HETATM   16  C3  UNL     1      24.466   4.068  49.726  1.00  0.00    -0.056 A 
HETATM   17  C16 UNL     1      25.184   3.621  50.814  1.00  0.00     0.036 A 
BRANCH  16  18
HETATM   18  C2  UNL     1      25.006   5.244  48.981  1.00  0.00     0.034 C 
HETATM   19  C1  UNL     1      26.504   5.198  49.000  1.00  0.00     0.010 C 
ENDBRANCH  16  18
ENDBRANCH  10  12
ENDBRANCH   1  10
BRANCH   1  20
HETATM   20  O1  UNL     1      27.638   2.390  51.928  1.00  0.00    -0.352 OA
HETATM   21  H10 UNL     1      27.429   3.293  52.209  1.00  0.00     0.214 HD
ENDBRANCH   1  20
BRANCH   9  22
HETATM   22  O2  UNL     1      26.669   1.336  54.873  1.00  0.00    -0.284 OA
HETATM   23  H17 UNL     1      27.005   1.854  55.644  1.00  0.00     0.245 HD
ENDBRANCH   9  22
TORSDOF 5
ENDMDL
MODEL 4
REMARK VINA RESULT:      -7.4      1.672      2.429
REMARK  5 active torsions:
REMARK  status: ('A' for Active; 'I' for Inactive)
REMARK    1  A    between atoms: C2_2  and  C3_3 
REMARK    2  A    between atoms: C7_7  and  N1_8 
REMARK    3  A    between atoms: N1_8  and  C8_9 
REMARK    4  A    between atoms: C8_9  and  O1_10 
REMARK    5  A    between atoms: N2_18  and  O2_19 
ROOT
HETATM    1  C8  UNL     1      25.719   0.991  52.955  1.00  0.00     0.242 C 
HETATM    2  C9  UNL     1      25.634  -0.433  53.233  1.00  0.00     0.083 C 
HETATM    3  C10 UNL     1      25.304  -0.236  54.504  1.00  0.00    -0.029 C 
HETATM    4  C11 UNL     1      26.350  -0.225  55.330  1.00  0.00     0.039 C 
HETATM    5  C12 UNL     1      27.495   0.220  54.577  1.00  0.00     0.021 C 
HETATM    6  C13 UNL     1      28.736  -0.171  54.520  1.00  0.00    -0.020 C 
HETATM    7  C14 UNL     1      29.140   0.841  53.511  1.00  0.00     0.016 C 
HETATM    8  C15 UNL     1      28.125   1.644  53.135  1.00  0.00     0.122 C 
HETATM    9  N2  UNL     1      26.745   1.800  53.439  1.00  0.00    -0.217 N 
ENDROOT
BRANCH   1  10
HETATM   10  N1  UNL     1      24.406   1.630  52.895  1.00  0.00    -0.339 N 
HETATM   11  H9  UNL     1      24.194   2.250  53.709  1.00  0.00     0.164 HD
BRANCH  10  12
HETATM   12  C7  UNL     1      23.444   1.474  51.856  1.00  0.00     0.032 A 
HETATM   13  C6  UNL     1      22.403   0.578  51.868  1.00  0.00     0.029 A 
HETATM   14  C5  UNL     1      21.497   0.454  50.842  1.00  0.00     0.003 A 
HETATM   15  C4  UNL     1      21.604   1.254  49.724  1.00  0.00     0.007 A 
HETATM   16  C3  UNL     1      22.646   2.157  49.701  1.00  0.00    -0.056 A 
HETATM   17  C16 UNL     1      23.547   2.270  50.738  1.00  0.00     0.036 A 
BRANCH  16  18
HETATM   18  C2  UNL     1      22.833   3.061  48.527  1.00  0.00     0.034 C 
HETATM   19  C1  UNL     1      22.281   2.401  47.300  1.00  0.00     0.010 C 
ENDBRANCH  16  18
ENDBRANCH  10  12
ENDBRANCH   1  10
BRANCH   1  20
HETATM   20  O1  UNL     1      26.065   0.929  51.560  1.00  0.00    -0.352 OA
HETATM   21  H10 UNL     1      25.358   0.531  51.030  1.00  0.00     0.214 HD
ENDBRANCH   1  20
BRANCH   9  22
HETATM   22  O2  UNL     1      26.309   2.772  54.255  1.00  0.00    -0.284 OA
HETATM   23  H17 UNL     1      25.328   2.822  54.359  1.00  0.00     0.245 HD
ENDBRANCH   9  22
TORSDOF 5
ENDMDL
MODEL 5
REMARK VINA RESULT:      -7.2      3.125      6.306
REMARK  5 active torsions:
REMARK  status: ('A' for Active; 'I' for Inactive)
REMARK    1  A    between atoms: C2_2  and  C3_3 
REMARK    2  A    between atoms: C7_7  and  N1_8 
REMARK    3  A    between atoms: N1_8  and  C8_9 
REMARK    4  A    between atoms: C8_9  and  O1_10 
REMARK    5  A    between atoms: N2_18  and  O2_19 
ROOT
HETATM    1  C8  UNL     1      24.692   3.673  50.635  1.00  0.00     0.242 C 
HETATM    2  C9  UNL     1      25.428   3.393  49.413  1.00  0.00     0.083 C 
HETATM    3  C10 UNL     1      26.344   4.320  49.669  1.00  0.00    -0.029 C 
HETATM    4  C11 UNL     1      26.066   5.506  49.128  1.00  0.00     0.039 C 
HETATM    5  C12 UNL     1      24.633   5.608  49.013  1.00  0.00     0.021 C 
HETATM    6  C13 UNL     1      23.840   6.047  48.078  1.00  0.00    -0.020 C 
HETATM    7  C14 UNL     1      22.591   5.760  48.830  1.00  0.00     0.016 C 
HETATM    8  C15 UNL     1      22.819   5.217  50.042  1.00  0.00     0.122 C 
HETATM    9  N2  UNL     1      23.943   4.832  50.822  1.00  0.00    -0.217 N 
ENDROOT
BRANCH   1  10
HETATM   10  N1  UNL     1      25.380   3.185  51.828  1.00  0.00    -0.339 N 
HETATM   11  H9  UNL     1      25.757   3.939  52.444  1.00  0.00     0.164 HD
BRANCH  10  12
HETATM   12  C7  UNL     1      25.564   1.820  52.191  1.00  0.00     0.032 A 
HETATM   13  C6  UNL     1      26.620   1.031  51.801  1.00  0.00     0.029 A 
HETATM   14  C5  UNL     1      26.759  -0.286  52.169  1.00  0.00     0.003 A 
HETATM   15  C4  UNL     1      25.809  -0.885  52.970  1.00  0.00     0.007 A 
HETATM   16  C3  UNL     1      24.745  -0.103  53.366  1.00  0.00    -0.056 A 
HETATM   17  C16 UNL     1      24.619   1.218  52.990  1.00  0.00     0.036 A 
BRANCH  16  18
HETATM   18  C2  UNL     1      23.673  -0.675  54.236  1.00  0.00     0.034 C 
HETATM   19  C1  UNL     1      22.380  -0.697  53.480  1.00  0.00     0.010 C 
ENDBRANCH  16  18
ENDBRANCH  10  12
ENDBRANCH   1  10
BRANCH   1  20
HETATM   20  O1  UNL     1      23.644   2.697  50.497  1.00  0.00    -0.352 OA
HETATM   21  H10 UNL     1      22.928   3.014  49.926  1.00  0.00     0.214 HD
ENDBRANCH   1  20
BRANCH   9  22
HETATM   22  O2  UNL     1      24.391   5.592  51.834  1.00  0.00    -0.284 OA
HETATM   23  H17 UNL     1      24.424   6.561  51.647  1.00  0.00     0.245 HD
ENDBRANCH   9  22
TORSDOF 5
ENDMDL
MODEL 6
REMARK VINA RESULT:      -7.0      2.770      6.666
REMARK  5 active torsions:
REMARK  status: ('A' for Active; 'I' for Inactive)
REMARK    1  A    between atoms: C2_2  and  C3_3 
REMARK    2  A    between atoms: C7_7  and  N1_8 
REMARK    3  A    between atoms: N1_8  and  C8_9 
REMARK    4  A    between atoms: C8_9  and  O1_10 
REMARK    5  A    between atoms: N2_18  and  O2_19 
ROOT
HETATM    1  C8  UNL     1      24.716   3.400  51.009  1.00  0.00     0.242 C 
HETATM    2  C9  UNL     1      25.435   3.037  49.799  1.00  0.00     0.083 C 
HETATM    3  C10 UNL     1      26.323   4.013  49.951  1.00  0.00    -0.029 C 
HETATM    4  C11 UNL     1      25.992   5.136  49.313  1.00  0.00     0.039 C 
HETATM    5  C12 UNL     1      24.554   5.180  49.224  1.00  0.00     0.021 C 
HETATM    6  C13 UNL     1      23.727   5.507  48.274  1.00  0.00    -0.020 C 
HETATM    7  C14 UNL     1      22.505   5.247  49.078  1.00  0.00     0.016 C 
HETATM    8  C15 UNL     1      22.777   4.821  50.327  1.00  0.00     0.122 C 
HETATM    9  N2  UNL     1      23.930   4.546  51.111  1.00  0.00    -0.217 N 
ENDROOT
BRANCH   1  10
HETATM   10  N1  UNL     1      25.446   3.043  52.224  1.00  0.00    -0.339 N 
HETATM   11  H9  UNL     1      25.520   3.817  52.922  1.00  0.00     0.164 HD
BRANCH  10  12
HETATM   12  C7  UNL     1      26.034   1.778  52.508  1.00  0.00     0.032 A 
HETATM   13  C6  UNL     1      25.382   0.569  52.448  1.00  0.00     0.029 A 
HETATM   14  C5  UNL     1      25.984  -0.633  52.735  1.00  0.00     0.003 A 
HETATM   15  C4  UNL     1      27.312  -0.670  53.107  1.00  0.00     0.007 A 
HETATM   16  C3  UNL     1      27.976   0.537  53.170  1.00  0.00    -0.056 A 
HETATM   17  C16 UNL     1      27.359   1.735  52.879  1.00  0.00     0.036 A 
BRANCH  16  18
HETATM   18  C2  UNL     1      29.416   0.584  53.564  1.00  0.00     0.034 C 
HETATM   19  C1  UNL     1      29.975  -0.806  53.569  1.00  0.00     0.010 C 
ENDBRANCH  16  18
ENDBRANCH  10  12
ENDBRANCH   1  10
BRANCH   1  20
HETATM   20  O1  UNL     1      23.701   2.382  50.983  1.00  0.00    -0.352 OA
HETATM   21  H10 UNL     1      22.998   2.588  50.349  1.00  0.00     0.214 HD
ENDBRANCH   1  20
BRANCH   9  22
HETATM   22  O2  UNL     1      24.372   5.407  52.041  1.00  0.00    -0.284 OA
HETATM   23  H17 UNL     1      23.922   6.286  52.044  1.00  0.00     0.245 HD
ENDBRANCH   9  22
TORSDOF 5
ENDMDL
MODEL 7
REMARK VINA RESULT:      -6.9      2.923      4.087
REMARK  5 active torsions:
REMARK  status: ('A' for Active; 'I' for Inactive)
REMARK    1  A    between atoms: C2_2  and  C3_3 
REMARK    2  A    between atoms: C7_7  and  N1_8 
REMARK    3  A    between atoms: N1_8  and  C8_9 
REMARK    4  A    between atoms: C8_9  and  O1_10 
REMARK    5  A    between atoms: N2_18  and  O2_19 
ROOT
HETATM    1  C8  UNL     1      25.531   2.307  51.825  1.00  0.00     0.242 C 
HETATM    2  C9  UNL     1      24.484   1.395  51.396  1.00  0.00     0.083 C 
HETATM    3  C10 UNL     1      23.792   1.550  52.518  1.00  0.00    -0.029 C 
HETATM    4  C11 UNL     1      24.081   0.642  53.451  1.00  0.00     0.039 C 
HETATM    5  C12 UNL     1      25.440   0.215  53.238  1.00  0.00     0.021 C 
HETATM    6  C13 UNL     1      26.027  -0.946  53.262  1.00  0.00    -0.020 C 
HETATM    7  C14 UNL     1      27.374  -0.412  52.936  1.00  0.00     0.016 C 
HETATM    8  C15 UNL     1      27.385   0.925  52.772  1.00  0.00     0.122 C 
HETATM    9  N2  UNL     1      26.449   1.994  52.824  1.00  0.00    -0.217 N 
ENDROOT
BRANCH   1  10
HETATM   10  N1  UNL     1      25.102   3.704  51.799  1.00  0.00    -0.339 N 
HETATM   11  H9  UNL     1      25.060   4.157  52.739  1.00  0.00     0.164 HD
BRANCH  10  12
HETATM   12  C7  UNL     1      24.755   4.453  50.638  1.00  0.00     0.032 A 
HETATM   13  C6  UNL     1      23.510   4.483  50.057  1.00  0.00     0.029 A 
HETATM   14  C5  UNL     1      23.215   5.216  48.932  1.00  0.00     0.003 A 
HETATM   15  C4  UNL     1      24.194   5.974  48.324  1.00  0.00     0.007 A 
HETATM   16  C3  UNL     1      25.447   5.950  48.898  1.00  0.00    -0.056 A 
HETATM   17  C16 UNL     1      25.728   5.211  50.028  1.00  0.00     0.036 A 
BRANCH  16  18
HETATM   18  C2  UNL     1      26.563   6.745  48.302  1.00  0.00     0.034 C 
HETATM   19  C1  UNL     1      27.825   5.938  48.345  1.00  0.00     0.010 C 
ENDBRANCH  16  18
ENDBRANCH  10  12
ENDBRANCH   1  10
BRANCH   1  20
HETATM   20  O1  UNL     1      26.373   2.251  50.661  1.00  0.00    -0.352 OA
HETATM   21  H10 UNL     1      25.914   2.563  49.867  1.00  0.00     0.214 HD
ENDBRANCH   1  20
BRANCH   9  22
HETATM   22  O2  UNL     1      26.371   2.810  53.887  1.00  0.00    -0.284 OA
HETATM   23  H17 UNL     1      27.202   3.300  54.100  1.00  0.00     0.245 HD
ENDBRANCH   9  22
TORSDOF 5
ENDMDL
MODEL 8
REMARK VINA RESULT:      -6.9      3.399      6.754
REMARK  5 active torsions:
REMARK  status: ('A' for Active; 'I' for Inactive)
REMARK    1  A    between atoms: C2_2  and  C3_3 
REMARK    2  A    between atoms: C7_7  and  N1_8 
REMARK    3  A    between atoms: N1_8  and  C8_9 
REMARK    4  A    between atoms: C8_9  and  O1_10 
REMARK    5  A    between atoms: N2_18  and  O2_19 
ROOT
HETATM    1  C8  UNL     1      24.185   4.631  50.760  1.00  0.00     0.242 C 
HETATM    2  C9  UNL     1      24.725   4.075  49.531  1.00  0.00     0.083 C 
HETATM    3  C10 UNL     1      25.900   4.672  49.695  1.00  0.00    -0.029 C 
HETATM    4  C11 UNL     1      25.981   5.858  49.091  1.00  0.00     0.039 C 
HETATM    5  C12 UNL     1      24.650   6.406  49.024  1.00  0.00     0.021 C 
HETATM    6  C13 UNL     1      23.986   7.031  48.095  1.00  0.00    -0.020 C 
HETATM    7  C14 UNL     1      22.755   7.193  48.910  1.00  0.00     0.016 C 
HETATM    8  C15 UNL     1      22.866   6.663  50.144  1.00  0.00     0.122 C 
HETATM    9  N2  UNL     1      23.853   5.976  50.903  1.00  0.00    -0.217 N 
ENDROOT
BRANCH   1  10
HETATM   10  N1  UNL     1      24.749   4.006  51.955  1.00  0.00    -0.339 N 
HETATM   11  H9  UNL     1      25.294   4.657  52.562  1.00  0.00     0.164 HD
BRANCH  10  12
HETATM   12  C7  UNL     1      24.613   2.638  52.328  1.00  0.00     0.032 A 
HETATM   13  C6  UNL     1      23.500   2.083  52.913  1.00  0.00     0.029 A 
HETATM   14  C5  UNL     1      23.410   0.757  53.264  1.00  0.00     0.003 A 
HETATM   15  C4  UNL     1      24.472  -0.094  53.034  1.00  0.00     0.007 A 
HETATM   16  C3  UNL     1      25.593   0.453  52.449  1.00  0.00    -0.056 A 
HETATM   17  C16 UNL     1      25.669   1.786  52.102  1.00  0.00     0.036 A 
BRANCH  16  18
HETATM   18  C2  UNL     1      26.786  -0.400  52.166  1.00  0.00     0.034 C 
HETATM   19  C1  UNL     1      27.730  -0.335  53.328  1.00  0.00     0.010 C 
ENDBRANCH  16  18
ENDBRANCH  10  12
ENDBRANCH   1  10
BRANCH   1  20
HETATM   20  O1  UNL     1      22.876   4.036  50.723  1.00  0.00    -0.352 OA
HETATM   21  H10 UNL     1      22.917   3.069  50.781  1.00  0.00     0.214 HD
ENDBRANCH   1  20
BRANCH   9  22
HETATM   22  O2  UNL     1      24.573   6.600  51.849  1.00  0.00    -0.284 OA
HETATM   23  H17 UNL     1      25.196   6.020  52.350  1.00  0.00     0.245 HD
ENDBRANCH   9  22
TORSDOF 5
ENDMDL
MODEL 9
REMARK VINA RESULT:      -6.8      2.956      6.161
REMARK  5 active torsions:
REMARK  status: ('A' for Active; 'I' for Inactive)
REMARK    1  A    between atoms: C2_2  and  C3_3 
REMARK    2  A    between atoms: C7_7  and  N1_8 
REMARK    3  A    between atoms: N1_8  and  C8_9 
REMARK    4  A    between atoms: C8_9  and  O1_10 
REMARK    5  A    between atoms: N2_18  and  O2_19 
ROOT
HETATM    1  C8  UNL     1      24.209   3.666  51.421  1.00  0.00     0.242 C 
HETATM    2  C9  UNL     1      23.633   4.263  52.613  1.00  0.00     0.083 C 
HETATM    3  C10 UNL     1      22.416   4.316  52.084  1.00  0.00    -0.029 C 
HETATM    4  C11 UNL     1      22.150   5.475  51.480  1.00  0.00     0.039 C 
HETATM    5  C12 UNL     1      23.399   6.024  51.019  1.00  0.00     0.021 C 
HETATM    6  C13 UNL     1      23.907   7.222  51.029  1.00  0.00    -0.020 C 
HETATM    7  C14 UNL     1      25.177   6.826  50.368  1.00  0.00     0.016 C 
HETATM    8  C15 UNL     1      25.232   5.510  50.080  1.00  0.00     0.122 C 
HETATM    9  N2  UNL     1      24.398   4.369  50.233  1.00  0.00    -0.217 N 
ENDROOT
BRANCH   1  10
HETATM   10  N1  UNL     1      23.824   2.266  51.252  1.00  0.00    -0.339 N 
HETATM   11  H9  UNL     1      23.369   2.054  50.336  1.00  0.00     0.164 HD
BRANCH  10  12
HETATM   12  C7  UNL     1      24.015   1.223  52.204  1.00  0.00     0.032 A 
HETATM   13  C6  UNL     1      25.217   0.622  52.490  1.00  0.00     0.029 A 
HETATM   14  C5  UNL     1      25.359  -0.387  53.413  1.00  0.00     0.003 A 
HETATM   15  C4  UNL     1      24.261  -0.848  54.109  1.00  0.00     0.007 A 
HETATM   16  C3  UNL     1      23.050  -0.252  53.829  1.00  0.00    -0.056 A 
HETATM   17  C16 UNL     1      22.922   0.760  52.901  1.00  0.00     0.036 A 
BRANCH  16  18
HETATM   18  C2  UNL     1      21.813  -0.692  54.540  1.00  0.00     0.034 C 
HETATM   19  C1  UNL     1      20.736   0.331  54.343  1.00  0.00     0.010 C 
ENDBRANCH  16  18
ENDBRANCH  10  12
ENDBRANCH   1  10
BRANCH   1  20
HETATM   20  O1  UNL     1      25.569   3.530  51.869  1.00  0.00    -0.352 OA
HETATM   21  H10 UNL     1      25.699   3.913  52.749  1.00  0.00     0.214 HD
ENDBRANCH   1  20
BRANCH   9  22
HETATM   22  O2  UNL     1      23.694   3.868  49.206  1.00  0.00    -0.284 OA
HETATM   23  H17 UNL     1      22.979   3.235  49.458  1.00  0.00     0.245 HD
ENDBRANCH   9  22
TORSDOF 5
ENDMDL
