MODEL 1
REMARK VINA RESULT:      -7.1      0.000      0.000
REMARK  11 active torsions:
REMARK  status: ('A' for Active; 'I' for Inactive)
REMARK    1  A    between atoms: O1_2  and  C2_3 
REMARK    2  A    between atoms: C2_3  and  C3_4 
REMARK    3  A    between atoms: C3_4  and  C4_5 
REMARK    4  A    between atoms: C4_5  and  N1_6 
REMARK    5  A    between atoms: N1_6  and  C5_7 
REMARK    6  A    between atoms: C5_7  and  N2_8 
REMARK    7  A    between atoms: N2_8  and  C6_9 
REMARK    8  A    between atoms: C6_9  and  C7_10 
REMARK    9  A    between atoms: C10_13  and  N3_14 
REMARK       I    between atoms: N3_14  and  C11_15 
REMARK   10  A    between atoms: C14_19  and  C15_20 
REMARK   11  A    between atoms: C16_21  and  C17_22 
ROOT
HETATM    1  C7  UNL     1      28.535   6.119  48.133  1.00  0.00     0.003 C 
HETATM    2  C8  UNL     1      27.244   6.036  48.439  1.00  0.00    -0.050 C 
HETATM    3  C9  UNL     1      25.881   6.605  48.395  1.00  0.00     0.069 C 
HETATM    4  C10 UNL     1      25.679   5.907  49.722  1.00  0.00     0.122 C 
HETATM    5  C13 UNL     1      26.624   4.904  49.172  1.00  0.00    -0.029 C 
HETATM    6  C14 UNL     1      26.824   3.599  49.282  1.00  0.00     0.010 C 
ENDROOT
BRANCH   1   7
HETATM    7  C6  UNL     1      29.152   7.246  47.378  1.00  0.00     0.189 C 
BRANCH   7   8
HETATM    8  N2  UNL     1      29.714   8.268  48.202  1.00  0.00    -0.226 NA
BRANCH   8   9
HETATM    9  C5  UNL     1      30.733   7.966  48.903  1.00  0.00     0.091 C 
BRANCH   9  10
HETATM   10  N1  UNL     1      31.761   7.523  49.504  1.00  0.00    -0.226 NA
BRANCH  10  11
HETATM   11  C4  UNL     1      31.871   6.093  49.790  1.00  0.00     0.190 C 
BRANCH  11  12
HETATM   12  C3  UNL     1      32.116   5.309  48.586  1.00  0.00     0.019 C 
BRANCH  12  13
HETATM   13  C2  UNL     1      32.056   4.579  47.515  1.00  0.00     0.131 C 
BRANCH  13  14
HETATM   14  O1  UNL     1      32.128   3.709  46.479  1.00  0.00    -0.368 OA
HETATM   15  C1  UNL     1      32.445   2.336  46.734  1.00  0.00     0.208 C 
ENDBRANCH  13  14
ENDBRANCH  12  13
ENDBRANCH  11  12
ENDBRANCH  10  11
ENDBRANCH   9  10
ENDBRANCH   8   9
ENDBRANCH   7   8
ENDBRANCH   1   7
BRANCH   4  16
HETATM   16  N3  UNL     1      24.339   5.459  49.975  1.00  0.00    -0.352 N 
HETATM   17  C11 UNL     1      23.481   5.870  51.042  1.00  0.00     0.214 C 
HETATM   18  C12 UNL     1      22.176   5.151  50.921  1.00  0.00     0.117 C 
HETATM   19  O2  UNL     1      24.172   6.706  51.693  1.00  0.00    -0.274 OA
HETATM   20  H14 UNL     1      24.134   4.759  49.197  1.00  0.00     0.163 HD
ENDBRANCH   4  16
BRANCH   6  21
HETATM   21  C15 UNL     1      25.957   2.794  50.146  1.00  0.00     0.001 C 
HETATM   22  C16 UNL     1      26.526   2.056  51.102  1.00  0.00     0.011 C 
BRANCH  22  23
HETATM   23  C17 UNL     1      25.724   1.234  51.992  1.00  0.00    -0.036 A 
HETATM   24  C18 UNL     1      26.166   0.122  52.673  1.00  0.00     0.011 A 
HETATM   25  C19 UNL     1      25.453  -0.684  53.521  1.00  0.00     0.001 A 
HETATM   26  C20 UNL     1      24.127  -0.278  53.673  1.00  0.00     0.000 A 
HETATM   27  C21 UNL     1      23.546   0.814  53.055  1.00  0.00     0.001 A 
HETATM   28  C22 UNL     1      24.413   1.514  52.231  1.00  0.00     0.011 A 
ENDBRANCH  22  23
ENDBRANCH   6  21
TORSDOF 11
ENDMDL
MODEL 2
REMARK VINA RESULT:      -7.1      1.237      1.755
REMARK  11 active torsions:
REMARK  status: ('A' for Active; 'I' for Inactive)
REMARK    1  A    between atoms: O1_2  and  C2_3 
REMARK    2  A    between atoms: C2_3  and  C3_4 
REMARK    3  A    between atoms: C3_4  and  C4_5 
REMARK    4  A    between atoms: C4_5  and  N1_6 
REMARK    5  A    between atoms: N1_6  and  C5_7 
REMARK    6  A    between atoms: C5_7  and  N2_8 
REMARK    7  A    between atoms: N2_8  and  C6_9 
REMARK    8  A    between atoms: C6_9  and  C7_10 
REMARK    9  A    between atoms: C10_13  and  N3_14 
REMARK       I    between atoms: N3_14  and  C11_15 
REMARK   10  A    between atoms: C14_19  and  C15_20 
REMARK   11  A    between atoms: C16_21  and  C17_22 
ROOT
HETATM    1  C7  UNL     1      27.724   7.098  48.432  1.00  0.00     0.003 C 
HETATM    2  C8  UNL     1      26.525   6.540  48.566  1.00  0.00    -0.050 C 
HETATM    3  C9  UNL     1      25.059   6.605  48.395  1.00  0.00     0.069 C 
HETATM    4  C10 UNL     1      24.999   5.730  49.629  1.00  0.00     0.122 C 
HETATM    5  C13 UNL     1      26.285   5.186  49.126  1.00  0.00    -0.029 C 
HETATM    6  C14 UNL     1      26.925   4.027  49.159  1.00  0.00     0.010 C 
ENDROOT
BRANCH   1   7
HETATM    7  C6  UNL     1      27.965   8.448  47.850  1.00  0.00     0.189 C 
BRANCH   7   8
HETATM    8  N2  UNL     1      28.257   9.461  48.814  1.00  0.00    -0.226 NA
BRANCH   8   9
HETATM    9  C5  UNL     1      29.449   9.528  49.256  1.00  0.00     0.091 C 
BRANCH   9  10
HETATM   10  N1  UNL     1      30.668   9.450  49.607  1.00  0.00    -0.226 NA
BRANCH  10  11
HETATM   11  C4  UNL     1      31.634   8.795  48.726  1.00  0.00     0.190 C 
BRANCH  11  12
HETATM   12  C3  UNL     1      31.443   7.351  48.679  1.00  0.00     0.019 C 
BRANCH  12  13
HETATM   13  C2  UNL     1      31.547   6.058  48.691  1.00  0.00     0.131 C 
BRANCH  13  14
HETATM   14  O1  UNL     1      31.809   4.734  48.815  1.00  0.00    -0.368 OA
HETATM   15  C1  UNL     1      32.604   4.078  47.821  1.00  0.00     0.208 C 
ENDBRANCH  13  14
ENDBRANCH  12  13
ENDBRANCH  11  12
ENDBRANCH  10  11
ENDBRANCH   9  10
ENDBRANCH   8   9
ENDBRANCH   7   8
ENDBRANCH   1   7
BRANCH   4  16
HETATM   16  N3  UNL     1      23.889   4.822  49.676  1.00  0.00    -0.352 N 
HETATM   17  C11 UNL     1      23.154   4.420  50.834  1.00  0.00     0.214 C 
HETATM   18  C12 UNL     1      22.083   3.462  50.421  1.00  0.00     0.117 C 
HETATM   19  O2  UNL     1      23.706   5.046  51.784  1.00  0.00    -0.274 OA
HETATM   20  H14 UNL     1      23.742   4.519  48.663  1.00  0.00     0.163 HD
ENDBRANCH   4  16
BRANCH   6  21
HETATM   21  C15 UNL     1      26.327   2.877  49.842  1.00  0.00     0.001 C 
HETATM   22  C16 UNL     1      26.623   2.682  51.129  1.00  0.00     0.011 C 
BRANCH  22  23
HETATM   23  C17 UNL     1      26.064   1.561  51.865  1.00  0.00    -0.036 A 
HETATM   24  C18 UNL     1      24.795   1.502  52.396  1.00  0.00     0.011 A 
HETATM   25  C19 UNL     1      24.221   0.472  53.094  1.00  0.00     0.001 A 
HETATM   26  C20 UNL     1      25.075  -0.619  53.255  1.00  0.00     0.000 A 
HETATM   27  C21 UNL     1      26.371  -0.702  52.779  1.00  0.00     0.001 A 
HETATM   28  C22 UNL     1      26.787   0.430  52.097  1.00  0.00     0.011 A 
ENDBRANCH  22  23
ENDBRANCH   6  21
TORSDOF 11
ENDMDL
MODEL 3
REMARK VINA RESULT:      -6.8      5.041      7.647
REMARK  11 active torsions:
REMARK  status: ('A' for Active; 'I' for Inactive)
REMARK    1  A    between atoms: O1_2  and  C2_3 
REMARK    2  A    between atoms: C2_3  and  C3_4 
REMARK    3  A    between atoms: C3_4  and  C4_5 
REMARK    4  A    between atoms: C4_5  and  N1_6 
REMARK    5  A    between atoms: N1_6  and  C5_7 
REMARK    6  A    between atoms: C5_7  and  N2_8 
REMARK    7  A    between atoms: N2_8  and  C6_9 
REMARK    8  A    between atoms: C6_9  and  C7_10 
REMARK    9  A    between atoms: C10_13  and  N3_14 
REMARK       I    between atoms: N3_14  and  C11_15 
REMARK   10  A    between atoms: C14_19  and  C15_20 
REMARK   11  A    between atoms: C16_21  and  C17_22 
ROOT
HETATM    1  C7  UNL     1      25.111   2.299  51.083  1.00  0.00     0.003 C 
HETATM    2  C8  UNL     1      23.955   2.896  50.814  1.00  0.00    -0.050 C 
HETATM    3  C9  UNL     1      23.194   4.122  50.495  1.00  0.00     0.069 C 
HETATM    4  C10 UNL     1      22.052   3.459  51.234  1.00  0.00     0.122 C 
HETATM    5  C13 UNL     1      22.648   2.199  50.724  1.00  0.00    -0.029 C 
HETATM    6  C14 UNL     1      22.214   1.003  50.356  1.00  0.00     0.010 C 
ENDROOT
BRANCH   1   7
HETATM    7  C6  UNL     1      26.425   2.997  51.153  1.00  0.00     0.189 C 
BRANCH   7   8
HETATM    8  N2  UNL     1      27.402   2.334  51.957  1.00  0.00    -0.226 NA
BRANCH   8   9
HETATM    9  C5  UNL     1      27.093   2.074  53.164  1.00  0.00     0.091 C 
BRANCH   9  10
HETATM   10  N1  UNL     1      26.730   1.661  54.310  1.00  0.00    -0.226 NA
BRANCH  10  11
HETATM   11  C4  UNL     1      26.594   0.225  54.551  1.00  0.00     0.190 C 
BRANCH  11  12
HETATM   12  C3  UNL     1      25.245  -0.253  54.274  1.00  0.00     0.019 C 
BRANCH  12  13
HETATM   13  C2  UNL     1      24.104  -0.603  53.765  1.00  0.00     0.131 C 
BRANCH  13  14
HETATM   14  O1  UNL     1      22.873  -1.041  53.406  1.00  0.00    -0.368 OA
HETATM   15  C1  UNL     1      21.943  -1.433  54.422  1.00  0.00     0.208 C 
ENDBRANCH  13  14
ENDBRANCH  12  13
ENDBRANCH  11  12
ENDBRANCH  10  11
ENDBRANCH   9  10
ENDBRANCH   8   9
ENDBRANCH   7   8
ENDBRANCH   1   7
BRANCH   4  16
HETATM   16  N3  UNL     1      20.741   3.793  50.753  1.00  0.00    -0.352 N 
HETATM   17  C11 UNL     1      19.525   3.804  51.504  1.00  0.00     0.214 C 
HETATM   18  C12 UNL     1      18.402   4.212  50.605  1.00  0.00     0.117 C 
HETATM   19  O2  UNL     1      19.876   3.457  52.668  1.00  0.00    -0.274 OA
HETATM   20  H14 UNL     1      20.881   4.027  49.721  1.00  0.00     0.163 HD
ENDBRANCH   4  16
BRANCH   6  21
HETATM   21  C15 UNL     1      20.785   0.689  50.414  1.00  0.00     0.001 C 
HETATM   22  C16 UNL     1      20.289   0.209  51.556  1.00  0.00     0.011 C 
BRANCH  22  23
HETATM   23  C17 UNL     1      18.879  -0.123  51.681  1.00  0.00    -0.036 A 
HETATM   24  C18 UNL     1      17.901   0.177  50.760  1.00  0.00     0.011 A 
HETATM   25  C19 UNL     1      16.563  -0.113  50.829  1.00  0.00     0.001 A 
HETATM   26  C20 UNL     1      16.212  -0.794  51.994  1.00  0.00     0.000 A 
HETATM   27  C21 UNL     1      17.084  -1.161  53.003  1.00  0.00     0.001 A 
HETATM   28  C22 UNL     1      18.397  -0.786  52.768  1.00  0.00     0.011 A 
ENDBRANCH  22  23
ENDBRANCH   6  21
TORSDOF 11
ENDMDL
MODEL 4
REMARK VINA RESULT:      -6.8      4.245      8.308
REMARK  11 active torsions:
REMARK  status: ('A' for Active; 'I' for Inactive)
REMARK    1  A    between atoms: O1_2  and  C2_3 
REMARK    2  A    between atoms: C2_3  and  C3_4 
REMARK    3  A    between atoms: C3_4  and  C4_5 
REMARK    4  A    between atoms: C4_5  and  N1_6 
REMARK    5  A    between atoms: N1_6  and  C5_7 
REMARK    6  A    between atoms: C5_7  and  N2_8 
REMARK    7  A    between atoms: N2_8  and  C6_9 
REMARK    8  A    between atoms: C6_9  and  C7_10 
REMARK    9  A    between atoms: C10_13  and  N3_14 
REMARK       I    between atoms: N3_14  and  C11_15 
REMARK   10  A    between atoms: C14_19  and  C15_20 
REMARK   11  A    between atoms: C16_21  and  C17_22 
ROOT
HETATM    1  C7  UNL     1      22.060   0.186  53.455  1.00  0.00     0.003 C 
HETATM    2  C8  UNL     1      21.690   1.343  52.916  1.00  0.00    -0.050 C 
HETATM    3  C9  UNL     1      20.626   2.301  52.552  1.00  0.00     0.069 C 
HETATM    4  C10 UNL     1      21.529   2.679  51.398  1.00  0.00     0.122 C 
HETATM    5  C13 UNL     1      22.626   2.340  52.339  1.00  0.00    -0.029 C 
HETATM    6  C14 UNL     1      23.868   2.742  52.562  1.00  0.00     0.010 C 
ENDROOT
BRANCH   1   7
HETATM    7  C6  UNL     1      21.122  -0.803  54.054  1.00  0.00     0.189 C 
BRANCH   7   8
HETATM    8  N2  UNL     1      21.733  -1.717  54.967  1.00  0.00    -0.226 NA
BRANCH   8   9
HETATM    9  C5  UNL     1      22.920  -1.461  55.350  1.00  0.00     0.091 C 
BRANCH   9  10
HETATM   10  N1  UNL     1      24.153  -1.257  55.576  1.00  0.00    -0.226 NA
BRANCH  10  11
HETATM   11  C4  UNL     1      25.079  -1.110  54.453  1.00  0.00     0.190 C 
BRANCH  11  12
HETATM   12  C3  UNL     1      26.116  -0.122  54.721  1.00  0.00     0.019 C 
BRANCH  12  13
HETATM   13  C2  UNL     1      27.148   0.664  54.720  1.00  0.00     0.131 C 
BRANCH  13  14
HETATM   14  O1  UNL     1      28.306   1.358  54.600  1.00  0.00    -0.368 OA
HETATM   15  C1  UNL     1      28.419   2.367  53.590  1.00  0.00     0.208 C 
ENDBRANCH  13  14
ENDBRANCH  12  13
ENDBRANCH  11  12
ENDBRANCH  10  11
ENDBRANCH   9  10
ENDBRANCH   8   9
ENDBRANCH   7   8
ENDBRANCH   1   7
BRANCH   4  16
HETATM   16  N3  UNL     1      21.439   4.049  50.979  1.00  0.00    -0.352 N 
HETATM   17  C11 UNL     1      21.636   4.560  49.660  1.00  0.00     0.214 C 
HETATM   18  C12 UNL     1      21.445   6.043  49.679  1.00  0.00     0.117 C 
HETATM   19  O2  UNL     1      21.903   3.536  48.966  1.00  0.00    -0.274 OA
HETATM   20  H14 UNL     1      21.195   4.589  51.866  1.00  0.00     0.163 HD
ENDBRANCH   4  16
BRANCH   6  21
HETATM   21  C15 UNL     1      24.458   3.799  51.737  1.00  0.00     0.001 C 
HETATM   22  C16 UNL     1      25.217   3.442  50.699  1.00  0.00     0.011 C 
BRANCH  22  23
HETATM   23  C17 UNL     1      25.832   4.441  49.841  1.00  0.00    -0.036 A 
HETATM   24  C18 UNL     1      27.067   4.333  49.242  1.00  0.00     0.011 A 
HETATM   25  C19 UNL     1      27.689   5.242  48.427  1.00  0.00     0.001 A 
HETATM   26  C20 UNL     1      26.931   6.395  48.217  1.00  0.00     0.000 A 
HETATM   27  C21 UNL     1      25.680   6.641  48.751  1.00  0.00     0.001 A 
HETATM   28  C22 UNL     1      25.204   5.614  49.552  1.00  0.00     0.011 A 
ENDBRANCH  22  23
ENDBRANCH   6  21
TORSDOF 11
ENDMDL
MODEL 5
REMARK VINA RESULT:      -6.6      3.492      8.478
REMARK  11 active torsions:
REMARK  status: ('A' for Active; 'I' for Inactive)
REMARK    1  A    between atoms: O1_2  and  C2_3 
REMARK    2  A    between atoms: C2_3  and  C3_4 
REMARK    3  A    between atoms: C3_4  and  C4_5 
REMARK    4  A    between atoms: C4_5  and  N1_6 
REMARK    5  A    between atoms: N1_6  and  C5_7 
REMARK    6  A    between atoms: C5_7  and  N2_8 
REMARK    7  A    between atoms: N2_8  and  C6_9 
REMARK    8  A    between atoms: C6_9  and  C7_10 
REMARK    9  A    between atoms: C10_13  and  N3_14 
REMARK       I    between atoms: N3_14  and  C11_15 
REMARK   10  A    between atoms: C14_19  and  C15_20 
REMARK   11  A    between atoms: C16_21  and  C17_22 
ROOT
HETATM    1  C7  UNL     1      22.017   1.305  50.974  1.00  0.00     0.003 C 
HETATM    2  C8  UNL     1      22.263   2.590  51.207  1.00  0.00    -0.050 C 
HETATM    3  C9  UNL     1      21.823   3.901  51.728  1.00  0.00     0.069 C 
HETATM    4  C10 UNL     1      22.715   4.489  50.656  1.00  0.00     0.122 C 
HETATM    5  C13 UNL     1      23.539   3.276  50.883  1.00  0.00    -0.029 C 
HETATM    6  C14 UNL     1      24.821   2.952  50.824  1.00  0.00     0.010 C 
ENDROOT
BRANCH   1   7
HETATM    7  C6  UNL     1      20.744   0.613  51.319  1.00  0.00     0.189 C 
BRANCH   7   8
HETATM    8  N2  UNL     1      20.365   0.728  52.692  1.00  0.00    -0.226 NA
BRANCH   8   9
HETATM    9  C5  UNL     1      20.681  -0.228  53.471  1.00  0.00     0.091 C 
BRANCH   9  10
HETATM   10  N1  UNL     1      20.984  -1.283  54.111  1.00  0.00    -0.226 NA
BRANCH  10  11
HETATM   11  C4  UNL     1      22.190  -1.305  54.940  1.00  0.00     0.190 C 
BRANCH  11  12
HETATM   12  C3  UNL     1      23.329  -0.693  54.268  1.00  0.00     0.019 C 
BRANCH  12  13
HETATM   13  C2  UNL     1      24.299  -0.347  53.479  1.00  0.00     0.131 C 
BRANCH  13  14
HETATM   14  O1  UNL     1      25.263  -0.138  52.550  1.00  0.00    -0.368 OA
HETATM   15  C1  UNL     1      26.516  -0.822  52.670  1.00  0.00     0.208 C 
ENDBRANCH  13  14
ENDBRANCH  12  13
ENDBRANCH  11  12
ENDBRANCH  10  11
ENDBRANCH   9  10
ENDBRANCH   8   9
ENDBRANCH   7   8
ENDBRANCH   1   7
BRANCH   4  16
HETATM   16  N3  UNL     1      23.317   5.749  50.990  1.00  0.00    -0.352 N 
HETATM   17  C11 UNL     1      23.323   6.937  50.197  1.00  0.00     0.214 C 
HETATM   18  C12 UNL     1      24.064   8.008  50.932  1.00  0.00     0.117 C 
HETATM   19  O2  UNL     1      22.684   6.617  49.153  1.00  0.00    -0.274 OA
HETATM   20  H14 UNL     1      23.753   5.596  51.952  1.00  0.00     0.163 HD
ENDBRANCH   4  16
BRANCH   6  21
HETATM   21  C15 UNL     1      25.817   3.958  50.447  1.00  0.00     0.001 C 
HETATM   22  C16 UNL     1      25.964   4.248  49.152  1.00  0.00     0.011 C 
BRANCH  22  23
HETATM   23  C17 UNL     1      26.934   5.236  48.711  1.00  0.00    -0.036 A 
HETATM   24  C18 UNL     1      28.276   5.007  48.508  1.00  0.00     0.011 A 
HETATM   25  C19 UNL     1      29.229   5.901  48.094  1.00  0.00     0.001 A 
HETATM   26  C20 UNL     1      28.717   7.178  47.867  1.00  0.00     0.000 A 
HETATM   27  C21 UNL     1      27.395   7.554  48.029  1.00  0.00     0.001 A 
HETATM   28  C22 UNL     1      26.572   6.523  48.454  1.00  0.00     0.011 A 
ENDBRANCH  22  23
ENDBRANCH   6  21
TORSDOF 11
ENDMDL
MODEL 6
REMARK VINA RESULT:      -6.6      1.507      2.489
REMARK  11 active torsions:
REMARK  status: ('A' for Active; 'I' for Inactive)
REMARK    1  A    between atoms: O1_2  and  C2_3 
REMARK    2  A    between atoms: C2_3  and  C3_4 
REMARK    3  A    between atoms: C3_4  and  C4_5 
REMARK    4  A    between atoms: C4_5  and  N1_6 
REMARK    5  A    between atoms: N1_6  and  C5_7 
REMARK    6  A    between atoms: C5_7  and  N2_8 
REMARK    7  A    between atoms: N2_8  and  C6_9 
REMARK    8  A    between atoms: C6_9  and  C7_10 
REMARK    9  A    between atoms: C10_13  and  N3_14 
REMARK       I    between atoms: N3_14  and  C11_15 
REMARK   10  A    between atoms: C14_19  and  C15_20 
REMARK   11  A    between atoms: C16_21  and  C17_22 
ROOT
HETATM    1  C7  UNL     1      27.157   4.876  49.210  1.00  0.00     0.003 C 
HETATM    2  C8  UNL     1      25.831   4.857  49.299  1.00  0.00    -0.050 C 
HETATM    3  C9  UNL     1      24.514   5.359  48.856  1.00  0.00     0.069 C 
HETATM    4  C10 UNL     1      24.066   5.074  50.273  1.00  0.00     0.122 C 
HETATM    5  C13 UNL     1      25.061   3.975  50.210  1.00  0.00    -0.029 C 
HETATM    6  C14 UNL     1      25.199   2.764  50.727  1.00  0.00     0.010 C 
ENDROOT
BRANCH   1   7
HETATM    7  C6  UNL     1      27.928   5.747  48.280  1.00  0.00     0.189 C 
BRANCH   7   8
HETATM    8  N2  UNL     1      27.654   7.143  48.416  1.00  0.00    -0.226 NA
BRANCH   8   9
HETATM    9  C5  UNL     1      28.640   7.919  48.626  1.00  0.00     0.091 C 
BRANCH   9  10
HETATM   10  N1  UNL     1      29.618   8.640  48.999  1.00  0.00    -0.226 NA
BRANCH  10  11
HETATM   11  C4  UNL     1      30.920   8.484  48.350  1.00  0.00     0.190 C 
BRANCH  11  12
HETATM   12  C3  UNL     1      31.473   7.150  48.543  1.00  0.00     0.019 C 
BRANCH  12  13
HETATM   13  C2  UNL     1      31.723   5.878  48.601  1.00  0.00     0.131 C 
BRANCH  13  14
HETATM   14  O1  UNL     1      31.815   4.526  48.577  1.00  0.00    -0.368 OA
HETATM   15  C1  UNL     1      32.796   3.903  47.739  1.00  0.00     0.208 C 
ENDBRANCH  13  14
ENDBRANCH  12  13
ENDBRANCH  11  12
ENDBRANCH  10  11
ENDBRANCH   9  10
ENDBRANCH   8   9
ENDBRANCH   7   8
ENDBRANCH   1   7
BRANCH   4  16
HETATM   16  N3  UNL     1      22.689   4.691  50.409  1.00  0.00    -0.352 N 
HETATM   17  C11 UNL     1      21.882   4.780  51.585  1.00  0.00     0.214 C 
HETATM   18  C12 UNL     1      20.512   4.270  51.275  1.00  0.00     0.117 C 
HETATM   19  O2  UNL     1      22.658   5.269  52.457  1.00  0.00    -0.274 OA
HETATM   20  H14 UNL     1      22.411   4.327  49.445  1.00  0.00     0.163 HD
ENDBRANCH   4  16
BRANCH   6  21
HETATM   21  C15 UNL     1      24.173   2.226  51.623  1.00  0.00     0.001 C 
HETATM   22  C16 UNL     1      24.366   1.014  52.150  1.00  0.00     0.011 C 
BRANCH  22  23
HETATM   23  C17 UNL     1      23.387   0.422  53.047  1.00  0.00    -0.036 A 
HETATM   24  C18 UNL     1      22.047   0.734  53.089  1.00  0.00     0.011 A 
HETATM   25  C19 UNL     1      21.085   0.206  53.911  1.00  0.00     0.001 A 
HETATM   26  C20 UNL     1      21.586  -0.756  54.788  1.00  0.00     0.000 A 
HETATM   27  C21 UNL     1      22.904  -1.169  54.859  1.00  0.00     0.001 A 
HETATM   28  C22 UNL     1      23.738  -0.529  53.956  1.00  0.00     0.011 A 
ENDBRANCH  22  23
ENDBRANCH   6  21
TORSDOF 11
ENDMDL
MODEL 7
REMARK VINA RESULT:      -6.5      4.279      9.625
REMARK  11 active torsions:
REMARK  status: ('A' for Active; 'I' for Inactive)
REMARK    1  A    between atoms: O1_2  and  C2_3 
REMARK    2  A    between atoms: C2_3  and  C3_4 
REMARK    3  A    between atoms: C3_4  and  C4_5 
REMARK    4  A    between atoms: C4_5  and  N1_6 
REMARK    5  A    between atoms: N1_6  and  C5_7 
REMARK    6  A    between atoms: C5_7  and  N2_8 
REMARK    7  A    between atoms: N2_8  and  C6_9 
REMARK    8  A    between atoms: C6_9  and  C7_10 
REMARK    9  A    between atoms: C10_13  and  N3_14 
REMARK       I    between atoms: N3_14  and  C11_15 
REMARK   10  A    between atoms: C14_19  and  C15_20 
REMARK   11  A    between atoms: C16_21  and  C17_22 
ROOT
HETATM    1  C7  UNL     1      20.821   0.239  53.192  1.00  0.00     0.003 C 
HETATM    2  C8  UNL     1      22.134   0.266  52.988  1.00  0.00    -0.050 C 
HETATM    3  C9  UNL     1      23.457  -0.382  53.097  1.00  0.00     0.069 C 
HETATM    4  C10 UNL     1      24.000   1.026  53.220  1.00  0.00     0.122 C 
HETATM    5  C13 UNL     1      22.862   1.384  52.338  1.00  0.00    -0.029 C 
HETATM    6  C14 UNL     1      22.610   2.286  51.401  1.00  0.00     0.010 C 
ENDROOT
BRANCH   1   7
HETATM    7  C6  UNL     1      20.089  -0.893  53.825  1.00  0.00     0.189 C 
BRANCH   7   8
HETATM    8  N2  UNL     1      18.736  -1.039  53.387  1.00  0.00    -0.226 NA
BRANCH   8   9
HETATM    9  C5  UNL     1      18.436  -0.573  52.241  1.00  0.00     0.091 C 
BRANCH   9  10
HETATM   10  N1  UNL     1      18.144   0.048  51.171  1.00  0.00    -0.226 NA
BRANCH  10  11
HETATM   11  C4  UNL     1      18.160   1.511  51.157  1.00  0.00     0.190 C 
BRANCH  11  12
HETATM   12  C3  UNL     1      18.931   2.041  50.040  1.00  0.00     0.019 C 
BRANCH  12  13
HETATM   13  C2  UNL     1      19.422   2.385  48.890  1.00  0.00     0.131 C 
BRANCH  13  14
HETATM   14  O1  UNL     1      20.041   2.873  47.787  1.00  0.00    -0.368 OA
HETATM   15  C1  UNL     1      21.447   2.661  47.618  1.00  0.00     0.208 C 
ENDBRANCH  13  14
ENDBRANCH  12  13
ENDBRANCH  11  12
ENDBRANCH  10  11
ENDBRANCH   9  10
ENDBRANCH   8   9
ENDBRANCH   7   8
ENDBRANCH   1   7
BRANCH   4  16
HETATM   16  N3  UNL     1      25.318   1.218  52.683  1.00  0.00    -0.352 N 
HETATM   17  C11 UNL     1      26.378   1.983  53.259  1.00  0.00     0.214 C 
HETATM   18  C12 UNL     1      27.573   1.909  52.362  1.00  0.00     0.117 C 
HETATM   19  O2  UNL     1      25.886   2.438  54.332  1.00  0.00    -0.274 OA
HETATM   20  H14 UNL     1      25.322   0.667  51.769  1.00  0.00     0.163 HD
ENDBRANCH   4  16
BRANCH   6  21
HETATM   21  C15 UNL     1      23.636   3.261  51.025  1.00  0.00     0.001 C 
HETATM   22  C16 UNL     1      24.215   3.141  49.828  1.00  0.00     0.011 C 
BRANCH  22  23
HETATM   23  C17 UNL     1      25.240   4.075  49.394  1.00  0.00    -0.036 A 
HETATM   24  C18 UNL     1      26.585   3.798  49.287  1.00  0.00     0.011 A 
HETATM   25  C19 UNL     1      27.588   4.639  48.884  1.00  0.00     0.001 A 
HETATM   26  C20 UNL     1      27.130   5.916  48.556  1.00  0.00     0.000 A 
HETATM   27  C21 UNL     1      25.814   6.336  48.615  1.00  0.00     0.001 A 
HETATM   28  C22 UNL     1      24.935   5.355  49.044  1.00  0.00     0.011 A 
ENDBRANCH  22  23
ENDBRANCH   6  21
TORSDOF 11
ENDMDL
MODEL 8
REMARK VINA RESULT:      -6.5      2.808      3.936
REMARK  11 active torsions:
REMARK  status: ('A' for Active; 'I' for Inactive)
REMARK    1  A    between atoms: O1_2  and  C2_3 
REMARK    2  A    between atoms: C2_3  and  C3_4 
REMARK    3  A    between atoms: C3_4  and  C4_5 
REMARK    4  A    between atoms: C4_5  and  N1_6 
REMARK    5  A    between atoms: N1_6  and  C5_7 
REMARK    6  A    between atoms: C5_7  and  N2_8 
REMARK    7  A    between atoms: N2_8  and  C6_9 
REMARK    8  A    between atoms: C6_9  and  C7_10 
REMARK    9  A    between atoms: C10_13  and  N3_14 
REMARK       I    between atoms: N3_14  and  C11_15 
REMARK   10  A    between atoms: C14_19  and  C15_20 
REMARK   11  A    between atoms: C16_21  and  C17_22 
ROOT
HETATM    1  C7  UNL     1      27.970   6.569  48.248  1.00  0.00     0.003 C 
HETATM    2  C8  UNL     1      26.724   6.209  48.537  1.00  0.00    -0.050 C 
HETATM    3  C9  UNL     1      25.273   6.487  48.501  1.00  0.00     0.069 C 
HETATM    4  C10 UNL     1      25.217   5.709  49.798  1.00  0.00     0.122 C 
HETATM    5  C13 UNL     1      26.349   4.945  49.218  1.00  0.00    -0.029 C 
HETATM    6  C14 UNL     1      26.813   3.706  49.279  1.00  0.00     0.010 C 
ENDROOT
BRANCH   1   7
HETATM    7  C6  UNL     1      28.343   7.828  47.545  1.00  0.00     0.189 C 
BRANCH   7   8
HETATM    8  N2  UNL     1      29.741   8.126  47.571  1.00  0.00    -0.226 NA
BRANCH   8   9
HETATM    9  C5  UNL     1      30.145   8.978  48.426  1.00  0.00     0.091 C 
BRANCH   9  10
HETATM   10  N1  UNL     1      30.703   9.808  49.209  1.00  0.00    -0.226 NA
BRANCH  10  11
HETATM   11  C4  UNL     1      30.767  11.222  48.837  1.00  0.00     0.190 C 
BRANCH  11  12
HETATM   12  C3  UNL     1      29.450  11.847  48.827  1.00  0.00     0.019 C 
BRANCH  12  13
HETATM   13  C2  UNL     1      28.201  12.168  48.688  1.00  0.00     0.131 C 
BRANCH  13  14
HETATM   14  O1  UNL     1      26.860  12.317  48.562  1.00  0.00    -0.368 OA
HETATM   15  C1  UNL     1      26.042  11.162  48.340  1.00  0.00     0.208 C 
ENDBRANCH  13  14
ENDBRANCH  12  13
ENDBRANCH  11  12
ENDBRANCH  10  11
ENDBRANCH   9  10
ENDBRANCH   8   9
ENDBRANCH   7   8
ENDBRANCH   1   7
BRANCH   4  16
HETATM   16  N3  UNL     1      23.997   4.985  50.019  1.00  0.00    -0.352 N 
HETATM   17  C11 UNL     1      23.206   4.975  51.209  1.00  0.00     0.214 C 
HETATM   18  C12 UNL     1      22.022   4.085  50.999  1.00  0.00     0.117 C 
HETATM   19  O2  UNL     1      23.826   5.741  52.002  1.00  0.00    -0.274 OA
HETATM   20  H14 UNL     1      23.820   4.464  49.105  1.00  0.00     0.163 HD
ENDBRANCH   4  16
BRANCH   6  21
HETATM   21  C15 UNL     1      26.129   2.705  50.101  1.00  0.00     0.001 C 
HETATM   22  C16 UNL     1      26.644   2.409  51.296  1.00  0.00     0.011 C 
BRANCH  22  23
HETATM   23  C17 UNL     1      26.015   1.425  52.161  1.00  0.00    -0.036 A 
HETATM   24  C18 UNL     1      24.667   1.154  52.219  1.00  0.00     0.011 A 
HETATM   25  C19 UNL     1      24.026   0.239  53.013  1.00  0.00     0.001 A 
HETATM   26  C20 UNL     1      24.897  -0.471  53.839  1.00  0.00     0.000 A 
HETATM   27  C21 UNL     1      26.269  -0.307  53.889  1.00  0.00     0.001 A 
HETATM   28  C22 UNL     1      26.746   0.661  53.019  1.00  0.00     0.011 A 
ENDBRANCH  22  23
ENDBRANCH   6  21
TORSDOF 11
ENDMDL
MODEL 9
REMARK VINA RESULT:      -6.5      6.454     10.595
REMARK  11 active torsions:
REMARK  status: ('A' for Active; 'I' for Inactive)
REMARK    1  A    between atoms: O1_2  and  C2_3 
REMARK    2  A    between atoms: C2_3  and  C3_4 
REMARK    3  A    between atoms: C3_4  and  C4_5 
REMARK    4  A    between atoms: C4_5  and  N1_6 
REMARK    5  A    between atoms: N1_6  and  C5_7 
REMARK    6  A    between atoms: C5_7  and  N2_8 
REMARK    7  A    between atoms: N2_8  and  C6_9 
REMARK    8  A    between atoms: C6_9  and  C7_10 
REMARK    9  A    between atoms: C10_13  and  N3_14 
REMARK       I    between atoms: N3_14  and  C11_15 
REMARK   10  A    between atoms: C14_19  and  C15_20 
REMARK   11  A    between atoms: C16_21  and  C17_22 
ROOT
HETATM    1  C7  UNL     1      20.690   2.490  49.551  1.00  0.00     0.003 C 
HETATM    2  C8  UNL     1      20.983   1.586  50.480  1.00  0.00    -0.050 C 
HETATM    3  C9  UNL     1      20.590   0.418  51.294  1.00  0.00     0.069 C 
HETATM    4  C10 UNL     1      21.510   0.996  52.348  1.00  0.00     0.122 C 
HETATM    5  C13 UNL     1      22.285   1.496  51.185  1.00  0.00    -0.029 C 
HETATM    6  C14 UNL     1      23.555   1.746  50.905  1.00  0.00     0.010 C 
ENDROOT
BRANCH   1   7
HETATM    7  C6  UNL     1      19.389   2.566  48.829  1.00  0.00     0.189 C 
BRANCH   7   8
HETATM    8  N2  UNL     1      18.746   3.840  48.905  1.00  0.00    -0.226 NA
BRANCH   8   9
HETATM    9  C5  UNL     1      17.641   3.905  49.532  1.00  0.00     0.091 C 
BRANCH   9  10
HETATM   10  N1  UNL     1      16.582   3.820  50.230  1.00  0.00    -0.226 NA
BRANCH  10  11
HETATM   11  C4  UNL     1      16.673   3.423  51.635  1.00  0.00     0.190 C 
BRANCH  11  12
HETATM   12  C3  UNL     1      15.566   3.945  52.426  1.00  0.00     0.019 C 
BRANCH  12  13
HETATM   13  C2  UNL     1      14.757   4.374  53.345  1.00  0.00     0.131 C 
BRANCH  13  14
HETATM   14  O1  UNL     1      13.771   4.753  54.194  1.00  0.00    -0.368 OA
HETATM   15  C1  UNL     1      12.416   4.386  53.907  1.00  0.00     0.208 C 
ENDBRANCH  13  14
ENDBRANCH  12  13
ENDBRANCH  11  12
ENDBRANCH  10  11
ENDBRANCH   9  10
ENDBRANCH   8   9
ENDBRANCH   7   8
ENDBRANCH   1   7
BRANCH   4  16
HETATM   16  N3  UNL     1      22.157   0.028  53.187  1.00  0.00    -0.352 N 
HETATM   17  C11 UNL     1      21.805  -0.321  54.527  1.00  0.00     0.214 C 
HETATM   18  C12 UNL     1      22.748  -1.373  55.018  1.00  0.00     0.117 C 
HETATM   19  O2  UNL     1      20.808   0.412  54.788  1.00  0.00    -0.274 OA
HETATM   20  H14 UNL     1      22.950  -0.363  52.590  1.00  0.00     0.163 HD
ENDBRANCH   4  16
BRANCH   6  21
HETATM   21  C15 UNL     1      24.590   1.516  51.915  1.00  0.00     0.001 C 
HETATM   22  C16 UNL     1      25.863   1.458  51.515  1.00  0.00     0.011 C 
BRANCH  22  23
HETATM   23  C17 UNL     1      26.938   1.232  52.466  1.00  0.00    -0.036 A 
HETATM   24  C18 UNL     1      27.261   0.023  53.040  1.00  0.00     0.011 A 
HETATM   25  C19 UNL     1      28.261  -0.242  53.938  1.00  0.00     0.001 A 
HETATM   26  C20 UNL     1      29.007   0.889  54.272  1.00  0.00     0.000 A 
HETATM   27  C21 UNL     1      28.799   2.163  53.777  1.00  0.00     0.001 A 
HETATM   28  C22 UNL     1      27.745   2.247  52.882  1.00  0.00     0.011 A 
ENDBRANCH  22  23
ENDBRANCH   6  21
TORSDOF 11
ENDMDL
