MODEL 1
REMARK VINA RESULT:      -6.9      0.000      0.000
REMARK  9 active torsions:
REMARK  status: ('A' for Active; 'I' for Inactive)
REMARK    1  A    between atoms: O1_2  and  C2_3 
REMARK    2  A    between atoms: C8_11  and  O2_12 
REMARK    3  A    between atoms: O2_12  and  C9_13 
REMARK    4  A    between atoms: C9_13  and  C10_14 
REMARK    5  A    between atoms: C10_14  and  C11_15 
REMARK    6  A    between atoms: C11_15  and  C12_16 
REMARK    7  A    between atoms: C13_17  and  C14_19 
REMARK    8  A    between atoms: C14_19  and  C15_21 
REMARK    9  A    between atoms: C15_21  and  N3_22 
ROOT
HETATM    1  O2  UNL     1      26.158   1.764  52.747  1.00  0.00    -0.345 OA
ENDROOT
BRANCH   1   2
HETATM    2  C8  UNL     1      25.475   0.754  53.410  1.00  0.00     0.101 C 
HETATM    3  C2  UNL     1      26.051   0.216  54.672  1.00  0.00     0.103 C 
HETATM    4  C3  UNL     1      25.445  -0.721  55.444  1.00  0.00     0.069 C 
HETATM    5  C4  UNL     1      24.140  -0.945  54.880  1.00  0.00     0.067 A 
HETATM    6  N1  UNL     1      23.099  -1.383  55.529  1.00  0.00    -0.244 NA
HETATM    7  C6  UNL     1      23.670  -0.744  53.524  1.00  0.00     0.186 A 
HETATM    8  C5  UNL     1      21.956  -1.470  54.690  1.00  0.00     0.228 A 
HETATM    9  N2  UNL     1      22.316  -1.071  53.485  1.00  0.00    -0.267 NA
HETATM   10  C7  UNL     1      24.321   0.334  52.845  1.00  0.00     0.046 C 
BRANCH   3  11
HETATM   11  O1  UNL     1      27.334   0.710  54.985  1.00  0.00    -0.353 OA
HETATM   12  C1  UNL     1      28.441  -0.091  54.616  1.00  0.00     0.210 C 
ENDBRANCH   3  11
ENDBRANCH   1   2
BRANCH   1  13
HETATM   13  C9  UNL     1      26.660   1.684  51.442  1.00  0.00     0.203 C 
BRANCH  13  14
HETATM   14  C10 UNL     1      26.465   2.957  50.707  1.00  0.00    -0.000 C 
BRANCH  14  15
HETATM   15  C11 UNL     1      26.295   3.810  49.721  1.00  0.00     0.001 C 
BRANCH  15  16
HETATM   16  C12 UNL     1      26.076   5.221  49.471  1.00  0.00     0.044 C 
HETATM   17  C13 UNL     1      27.073   5.573  48.677  1.00  0.00     0.140 C 
HETATM   18  F1  UNL     1      27.921   4.564  48.375  1.00  0.00    -0.204 F 
BRANCH  17  19
HETATM   19  C14 UNL     1      26.753   6.983  48.497  1.00  0.00     0.103 C 
HETATM   20 CL1  UNL     1      26.041   7.753  47.097  1.00  0.00    -0.079 Cl
BRANCH  19  21
HETATM   21  C15 UNL     1      26.969   7.919  49.411  1.00  0.00     0.102 C 
BRANCH  21  22
HETATM   22  N3  UNL     1      26.949   8.534  50.547  1.00  0.00    -0.296 NA
HETATM   23  H13 UNL     1      27.362   9.492  50.553  1.00  0.00     0.187 HD
ENDBRANCH  21  22
ENDBRANCH  19  21
ENDBRANCH  17  19
ENDBRANCH  15  16
ENDBRANCH  14  15
ENDBRANCH  13  14
ENDBRANCH   1  13
TORSDOF 9
ENDMDL
MODEL 2
REMARK VINA RESULT:      -6.9      2.526      3.697
REMARK  9 active torsions:
REMARK  status: ('A' for Active; 'I' for Inactive)
REMARK    1  A    between atoms: O1_2  and  C2_3 
REMARK    2  A    between atoms: C8_11  and  O2_12 
REMARK    3  A    between atoms: O2_12  and  C9_13 
REMARK    4  A    between atoms: C9_13  and  C10_14 
REMARK    5  A    between atoms: C10_14  and  C11_15 
REMARK    6  A    between atoms: C11_15  and  C12_16 
REMARK    7  A    between atoms: C13_17  and  C14_19 
REMARK    8  A    between atoms: C14_19  and  C15_21 
REMARK    9  A    between atoms: C15_21  and  N3_22 
ROOT
HETATM    1  O2  UNL     1      26.070   2.837  51.363  1.00  0.00    -0.345 OA
ENDROOT
BRANCH   1   2
HETATM    2  C8  UNL     1      26.543   1.812  52.169  1.00  0.00     0.101 C 
HETATM    3  C2  UNL     1      25.644   0.659  52.452  1.00  0.00     0.103 C 
HETATM    4  C3  UNL     1      26.013  -0.433  53.167  1.00  0.00     0.069 C 
HETATM    5  C4  UNL     1      27.421  -0.298  53.439  1.00  0.00     0.067 A 
HETATM    6  N1  UNL     1      28.245  -1.279  53.671  1.00  0.00    -0.244 NA
HETATM    7  C6  UNL     1      28.239   0.896  53.510  1.00  0.00     0.186 A 
HETATM    8  C5  UNL     1      29.571  -0.812  53.876  1.00  0.00     0.228 A 
HETATM    9  N2  UNL     1      29.552   0.503  53.766  1.00  0.00    -0.267 NA
HETATM   10  C7  UNL     1      27.803   1.944  52.640  1.00  0.00     0.046 C 
BRANCH   3  11
HETATM   11  O1  UNL     1      24.328   0.813  51.970  1.00  0.00    -0.353 OA
HETATM   12  C1  UNL     1      23.320   1.085  52.926  1.00  0.00     0.210 C 
ENDBRANCH   3  11
ENDBRANCH   1   2
BRANCH   1  13
HETATM   13  C9  UNL     1      26.324   2.977  49.993  1.00  0.00     0.203 C 
BRANCH  13  14
HETATM   14  C10 UNL     1      26.293   4.401  49.579  1.00  0.00    -0.000 C 
BRANCH  14  15
HETATM   15  C11 UNL     1      26.512   5.502  48.893  1.00  0.00     0.001 C 
BRANCH  15  16
HETATM   16  C12 UNL     1      26.689   6.929  49.072  1.00  0.00     0.044 C 
HETATM   17  C13 UNL     1      27.803   7.208  48.415  1.00  0.00     0.140 C 
HETATM   18  F1  UNL     1      28.379   6.136  47.826  1.00  0.00    -0.204 F 
BRANCH  17  19
HETATM   19  C14 UNL     1      27.877   8.642  48.660  1.00  0.00     0.103 C 
HETATM   20 CL1  UNL     1      28.349   9.902  47.542  1.00  0.00    -0.079 Cl
BRANCH  19  21
HETATM   21  C15 UNL     1      27.583   9.216  49.819  1.00  0.00     0.102 C 
BRANCH  21  22
HETATM   22  N3  UNL     1      27.673   9.557  51.063  1.00  0.00    -0.296 NA
HETATM   23  H13 UNL     1      27.888  10.561  51.244  1.00  0.00     0.187 HD
ENDBRANCH  21  22
ENDBRANCH  19  21
ENDBRANCH  17  19
ENDBRANCH  15  16
ENDBRANCH  14  15
ENDBRANCH  13  14
ENDBRANCH   1  13
TORSDOF 9
ENDMDL
MODEL 3
REMARK VINA RESULT:      -6.9      4.462      7.041
REMARK  9 active torsions:
REMARK  status: ('A' for Active; 'I' for Inactive)
REMARK    1  A    between atoms: O1_2  and  C2_3 
REMARK    2  A    between atoms: C8_11  and  O2_12 
REMARK    3  A    between atoms: O2_12  and  C9_13 
REMARK    4  A    between atoms: C9_13  and  C10_14 
REMARK    5  A    between atoms: C10_14  and  C11_15 
REMARK    6  A    between atoms: C11_15  and  C12_16 
REMARK    7  A    between atoms: C13_17  and  C14_19 
REMARK    8  A    between atoms: C14_19  and  C15_21 
REMARK    9  A    between atoms: C15_21  and  N3_22 
ROOT
HETATM    1  O2  UNL     1      25.648  -1.086  54.538  1.00  0.00    -0.345 OA
ENDROOT
BRANCH   1   2
HETATM    2  C8  UNL     1      26.053   0.054  53.859  1.00  0.00     0.101 C 
HETATM    3  C2  UNL     1      27.508   0.357  53.787  1.00  0.00     0.103 C 
HETATM    4  C3  UNL     1      28.033   1.402  53.097  1.00  0.00     0.069 C 
HETATM    5  C4  UNL     1      26.946   2.014  52.379  1.00  0.00     0.067 A 
HETATM    6  N1  UNL     1      27.059   2.712  51.285  1.00  0.00    -0.244 NA
HETATM    7  C6  UNL     1      25.525   2.005  52.665  1.00  0.00     0.186 A 
HETATM    8  C5  UNL     1      25.794   3.155  50.813  1.00  0.00     0.228 A 
HETATM    9  N2  UNL     1      24.878   2.712  51.652  1.00  0.00    -0.267 NA
HETATM   10  C7  UNL     1      25.076   0.810  53.310  1.00  0.00     0.046 C 
BRANCH   3  11
HETATM   11  O1  UNL     1      28.322  -0.498  54.558  1.00  0.00    -0.353 OA
HETATM   12  C1  UNL     1      29.533  -0.936  53.972  1.00  0.00     0.210 C 
ENDBRANCH   3  11
ENDBRANCH   1   2
BRANCH   1  13
HETATM   13  C9  UNL     1      24.908  -1.103  55.727  1.00  0.00     0.203 C 
BRANCH  13  14
HETATM   14  C10 UNL     1      23.464  -1.316  55.464  1.00  0.00    -0.000 C 
BRANCH  14  15
HETATM   15  C11 UNL     1      22.257  -1.173  54.961  1.00  0.00     0.001 C 
BRANCH  15  16
HETATM   16  C12 UNL     1      21.573  -0.994  53.695  1.00  0.00     0.044 C 
HETATM   17  C13 UNL     1      20.700  -0.026  53.927  1.00  0.00     0.140 C 
HETATM   18  F1  UNL     1      20.729   0.451  55.191  1.00  0.00    -0.204 F 
BRANCH  17  19
HETATM   19  C14 UNL     1      20.085   0.065  52.610  1.00  0.00     0.103 C 
HETATM   20 CL1  UNL     1      18.460  -0.389  52.148  1.00  0.00    -0.079 Cl
BRANCH  19  21
HETATM   21  C15 UNL     1      20.702   0.525  51.530  1.00  0.00     0.102 C 
BRANCH  21  22
HETATM   22  N3  UNL     1      21.285   0.536  50.376  1.00  0.00    -0.296 NA
HETATM   23  H13 UNL     1      20.920   1.230  49.689  1.00  0.00     0.187 HD
ENDBRANCH  21  22
ENDBRANCH  19  21
ENDBRANCH  17  19
ENDBRANCH  15  16
ENDBRANCH  14  15
ENDBRANCH  13  14
ENDBRANCH   1  13
TORSDOF 9
ENDMDL
MODEL 4
REMARK VINA RESULT:      -6.9      2.198      3.249
REMARK  9 active torsions:
REMARK  status: ('A' for Active; 'I' for Inactive)
REMARK    1  A    between atoms: O1_2  and  C2_3 
REMARK    2  A    between atoms: C8_11  and  O2_12 
REMARK    3  A    between atoms: O2_12  and  C9_13 
REMARK    4  A    between atoms: C9_13  and  C10_14 
REMARK    5  A    between atoms: C10_14  and  C11_15 
REMARK    6  A    between atoms: C11_15  and  C12_16 
REMARK    7  A    between atoms: C13_17  and  C14_19 
REMARK    8  A    between atoms: C14_19  and  C15_21 
REMARK    9  A    between atoms: C15_21  and  N3_22 
ROOT
HETATM    1  O2  UNL     1      23.505   1.836  52.231  1.00  0.00    -0.345 OA
ENDROOT
BRANCH   1   2
HETATM    2  C8  UNL     1      24.458   1.285  53.075  1.00  0.00     0.101 C 
HETATM    3  C2  UNL     1      24.198  -0.058  53.660  1.00  0.00     0.103 C 
HETATM    4  C3  UNL     1      25.080  -0.730  54.442  1.00  0.00     0.069 C 
HETATM    5  C4  UNL     1      26.299   0.037  54.449  1.00  0.00     0.067 A 
HETATM    6  N1  UNL     1      27.491  -0.438  54.667  1.00  0.00    -0.244 NA
HETATM    7  C6  UNL     1      26.503   1.453  54.218  1.00  0.00     0.186 A 
HETATM    8  C5  UNL     1      28.483   0.575  54.578  1.00  0.00     0.228 A 
HETATM    9  N2  UNL     1      27.871   1.709  54.296  1.00  0.00    -0.267 NA
HETATM   10  C7  UNL     1      25.566   2.026  53.301  1.00  0.00     0.046 C 
BRANCH   3  11
HETATM   11  O1  UNL     1      22.911  -0.572  53.394  1.00  0.00    -0.353 OA
HETATM   12  C1  UNL     1      22.281  -1.298  54.431  1.00  0.00     0.210 C 
ENDBRANCH   3  11
ENDBRANCH   1   2
BRANCH   1  13
HETATM   13  C9  UNL     1      23.529   1.780  50.832  1.00  0.00     0.203 C 
BRANCH  13  14
HETATM   14  C10 UNL     1      24.207   2.965  50.254  1.00  0.00    -0.000 C 
BRANCH  14  15
HETATM   15  C11 UNL     1      25.013   3.703  49.522  1.00  0.00     0.001 C 
BRANCH  15  16
HETATM   16  C12 UNL     1      25.363   5.087  49.270  1.00  0.00     0.044 C 
HETATM   17  C13 UNL     1      26.651   5.051  48.968  1.00  0.00     0.140 C 
HETATM   18  F1  UNL     1      27.188   3.811  48.992  1.00  0.00    -0.204 F 
BRANCH  17  19
HETATM   19  C14 UNL     1      26.885   6.470  48.739  1.00  0.00     0.103 C 
HETATM   20 CL1  UNL     1      27.645   7.225  47.356  1.00  0.00    -0.079 Cl
BRANCH  19  21
HETATM   21  C15 UNL     1      26.539   7.429  49.587  1.00  0.00     0.102 C 
BRANCH  21  22
HETATM   22  N3  UNL     1      26.432   8.095  50.689  1.00  0.00    -0.296 NA
HETATM   23  H13 UNL     1      25.999   9.041  50.609  1.00  0.00     0.187 HD
ENDBRANCH  21  22
ENDBRANCH  19  21
ENDBRANCH  17  19
ENDBRANCH  15  16
ENDBRANCH  14  15
ENDBRANCH  13  14
ENDBRANCH   1  13
TORSDOF 9
ENDMDL
MODEL 5
REMARK VINA RESULT:      -6.9      2.504      3.536
REMARK  9 active torsions:
REMARK  status: ('A' for Active; 'I' for Inactive)
REMARK    1  A    between atoms: O1_2  and  C2_3 
REMARK    2  A    between atoms: C8_11  and  O2_12 
REMARK    3  A    between atoms: O2_12  and  C9_13 
REMARK    4  A    between atoms: C9_13  and  C10_14 
REMARK    5  A    between atoms: C10_14  and  C11_15 
REMARK    6  A    between atoms: C11_15  and  C12_16 
REMARK    7  A    between atoms: C13_17  and  C14_19 
REMARK    8  A    between atoms: C14_19  and  C15_21 
REMARK    9  A    between atoms: C15_21  and  N3_22 
ROOT
HETATM    1  O2  UNL     1      23.472   1.889  52.448  1.00  0.00    -0.345 OA
ENDROOT
BRANCH   1   2
HETATM    2  C8  UNL     1      24.477   1.284  53.187  1.00  0.00     0.101 C 
HETATM    3  C2  UNL     1      24.299  -0.135  53.600  1.00  0.00     0.103 C 
HETATM    4  C3  UNL     1      25.237  -0.856  54.266  1.00  0.00     0.069 C 
HETATM    5  C4  UNL     1      26.418  -0.035  54.340  1.00  0.00     0.067 A 
HETATM    6  N1  UNL     1      27.638  -0.473  54.463  1.00  0.00    -0.244 NA
HETATM    7  C6  UNL     1      26.548   1.407  54.288  1.00  0.00     0.186 A 
HETATM    8  C5  UNL     1      28.578   0.592  54.480  1.00  0.00     0.228 A 
HETATM    9  N2  UNL     1      27.904   1.720  54.364  1.00  0.00    -0.267 NA
HETATM   10  C7  UNL     1      25.556   2.045  53.479  1.00  0.00     0.046 C 
BRANCH   3  11
HETATM   11  O1  UNL     1      23.031  -0.675  53.304  1.00  0.00    -0.353 OA
HETATM   12  C1  UNL     1      22.168  -0.930  54.396  1.00  0.00     0.210 C 
ENDBRANCH   3  11
ENDBRANCH   1   2
BRANCH   1  13
HETATM   13  C9  UNL     1      23.505   3.198  51.952  1.00  0.00     0.203 C 
BRANCH  13  14
HETATM   14  C10 UNL     1      24.128   3.254  50.607  1.00  0.00    -0.000 C 
BRANCH  14  15
HETATM   15  C11 UNL     1      24.844   3.668  49.585  1.00  0.00     0.001 C 
BRANCH  15  16
HETATM   16  C12 UNL     1      25.658   4.787  49.153  1.00  0.00     0.044 C 
HETATM   17  C13 UNL     1      26.860   4.267  48.964  1.00  0.00     0.140 C 
HETATM   18  F1  UNL     1      26.933   2.942  49.220  1.00  0.00    -0.204 F 
BRANCH  17  19
HETATM   19  C14 UNL     1      27.577   5.462  48.540  1.00  0.00     0.103 C 
HETATM   20 CL1  UNL     1      26.905   6.971  47.964  1.00  0.00    -0.079 Cl
BRANCH  19  21
HETATM   21  C15 UNL     1      28.898   5.574  48.531  1.00  0.00     0.102 C 
BRANCH  21  22
HETATM   22  N3  UNL     1      30.104   5.753  48.957  1.00  0.00    -0.296 NA
HETATM   23  H13 UNL     1      30.316   6.701  49.338  1.00  0.00     0.187 HD
ENDBRANCH  21  22
ENDBRANCH  19  21
ENDBRANCH  17  19
ENDBRANCH  15  16
ENDBRANCH  14  15
ENDBRANCH  13  14
ENDBRANCH   1  13
TORSDOF 9
ENDMDL
MODEL 6
REMARK VINA RESULT:      -6.5      4.612      7.168
REMARK  9 active torsions:
REMARK  status: ('A' for Active; 'I' for Inactive)
REMARK    1  A    between atoms: O1_2  and  C2_3 
REMARK    2  A    between atoms: C8_11  and  O2_12 
REMARK    3  A    between atoms: O2_12  and  C9_13 
REMARK    4  A    between atoms: C9_13  and  C10_14 
REMARK    5  A    between atoms: C10_14  and  C11_15 
REMARK    6  A    between atoms: C11_15  and  C12_16 
REMARK    7  A    between atoms: C13_17  and  C14_19 
REMARK    8  A    between atoms: C14_19  and  C15_21 
REMARK    9  A    between atoms: C15_21  and  N3_22 
ROOT
HETATM    1  O2  UNL     1      22.191   1.305  53.162  1.00  0.00    -0.345 OA
ENDROOT
BRANCH   1   2
HETATM    2  C8  UNL     1      22.398   2.413  52.355  1.00  0.00     0.101 C 
HETATM    3  C2  UNL     1      21.275   3.371  52.162  1.00  0.00     0.103 C 
HETATM    4  C3  UNL     1      21.374   4.524  51.453  1.00  0.00     0.069 C 
HETATM    5  C4  UNL     1      22.758   4.670  51.085  1.00  0.00     0.067 A 
HETATM    6  N1  UNL     1      23.358   5.796  50.825  1.00  0.00    -0.244 NA
HETATM    7  C6  UNL     1      23.786   3.660  50.928  1.00  0.00     0.186 A 
HETATM    8  C5  UNL     1      24.732   5.600  50.520  1.00  0.00     0.228 A 
HETATM    9  N2  UNL     1      24.976   4.305  50.596  1.00  0.00    -0.267 NA
HETATM   10  C7  UNL     1      23.624   2.535  51.798  1.00  0.00     0.046 C 
BRANCH   3  11
HETATM   11  O1  UNL     1      20.051   2.957  52.725  1.00  0.00    -0.353 OA
HETATM   12  C1  UNL     1      19.154   2.264  51.878  1.00  0.00     0.210 C 
ENDBRANCH   3  11
ENDBRANCH   1   2
BRANCH   1  13
HETATM   13  C9  UNL     1      22.416  -0.026  52.788  1.00  0.00     0.203 C 
BRANCH  13  14
HETATM   14  C10 UNL     1      23.720  -0.518  53.294  1.00  0.00    -0.000 C 
BRANCH  14  15
HETATM   15  C11 UNL     1      24.966  -0.531  53.716  1.00  0.00     0.001 C 
BRANCH  15  16
HETATM   16  C12 UNL     1      26.307  -0.185  53.290  1.00  0.00     0.044 C 
HETATM   17  C13 UNL     1      26.930   0.157  54.406  1.00  0.00     0.140 C 
HETATM   18  F1  UNL     1      26.158   0.078  55.513  1.00  0.00    -0.204 F 
BRANCH  17  19
HETATM   19  C14 UNL     1      28.242   0.477  53.863  1.00  0.00     0.103 C 
HETATM   20 CL1  UNL     1      29.673  -0.530  53.844  1.00  0.00    -0.079 Cl
BRANCH  19  21
HETATM   21  C15 UNL     1      28.549   1.630  53.283  1.00  0.00     0.102 C 
BRANCH  21  22
HETATM   22  N3  UNL     1      28.831   2.883  53.147  1.00  0.00    -0.296 NA
HETATM   23  H13 UNL     1      29.150   3.177  52.198  1.00  0.00     0.187 HD
ENDBRANCH  21  22
ENDBRANCH  19  21
ENDBRANCH  17  19
ENDBRANCH  15  16
ENDBRANCH  14  15
ENDBRANCH  13  14
ENDBRANCH   1  13
TORSDOF 9
ENDMDL
MODEL 7
REMARK VINA RESULT:      -6.4      5.244      7.752
REMARK  9 active torsions:
REMARK  status: ('A' for Active; 'I' for Inactive)
REMARK    1  A    between atoms: O1_2  and  C2_3 
REMARK    2  A    between atoms: C8_11  and  O2_12 
REMARK    3  A    between atoms: O2_12  and  C9_13 
REMARK    4  A    between atoms: C9_13  and  C10_14 
REMARK    5  A    between atoms: C10_14  and  C11_15 
REMARK    6  A    between atoms: C11_15  and  C12_16 
REMARK    7  A    between atoms: C13_17  and  C14_19 
REMARK    8  A    between atoms: C14_19  and  C15_21 
REMARK    9  A    between atoms: C15_21  and  N3_22 
ROOT
HETATM    1  O2  UNL     1      24.288  -0.487  53.308  1.00  0.00    -0.345 OA
ENDROOT
BRANCH   1   2
HETATM    2  C8  UNL     1      25.643  -0.193  53.257  1.00  0.00     0.101 C 
HETATM    3  C2  UNL     1      26.066   1.229  53.365  1.00  0.00     0.103 C 
HETATM    4  C3  UNL     1      27.361   1.636  53.397  1.00  0.00     0.069 C 
HETATM    5  C4  UNL     1      28.170   0.446  53.452  1.00  0.00     0.067 A 
HETATM    6  N1  UNL     1      29.373   0.371  53.944  1.00  0.00    -0.244 NA
HETATM    7  C6  UNL     1      27.869  -0.900  53.007  1.00  0.00     0.186 A 
HETATM    8  C5  UNL     1      29.888  -0.952  53.870  1.00  0.00     0.228 A 
HETATM    9  N2  UNL     1      28.963  -1.708  53.311  1.00  0.00    -0.267 NA
HETATM   10  C7  UNL     1      26.484  -1.242  53.110  1.00  0.00     0.046 C 
BRANCH   3  11
HETATM   11  O1  UNL     1      25.004   2.156  53.366  1.00  0.00    -0.353 OA
HETATM   12  C1  UNL     1      24.634   2.713  52.119  1.00  0.00     0.210 C 
ENDBRANCH   3  11
ENDBRANCH   1   2
BRANCH   1  13
HETATM   13  C9  UNL     1      23.576  -0.839  54.461  1.00  0.00     0.203 C 
BRANCH  13  14
HETATM   14  C10 UNL     1      22.118  -0.641  54.279  1.00  0.00    -0.000 C 
BRANCH  14  15
HETATM   15  C11 UNL     1      20.972  -0.136  53.878  1.00  0.00     0.001 C 
BRANCH  15  16
HETATM   16  C12 UNL     1      19.651  -0.539  53.436  1.00  0.00     0.044 C 
HETATM   17  C13 UNL     1      19.498   0.061  52.266  1.00  0.00     0.140 C 
HETATM   18  F1  UNL     1      20.559   0.807  51.887  1.00  0.00    -0.204 F 
BRANCH  17  19
HETATM   19  C14 UNL     1      18.163  -0.409  51.926  1.00  0.00     0.103 C 
HETATM   20 CL1  UNL     1      17.090  -1.395  52.895  1.00  0.00    -0.079 Cl
BRANCH  19  21
HETATM   21  C15 UNL     1      17.548  -0.143  50.782  1.00  0.00     0.102 C 
BRANCH  21  22
HETATM   22  N3  UNL     1      17.376   0.148  49.535  1.00  0.00    -0.296 NA
HETATM   23  H13 UNL     1      16.914   1.063  49.340  1.00  0.00     0.187 HD
ENDBRANCH  21  22
ENDBRANCH  19  21
ENDBRANCH  17  19
ENDBRANCH  15  16
ENDBRANCH  14  15
ENDBRANCH  13  14
ENDBRANCH   1  13
TORSDOF 9
ENDMDL
MODEL 8
REMARK VINA RESULT:      -6.3      1.488      1.842
REMARK  9 active torsions:
REMARK  status: ('A' for Active; 'I' for Inactive)
REMARK    1  A    between atoms: O1_2  and  C2_3 
REMARK    2  A    between atoms: C8_11  and  O2_12 
REMARK    3  A    between atoms: O2_12  and  C9_13 
REMARK    4  A    between atoms: C9_13  and  C10_14 
REMARK    5  A    between atoms: C10_14  and  C11_15 
REMARK    6  A    between atoms: C11_15  and  C12_16 
REMARK    7  A    between atoms: C13_17  and  C14_19 
REMARK    8  A    between atoms: C14_19  and  C15_21 
REMARK    9  A    between atoms: C15_21  and  N3_22 
ROOT
HETATM    1  O2  UNL     1      24.370   2.197  51.114  1.00  0.00    -0.345 OA
ENDROOT
BRANCH   1   2
HETATM    2  C8  UNL     1      24.058   1.158  51.977  1.00  0.00     0.101 C 
HETATM    3  C2  UNL     1      25.166   0.473  52.696  1.00  0.00     0.103 C 
HETATM    4  C3  UNL     1      24.984  -0.509  53.615  1.00  0.00     0.069 C 
HETATM    5  C4  UNL     1      23.564  -0.621  53.829  1.00  0.00     0.067 A 
HETATM    6  N1  UNL     1      22.995  -1.076  54.907  1.00  0.00    -0.244 NA
HETATM    7  C6  UNL     1      22.465  -0.267  52.953  1.00  0.00     0.186 A 
HETATM    8  C5  UNL     1      21.578  -1.031  54.811  1.00  0.00     0.228 A 
HETATM    9  N2  UNL     1      21.275  -0.530  53.628  1.00  0.00    -0.267 NA
HETATM   10  C7  UNL     1      22.748   0.844  52.097  1.00  0.00     0.046 C 
BRANCH   3  11
HETATM   11  O1  UNL     1      26.457   0.879  52.300  1.00  0.00    -0.353 OA
HETATM   12  C1  UNL     1      27.173   1.713  53.191  1.00  0.00     0.210 C 
ENDBRANCH   3  11
ENDBRANCH   1   2
BRANCH   1  13
HETATM   13  C9  UNL     1      24.276   3.561  51.417  1.00  0.00     0.203 C 
BRANCH  13  14
HETATM   14  C10 UNL     1      25.048   4.385  50.455  1.00  0.00    -0.000 C 
BRANCH  14  15
HETATM   15  C11 UNL     1      25.373   5.358  49.632  1.00  0.00     0.001 C 
BRANCH  15  16
HETATM   16  C12 UNL     1      25.835   6.732  49.632  1.00  0.00     0.044 C 
HETATM   17  C13 UNL     1      26.905   6.719  48.853  1.00  0.00     0.140 C 
HETATM   18  F1  UNL     1      27.200   5.503  48.342  1.00  0.00    -0.204 F 
BRANCH  17  19
HETATM   19  C14 UNL     1      27.275   8.126  48.927  1.00  0.00     0.103 C 
HETATM   20 CL1  UNL     1      27.864   9.152  47.638  1.00  0.00    -0.079 Cl
BRANCH  19  21
HETATM   21  C15 UNL     1      27.215   8.855  50.032  1.00  0.00     0.102 C 
BRANCH  21  22
HETATM   22  N3  UNL     1      27.601   9.533  51.062  1.00  0.00    -0.296 NA
HETATM   23  H13 UNL     1      28.632   9.660  51.163  1.00  0.00     0.187 HD
ENDBRANCH  21  22
ENDBRANCH  19  21
ENDBRANCH  17  19
ENDBRANCH  15  16
ENDBRANCH  14  15
ENDBRANCH  13  14
ENDBRANCH   1  13
TORSDOF 9
ENDMDL
MODEL 9
REMARK VINA RESULT:      -6.2      2.848      3.890
REMARK  9 active torsions:
REMARK  status: ('A' for Active; 'I' for Inactive)
REMARK    1  A    between atoms: O1_2  and  C2_3 
REMARK    2  A    between atoms: C8_11  and  O2_12 
REMARK    3  A    between atoms: O2_12  and  C9_13 
REMARK    4  A    between atoms: C9_13  and  C10_14 
REMARK    5  A    between atoms: C10_14  and  C11_15 
REMARK    6  A    between atoms: C11_15  and  C12_16 
REMARK    7  A    between atoms: C13_17  and  C14_19 
REMARK    8  A    between atoms: C14_19  and  C15_21 
REMARK    9  A    between atoms: C15_21  and  N3_22 
ROOT
HETATM    1  O2  UNL     1      25.087   2.107  51.143  1.00  0.00    -0.345 OA
ENDROOT
BRANCH   1   2
HETATM    2  C8  UNL     1      25.791   1.478  52.159  1.00  0.00     0.101 C 
HETATM    3  C2  UNL     1      25.069   0.512  53.031  1.00  0.00     0.103 C 
HETATM    4  C3  UNL     1      25.662  -0.215  54.012  1.00  0.00     0.069 C 
HETATM    5  C4  UNL     1      27.077   0.033  53.918  1.00  0.00     0.067 A 
HETATM    6  N1  UNL     1      28.016  -0.771  54.326  1.00  0.00    -0.244 NA
HETATM    7  C6  UNL     1      27.782   1.173  53.366  1.00  0.00     0.186 A 
HETATM    8  C5  UNL     1      29.309  -0.243  54.065  1.00  0.00     0.228 A 
HETATM    9  N2  UNL     1      29.150   0.927  53.476  1.00  0.00    -0.267 NA
HETATM   10  C7  UNL     1      27.099   1.799  52.276  1.00  0.00     0.046 C 
BRANCH   3  11
HETATM   11  O1  UNL     1      23.678   0.451  52.808  1.00  0.00    -0.353 OA
HETATM   12  C1  UNL     1      22.984  -0.647  53.371  1.00  0.00     0.210 C 
ENDBRANCH   3  11
ENDBRANCH   1   2
BRANCH   1  13
HETATM   13  C9  UNL     1      24.874   3.487  51.037  1.00  0.00     0.203 C 
BRANCH  13  14
HETATM   14  C10 UNL     1      25.648   4.070  49.913  1.00  0.00    -0.000 C 
BRANCH  14  15
HETATM   15  C11 UNL     1      26.297   4.938  49.168  1.00  0.00     0.001 C 
BRANCH  15  16
HETATM   16  C12 UNL     1      27.582   5.144  48.531  1.00  0.00     0.044 C 
HETATM   17  C13 UNL     1      27.709   6.459  48.462  1.00  0.00     0.140 C 
HETATM   18  F1  UNL     1      26.661   7.141  48.977  1.00  0.00    -0.204 F 
BRANCH  17  19
HETATM   19  C14 UNL     1      29.012   6.544  47.818  1.00  0.00     0.103 C 
HETATM   20 CL1  UNL     1      30.398   5.503  48.055  1.00  0.00    -0.079 Cl
BRANCH  19  21
HETATM   21  C15 UNL     1      29.343   7.464  46.923  1.00  0.00     0.102 C 
BRANCH  21  22
HETATM   22  N3  UNL     1      29.805   7.992  45.837  1.00  0.00    -0.296 NA
HETATM   23  H13 UNL     1      29.125   8.083  45.051  1.00  0.00     0.187 HD
ENDBRANCH  21  22
ENDBRANCH  19  21
ENDBRANCH  17  19
ENDBRANCH  15  16
ENDBRANCH  14  15
ENDBRANCH  13  14
ENDBRANCH   1  13
TORSDOF 9
ENDMDL
