MODEL 1
REMARK VINA RESULT:      -7.0      0.000      0.000
REMARK  10 active torsions:
REMARK  status: ('A' for Active; 'I' for Inactive)
REMARK    1  A    between atoms: C2_2  and  C3_3 
REMARK       I    between atoms: C3_3  and  N1_5 
REMARK    2  A    between atoms: N1_5  and  C4_6 
REMARK    3  A    between atoms: C6_8  and  N2_9 
REMARK    4  A    between atoms: N2_9  and  C7_10 
REMARK    5  A    between atoms: N5_17  and  C12_18 
REMARK    6  A    between atoms: C14_20  and  O2_21 
REMARK    7  A    between atoms: C17_24  and  N6_25 
REMARK    8  A    between atoms: N6_25  and  C19_27 
REMARK    9  A    between atoms: C19_27  and  C20_28 
REMARK   10  A    between atoms: C20_28  and  N7_29 
ROOT
HETATM    1  C4  UNL     1      24.000   2.226  52.629  1.00  0.00     0.064 A 
HETATM    2  C5  UNL     1      22.666   2.565  52.596  1.00  0.00     0.065 A 
HETATM    3  C6  UNL     1      21.706   1.643  52.862  1.00  0.00     0.085 A 
HETATM    4  C14 UNL     1      22.168   0.352  53.165  1.00  0.00     0.097 A 
HETATM    5  C16 UNL     1      23.528   0.066  53.185  1.00  0.00     0.070 A 
HETATM    6  C17 UNL     1      24.518   0.987  52.918  1.00  0.00     0.059 A 
ENDROOT
BRANCH   3   7
HETATM    7  N2  UNL     1      20.303   1.717  52.908  1.00  0.00    -0.186 N 
HETATM    8  H6  UNL     1      19.657   1.455  53.669  1.00  0.00     0.184 HD
BRANCH   7   9
HETATM    9  C7  UNL     1      19.580   2.214  51.792  1.00  0.00     0.724 A 
HETATM   10  N3  UNL     1      18.870   3.314  51.919  1.00  0.00    -0.076 NA
HETATM   11  C8  UNL     1      18.077   4.169  51.151  1.00  0.00     0.240 A 
HETATM   12  C9  UNL     1      17.050   3.598  50.227  1.00  0.00     0.034 A 
HETATM   13  N5  UNL     1      18.590   4.598  49.849  1.00  0.00    -0.368 N 
HETATM   14  C10 UNL     1      18.225   3.224  49.762  1.00  0.00     0.123 A 
HETATM   15  C11 UNL     1      18.940   1.966  49.385  1.00  0.00     0.148 A 
HETATM   16  N4  UNL     1      19.567   1.579  50.486  1.00  0.00    -0.076 NA
BRANCH  13  17
HETATM   17  C12 UNL     1      19.094   5.927  49.431  1.00  0.00     0.116 C 
HETATM   18  C13 UNL     1      20.598   5.822  49.330  1.00  0.00     0.026 C 
ENDBRANCH  13  17
ENDBRANCH   7   9
ENDBRANCH   3   7
BRANCH   4  19
HETATM   19  O2  UNL     1      21.272  -0.673  53.455  1.00  0.00    -0.354 OA
HETATM   20  C15 UNL     1      21.564  -1.552  54.510  1.00  0.00     0.210 C 
ENDBRANCH   4  19
BRANCH   1  21
HETATM   21  N1  UNL     1      24.853   3.342  52.318  1.00  0.00    -0.322 N 
HETATM   22  C3  UNL     1      24.904   3.417  50.899  1.00  0.00     0.244 C 
HETATM   23  O1  UNL     1      24.311   2.653  50.067  1.00  0.00    -0.268 OA
HETATM   24  H4  UNL     1      25.452   4.119  52.667  1.00  0.00     0.169 HD
BRANCH  22  25
HETATM   25  C2  UNL     1      25.572   4.289  49.930  1.00  0.00     0.064 C 
HETATM   26  C1  UNL     1      26.532   3.426  49.660  1.00  0.00     0.017 C 
ENDBRANCH  22  25
ENDBRANCH   1  21
BRANCH   6  27
HETATM   27  N6  UNL     1      25.898   0.729  52.920  1.00  0.00    -0.382 N 
HETATM   28  C18 UNL     1      26.702   0.205  51.827  1.00  0.00     0.150 C 
BRANCH  27  29
HETATM   29  C19 UNL     1      26.603   1.025  54.172  1.00  0.00     0.152 C 
BRANCH  29  30
HETATM   30  C20 UNL     1      27.496  -0.104  54.566  1.00  0.00     0.291 C 
BRANCH  30  31
HETATM   31  N7  UNL     1      28.892   0.225  54.661  1.00  0.00     0.081 N 
HETATM   32  C21 UNL     1      29.689  -0.685  53.847  1.00  0.00     0.309 C 
HETATM   33  C22 UNL     1      29.222   1.581  54.333  1.00  0.00     0.309 C 
ENDBRANCH  30  31
ENDBRANCH  29  30
ENDBRANCH  27  29
ENDBRANCH   6  27
TORSDOF 10
ENDMDL
MODEL 2
REMARK VINA RESULT:      -7.0      0.944      2.030
REMARK  10 active torsions:
REMARK  status: ('A' for Active; 'I' for Inactive)
REMARK    1  A    between atoms: C2_2  and  C3_3 
REMARK       I    between atoms: C3_3  and  N1_5 
REMARK    2  A    between atoms: N1_5  and  C4_6 
REMARK    3  A    between atoms: C6_8  and  N2_9 
REMARK    4  A    between atoms: N2_9  and  C7_10 
REMARK    5  A    between atoms: N5_17  and  C12_18 
REMARK    6  A    between atoms: C14_20  and  O2_21 
REMARK    7  A    between atoms: C17_24  and  N6_25 
REMARK    8  A    between atoms: N6_25  and  C19_27 
REMARK    9  A    between atoms: C19_27  and  C20_28 
REMARK   10  A    between atoms: C20_28  and  N7_29 
ROOT
HETATM    1  C4  UNL     1      23.889   2.287  52.567  1.00  0.00     0.064 A 
HETATM    2  C5  UNL     1      22.530   2.510  52.558  1.00  0.00     0.065 A 
HETATM    3  C6  UNL     1      21.657   1.509  52.837  1.00  0.00     0.085 A 
HETATM    4  C14 UNL     1      22.233   0.261  53.125  1.00  0.00     0.097 A 
HETATM    5  C16 UNL     1      23.613   0.092  53.120  1.00  0.00     0.070 A 
HETATM    6  C17 UNL     1      24.516   1.095  52.841  1.00  0.00     0.059 A 
ENDROOT
BRANCH   3   7
HETATM    7  N2  UNL     1      20.254   1.463  52.907  1.00  0.00    -0.186 N 
HETATM    8  H6  UNL     1      19.647   1.036  53.624  1.00  0.00     0.184 HD
BRANCH   7   9
HETATM    9  C7  UNL     1      19.470   2.065  51.888  1.00  0.00     0.724 A 
HETATM   10  N3  UNL     1      19.152   1.367  50.819  1.00  0.00    -0.076 NA
HETATM   11  C8  UNL     1      18.411   1.492  49.643  1.00  0.00     0.240 A 
HETATM   12  C9  UNL     1      18.539   2.729  48.813  1.00  0.00     0.034 A 
HETATM   13  N5  UNL     1      17.059   2.046  49.737  1.00  0.00    -0.368 N 
HETATM   14  C10 UNL     1      17.995   3.097  49.955  1.00  0.00     0.123 A 
HETATM   15  C11 UNL     1      18.240   4.079  51.055  1.00  0.00     0.148 A 
HETATM   16  N4  UNL     1      18.982   3.432  51.941  1.00  0.00    -0.076 NA
BRANCH  13  17
HETATM   17  C12 UNL     1      15.753   1.363  49.589  1.00  0.00     0.116 C 
HETATM   18  C13 UNL     1      15.053   1.444  50.926  1.00  0.00     0.026 C 
ENDBRANCH  13  17
ENDBRANCH   7   9
ENDBRANCH   3   7
BRANCH   4  19
HETATM   19  O2  UNL     1      21.433  -0.838  53.426  1.00  0.00    -0.354 OA
HETATM   20  C15 UNL     1      21.658  -1.534  54.623  1.00  0.00     0.210 C 
ENDBRANCH   4  19
BRANCH   1  21
HETATM   21  N1  UNL     1      24.637   3.472  52.246  1.00  0.00    -0.322 N 
HETATM   22  C3  UNL     1      24.705   3.526  50.826  1.00  0.00     0.244 C 
HETATM   23  O1  UNL     1      24.200   2.695  50.001  1.00  0.00    -0.268 OA
HETATM   24  H4  UNL     1      25.155   4.309  52.588  1.00  0.00     0.169 HD
BRANCH  22  25
HETATM   25  C2  UNL     1      25.303   4.440  49.851  1.00  0.00     0.064 C 
HETATM   26  C1  UNL     1      26.332   3.656  49.594  1.00  0.00     0.017 C 
ENDBRANCH  22  25
ENDBRANCH   1  21
BRANCH   6  27
HETATM   27  N6  UNL     1      25.912   0.955  52.817  1.00  0.00    -0.382 N 
HETATM   28  C18 UNL     1      26.740   0.527  51.700  1.00  0.00     0.150 C 
BRANCH  27  29
HETATM   29  C19 UNL     1      26.609   1.283  54.066  1.00  0.00     0.152 C 
BRANCH  29  30
HETATM   30  C20 UNL     1      27.326   0.092  54.609  1.00  0.00     0.291 C 
BRANCH  30  31
HETATM   31  N7  UNL     1      28.755   0.225  54.696  1.00  0.00     0.081 N 
HETATM   32  C21 UNL     1      29.413  -0.789  53.880  1.00  0.00     0.309 C 
HETATM   33  C22 UNL     1      29.267   1.521  54.362  1.00  0.00     0.309 C 
ENDBRANCH  30  31
ENDBRANCH  29  30
ENDBRANCH  27  29
ENDBRANCH   6  27
TORSDOF 10
ENDMDL
MODEL 3
REMARK VINA RESULT:      -6.8      2.562      8.519
REMARK  10 active torsions:
REMARK  status: ('A' for Active; 'I' for Inactive)
REMARK    1  A    between atoms: C2_2  and  C3_3 
REMARK       I    between atoms: C3_3  and  N1_5 
REMARK    2  A    between atoms: N1_5  and  C4_6 
REMARK    3  A    between atoms: C6_8  and  N2_9 
REMARK    4  A    between atoms: N2_9  and  C7_10 
REMARK    5  A    between atoms: N5_17  and  C12_18 
REMARK    6  A    between atoms: C14_20  and  O2_21 
REMARK    7  A    between atoms: C17_24  and  N6_25 
REMARK    8  A    between atoms: N6_25  and  C19_27 
REMARK    9  A    between atoms: C19_27  and  C20_28 
REMARK   10  A    between atoms: C20_28  and  N7_29 
ROOT
HETATM    1  C4  UNL     1      23.387   3.923  50.381  1.00  0.00     0.064 A 
HETATM    2  C5  UNL     1      24.320   3.417  51.257  1.00  0.00     0.065 A 
HETATM    3  C6  UNL     1      25.646   3.475  50.973  1.00  0.00     0.085 A 
HETATM    4  C14 UNL     1      25.982   4.075  49.749  1.00  0.00     0.097 A 
HETATM    5  C16 UNL     1      24.997   4.571  48.902  1.00  0.00     0.070 A 
HETATM    6  C17 UNL     1      23.646   4.522  49.171  1.00  0.00     0.059 A 
ENDROOT
BRANCH   3   7
HETATM    7  N2  UNL     1      26.789   3.054  51.676  1.00  0.00    -0.186 N 
HETATM    8  H6  UNL     1      27.727   3.483  51.720  1.00  0.00     0.184 HD
BRANCH   7   9
HETATM    9  C7  UNL     1      26.742   1.880  52.472  1.00  0.00     0.724 A 
HETATM   10  N3  UNL     1      26.785   0.701  51.888  1.00  0.00    -0.076 NA
HETATM   11  C8  UNL     1      26.813  -0.655  52.219  1.00  0.00     0.240 A 
HETATM   12  C9  UNL     1      25.872  -1.186  53.252  1.00  0.00     0.034 A 
HETATM   13  N5  UNL     1      27.744  -1.089  53.262  1.00  0.00    -0.368 N 
HETATM   14  C10 UNL     1      26.685  -0.357  53.875  1.00  0.00     0.123 A 
HETATM   15  C11 UNL     1      26.609   0.852  54.749  1.00  0.00     0.148 A 
HETATM   16  N4  UNL     1      26.648   1.884  53.921  1.00  0.00    -0.076 NA
BRANCH  13  17
HETATM   17  C12 UNL     1      28.994  -1.873  53.136  1.00  0.00     0.116 C 
HETATM   18  C13 UNL     1      30.116  -1.011  53.668  1.00  0.00     0.026 C 
ENDBRANCH  13  17
ENDBRANCH   7   9
ENDBRANCH   3   7
BRANCH   4  19
HETATM   19  O2  UNL     1      27.312   4.190  49.355  1.00  0.00    -0.354 OA
HETATM   20  C15 UNL     1      27.691   5.276  48.551  1.00  0.00     0.210 C 
ENDBRANCH   4  19
BRANCH   1  21
HETATM   21  N1  UNL     1      22.042   3.763  50.865  1.00  0.00    -0.322 N 
HETATM   22  C3  UNL     1      21.666   2.426  50.557  1.00  0.00     0.244 C 
HETATM   23  O1  UNL     1      22.378   1.544  49.971  1.00  0.00    -0.268 OA
HETATM   24  H4  UNL     1      21.218   4.189  51.340  1.00  0.00     0.169 HD
BRANCH  22  25
HETATM   25  C2  UNL     1      20.464   1.615  50.756  1.00  0.00     0.064 C 
HETATM   26  C1  UNL     1      21.115   0.468  50.766  1.00  0.00     0.017 C 
ENDBRANCH  22  25
ENDBRANCH   1  21
BRANCH   6  27
HETATM   27  N6  UNL     1      22.627   5.003  48.335  1.00  0.00    -0.382 N 
HETATM   28  C18 UNL     1      21.960   4.294  47.254  1.00  0.00     0.150 C 
BRANCH  27  29
HETATM   29  C19 UNL     1      22.188   6.381  48.588  1.00  0.00     0.152 C 
BRANCH  29  30
HETATM   30  C20 UNL     1      23.016   7.357  47.821  1.00  0.00     0.291 C 
BRANCH  30  31
HETATM   31  N7  UNL     1      23.567   8.434  48.599  1.00  0.00     0.081 N 
HETATM   32  C21 UNL     1      22.899   9.690  48.279  1.00  0.00     0.309 C 
HETATM   33  C22 UNL     1      23.557   8.228  50.017  1.00  0.00     0.309 C 
ENDBRANCH  30  31
ENDBRANCH  29  30
ENDBRANCH  27  29
ENDBRANCH   6  27
TORSDOF 10
ENDMDL
MODEL 4
REMARK VINA RESULT:      -6.7      2.562      8.778
REMARK  10 active torsions:
REMARK  status: ('A' for Active; 'I' for Inactive)
REMARK    1  A    between atoms: C2_2  and  C3_3 
REMARK       I    between atoms: C3_3  and  N1_5 
REMARK    2  A    between atoms: N1_5  and  C4_6 
REMARK    3  A    between atoms: C6_8  and  N2_9 
REMARK    4  A    between atoms: N2_9  and  C7_10 
REMARK    5  A    between atoms: N5_17  and  C12_18 
REMARK    6  A    between atoms: C14_20  and  O2_21 
REMARK    7  A    between atoms: C17_24  and  N6_25 
REMARK    8  A    between atoms: N6_25  and  C19_27 
REMARK    9  A    between atoms: C19_27  and  C20_28 
REMARK   10  A    between atoms: C20_28  and  N7_29 
ROOT
HETATM    1  C4  UNL     1      23.422   3.926  50.328  1.00  0.00     0.064 A 
HETATM    2  C5  UNL     1      24.375   3.380  51.158  1.00  0.00     0.065 A 
HETATM    3  C6  UNL     1      25.696   3.476  50.861  1.00  0.00     0.085 A 
HETATM    4  C14 UNL     1      26.005   4.157  49.673  1.00  0.00     0.097 A 
HETATM    5  C16 UNL     1      25.001   4.689  48.872  1.00  0.00     0.070 A 
HETATM    6  C17 UNL     1      23.656   4.603  49.155  1.00  0.00     0.059 A 
ENDROOT
BRANCH   3   7
HETATM    7  N2  UNL     1      26.854   3.030  51.521  1.00  0.00    -0.186 N 
HETATM    8  H6  UNL     1      27.813   3.410  51.492  1.00  0.00     0.184 HD
BRANCH   7   9
HETATM    9  C7  UNL     1      26.795   1.899  52.376  1.00  0.00     0.724 A 
HETATM   10  N3  UNL     1      26.784   0.691  51.852  1.00  0.00    -0.076 NA
HETATM   11  C8  UNL     1      26.780  -0.646  52.250  1.00  0.00     0.240 A 
HETATM   12  C9  UNL     1      25.853  -1.095  53.334  1.00  0.00     0.034 A 
HETATM   13  N5  UNL     1      27.727  -1.058  53.288  1.00  0.00    -0.368 N 
HETATM   14  C10 UNL     1      26.710  -0.263  53.892  1.00  0.00     0.123 A 
HETATM   15  C11 UNL     1      26.698   0.990  54.706  1.00  0.00     0.148 A 
HETATM   16  N4  UNL     1      26.743   1.978  53.825  1.00  0.00    -0.076 NA
BRANCH  13  17
HETATM   17  C12 UNL     1      28.948  -1.887  53.167  1.00  0.00     0.116 C 
HETATM   18  C13 UNL     1      30.095  -1.075  53.722  1.00  0.00     0.026 C 
ENDBRANCH  13  17
ENDBRANCH   7   9
ENDBRANCH   3   7
BRANCH   4  19
HETATM   19  O2  UNL     1      27.328   4.316  49.269  1.00  0.00    -0.354 OA
HETATM   20  C15 UNL     1      27.678   5.452  48.523  1.00  0.00     0.210 C 
ENDBRANCH   4  19
BRANCH   1  21
HETATM   21  N1  UNL     1      22.087   3.715  50.820  1.00  0.00    -0.322 N 
HETATM   22  C3  UNL     1      21.712   2.408  50.402  1.00  0.00     0.244 C 
HETATM   23  O1  UNL     1      22.418   1.585  49.729  1.00  0.00    -0.268 OA
HETATM   24  H4  UNL     1      21.269   4.092  51.344  1.00  0.00     0.169 HD
BRANCH  22  25
HETATM   25  C2  UNL     1      20.518   1.574  50.550  1.00  0.00     0.064 C 
HETATM   26  C1  UNL     1      21.194   0.465  50.776  1.00  0.00     0.017 C 
ENDBRANCH  22  25
ENDBRANCH   1  21
BRANCH   6  27
HETATM   27  N6  UNL     1      22.618   5.119  48.364  1.00  0.00    -0.382 N 
HETATM   28  C18 UNL     1      21.923   6.387  48.532  1.00  0.00     0.150 C 
BRANCH  27  29
HETATM   29  C19 UNL     1      22.191   4.279  47.239  1.00  0.00     0.152 C 
BRANCH  29  30
HETATM   30  C20 UNL     1      21.134   4.957  46.433  1.00  0.00     0.291 C 
BRANCH  30  31
HETATM   31  N7  UNL     1      19.804   4.438  46.609  1.00  0.00     0.081 N 
HETATM   32  C21 UNL     1      19.084   4.436  45.341  1.00  0.00     0.309 C 
HETATM   33  C22 UNL     1      19.732   3.138  47.208  1.00  0.00     0.309 C 
ENDBRANCH  30  31
ENDBRANCH  29  30
ENDBRANCH  27  29
ENDBRANCH   6  27
TORSDOF 10
ENDMDL
MODEL 5
REMARK VINA RESULT:      -6.6      1.477      4.057
REMARK  10 active torsions:
REMARK  status: ('A' for Active; 'I' for Inactive)
REMARK    1  A    between atoms: C2_2  and  C3_3 
REMARK       I    between atoms: C3_3  and  N1_5 
REMARK    2  A    between atoms: N1_5  and  C4_6 
REMARK    3  A    between atoms: C6_8  and  N2_9 
REMARK    4  A    between atoms: N2_9  and  C7_10 
REMARK    5  A    between atoms: N5_17  and  C12_18 
REMARK    6  A    between atoms: C14_20  and  O2_21 
REMARK    7  A    between atoms: C17_24  and  N6_25 
REMARK    8  A    between atoms: N6_25  and  C19_27 
REMARK    9  A    between atoms: C19_27  and  C20_28 
REMARK   10  A    between atoms: C20_28  and  N7_29 
ROOT
HETATM    1  C4  UNL     1      23.868   1.462  52.846  1.00  0.00     0.064 A 
HETATM    2  C5  UNL     1      23.000   2.344  52.242  1.00  0.00     0.065 A 
HETATM    3  C6  UNL     1      23.407   3.127  51.211  1.00  0.00     0.085 A 
HETATM    4  C14 UNL     1      24.746   2.971  50.819  1.00  0.00     0.097 A 
HETATM    5  C16 UNL     1      25.579   2.064  51.465  1.00  0.00     0.070 A 
HETATM    6  C17 UNL     1      25.186   1.261  52.513  1.00  0.00     0.059 A 
ENDROOT
BRANCH   3   7
HETATM    7  N2  UNL     1      22.743   4.084  50.423  1.00  0.00    -0.186 N 
HETATM    8  H6  UNL     1      23.096   4.974  50.037  1.00  0.00     0.184 HD
BRANCH   7   9
HETATM    9  C7  UNL     1      21.388   3.884  50.053  1.00  0.00     0.724 A 
HETATM   10  N3  UNL     1      21.072   2.868  49.278  1.00  0.00    -0.076 NA
HETATM   11  C8  UNL     1      19.948   2.263  48.714  1.00  0.00     0.240 A 
HETATM   12  C9  UNL     1      18.904   3.107  48.055  1.00  0.00     0.034 A 
HETATM   13  N5  UNL     1      18.791   2.020  49.578  1.00  0.00    -0.368 N 
HETATM   14  C10 UNL     1      18.889   3.421  49.335  1.00  0.00     0.123 A 
HETATM   15  C11 UNL     1      19.005   4.634  50.199  1.00  0.00     0.148 A 
HETATM   16  N4  UNL     1      20.295   4.741  50.478  1.00  0.00    -0.076 NA
BRANCH  13  17
HETATM   17  C12 UNL     1      18.272   0.740  50.112  1.00  0.00     0.116 C 
HETATM   18  C13 UNL     1      18.949   0.505  51.443  1.00  0.00     0.026 C 
ENDBRANCH  13  17
ENDBRANCH   7   9
ENDBRANCH   3   7
BRANCH   4  19
HETATM   19  O2  UNL     1      25.272   3.723  49.772  1.00  0.00    -0.354 OA
HETATM   20  C15 UNL     1      26.648   3.646  49.506  1.00  0.00     0.210 C 
ENDBRANCH   4  19
BRANCH   1  21
HETATM   21  N1  UNL     1      23.243   0.730  53.915  1.00  0.00    -0.322 N 
HETATM   22  C3  UNL     1      22.456  -0.280  53.295  1.00  0.00     0.244 C 
HETATM   23  O1  UNL     1      22.330  -0.497  52.044  1.00  0.00    -0.268 OA
HETATM   24  H4  UNL     1      23.107   0.608  54.941  1.00  0.00     0.169 HD
BRANCH  22  25
HETATM   25  C2  UNL     1      21.578  -1.350  53.774  1.00  0.00     0.064 C 
HETATM   26  C1  UNL     1      20.952  -0.585  54.648  1.00  0.00     0.017 C 
ENDBRANCH  22  25
ENDBRANCH   1  21
BRANCH   6  27
HETATM   27  N6  UNL     1      26.002   0.343  53.192  1.00  0.00    -0.382 N 
HETATM   28  C18 UNL     1      26.270  -1.040  52.831  1.00  0.00     0.150 C 
BRANCH  27  29
HETATM   29  C19 UNL     1      26.660   0.846  54.404  1.00  0.00     0.152 C 
BRANCH  29  30
HETATM   30  C20 UNL     1      27.886   0.055  54.718  1.00  0.00     0.291 C 
BRANCH  30  31
HETATM   31  N7  UNL     1      29.130   0.712  54.419  1.00  0.00     0.081 N 
HETATM   32  C21 UNL     1      29.926  -0.093  53.501  1.00  0.00     0.309 C 
HETATM   33  C22 UNL     1      29.007   2.046  53.910  1.00  0.00     0.309 C 
ENDBRANCH  30  31
ENDBRANCH  29  30
ENDBRANCH  27  29
ENDBRANCH   6  27
TORSDOF 10
ENDMDL
MODEL 6
REMARK VINA RESULT:      -6.4      2.611      4.940
REMARK  10 active torsions:
REMARK  status: ('A' for Active; 'I' for Inactive)
REMARK    1  A    between atoms: C2_2  and  C3_3 
REMARK       I    between atoms: C3_3  and  N1_5 
REMARK    2  A    between atoms: N1_5  and  C4_6 
REMARK    3  A    between atoms: C6_8  and  N2_9 
REMARK    4  A    between atoms: N2_9  and  C7_10 
REMARK    5  A    between atoms: N5_17  and  C12_18 
REMARK    6  A    between atoms: C14_20  and  O2_21 
REMARK    7  A    between atoms: C17_24  and  N6_25 
REMARK    8  A    between atoms: N6_25  and  C19_27 
REMARK    9  A    between atoms: C19_27  and  C20_28 
REMARK   10  A    between atoms: C20_28  and  N7_29 
ROOT
HETATM    1  C4  UNL     1      23.553   1.605  52.570  1.00  0.00     0.064 A 
HETATM    2  C5  UNL     1      22.813   2.420  51.744  1.00  0.00     0.065 A 
HETATM    3  C6  UNL     1      23.372   2.994  50.648  1.00  0.00     0.085 A 
HETATM    4  C14 UNL     1      24.727   2.699  50.430  1.00  0.00     0.097 A 
HETATM    5  C16 UNL     1      25.427   1.868  51.298  1.00  0.00     0.070 A 
HETATM    6  C17 UNL     1      24.878   1.275  52.415  1.00  0.00     0.059 A 
ENDROOT
BRANCH   3   7
HETATM    7  N2  UNL     1      22.857   3.841  49.651  1.00  0.00    -0.186 N 
HETATM    8  H6  UNL     1      22.477   3.604  48.722  1.00  0.00     0.184 HD
BRANCH   7   9
HETATM    9  C7  UNL     1      22.810   5.244  49.864  1.00  0.00     0.724 A 
HETATM   10  N3  UNL     1      23.759   6.006  49.362  1.00  0.00    -0.076 NA
HETATM   11  C8  UNL     1      24.106   7.354  49.265  1.00  0.00     0.240 A 
HETATM   12  C9  UNL     1      24.023   8.231  50.474  1.00  0.00     0.034 A 
HETATM   13  N5  UNL     1      23.068   8.305  48.862  1.00  0.00    -0.368 N 
HETATM   14  C10 UNL     1      22.789   7.865  50.188  1.00  0.00     0.123 A 
HETATM   15  C11 UNL     1      21.625   7.211  50.858  1.00  0.00     0.148 A 
HETATM   16  N4  UNL     1      21.765   5.916  50.614  1.00  0.00    -0.076 NA
BRANCH  13  17
HETATM   17  C12 UNL     1      22.912   9.037  47.584  1.00  0.00     0.116 C 
HETATM   18  C13 UNL     1      22.304  10.381  47.911  1.00  0.00     0.026 C 
ENDBRANCH  13  17
ENDBRANCH   7   9
ENDBRANCH   3   7
BRANCH   4  19
HETATM   19  O2  UNL     1      25.403   3.233  49.336  1.00  0.00    -0.354 OA
HETATM   20  C15 UNL     1      26.657   3.830  49.539  1.00  0.00     0.210 C 
ENDBRANCH   4  19
BRANCH   1  21
HETATM   21  N1  UNL     1      22.779   1.099  53.672  1.00  0.00    -0.322 N 
HETATM   22  C3  UNL     1      21.975   0.051  53.143  1.00  0.00     0.244 C 
HETATM   23  O1  UNL     1      21.948  -0.361  51.936  1.00  0.00    -0.268 OA
HETATM   24  H4  UNL     1      22.541   1.157  54.685  1.00  0.00     0.169 HD
BRANCH  22  25
HETATM   25  C2  UNL     1      20.977  -0.868  53.693  1.00  0.00     0.064 C 
HETATM   26  C1  UNL     1      21.809  -1.419  54.556  1.00  0.00     0.017 C 
ENDBRANCH  22  25
ENDBRANCH   1  21
BRANCH   6  27
HETATM   27  N6  UNL     1      25.558   0.440  53.315  1.00  0.00    -0.382 N 
HETATM   28  C18 UNL     1      25.527  -1.013  53.371  1.00  0.00     0.150 C 
BRANCH  27  29
HETATM   29  C19 UNL     1      26.396   1.119  54.311  1.00  0.00     0.152 C 
BRANCH  29  30
HETATM   30  C20 UNL     1      27.419   0.191  54.874  1.00  0.00     0.291 C 
BRANCH  30  31
HETATM   31  N7  UNL     1      28.785   0.541  54.589  1.00  0.00     0.081 N 
HETATM   32  C21 UNL     1      29.438  -0.523  53.836  1.00  0.00     0.309 C 
HETATM   33  C22 UNL     1      28.964   1.791  53.913  1.00  0.00     0.309 C 
ENDBRANCH  30  31
ENDBRANCH  29  30
ENDBRANCH  27  29
ENDBRANCH   6  27
TORSDOF 10
ENDMDL
MODEL 7
REMARK VINA RESULT:      -6.2      4.004      7.951
REMARK  10 active torsions:
REMARK  status: ('A' for Active; 'I' for Inactive)
REMARK    1  A    between atoms: C2_2  and  C3_3 
REMARK       I    between atoms: C3_3  and  N1_5 
REMARK    2  A    between atoms: N1_5  and  C4_6 
REMARK    3  A    between atoms: C6_8  and  N2_9 
REMARK    4  A    between atoms: N2_9  and  C7_10 
REMARK    5  A    between atoms: N5_17  and  C12_18 
REMARK    6  A    between atoms: C14_20  and  O2_21 
REMARK    7  A    between atoms: C17_24  and  N6_25 
REMARK    8  A    between atoms: N6_25  and  C19_27 
REMARK    9  A    between atoms: C19_27  and  C20_28 
REMARK   10  A    between atoms: C20_28  and  N7_29 
ROOT
HETATM    1  C4  UNL     1      25.449   7.756  49.945  1.00  0.00     0.064 A 
HETATM    2  C5  UNL     1      25.076   6.771  50.832  1.00  0.00     0.065 A 
HETATM    3  C6  UNL     1      23.774   6.597  51.174  1.00  0.00     0.085 A 
HETATM    4  C14 UNL     1      22.863   7.477  50.570  1.00  0.00     0.097 A 
HETATM    5  C16 UNL     1      23.295   8.454  49.680  1.00  0.00     0.070 A 
HETATM    6  C17 UNL     1      24.610   8.647  49.319  1.00  0.00     0.059 A 
ENDROOT
BRANCH   3   7
HETATM    7  N2  UNL     1      23.129   5.685  52.028  1.00  0.00    -0.186 N 
HETATM    8  H6  UNL     1      22.535   5.866  52.852  1.00  0.00     0.184 HD
BRANCH   7   9
HETATM    9  C7  UNL     1      23.254   4.289  51.802  1.00  0.00     0.724 A 
HETATM   10  N3  UNL     1      23.754   3.524  52.748  1.00  0.00    -0.076 NA
HETATM   11  C8  UNL     1      24.017   2.177  53.005  1.00  0.00     0.240 A 
HETATM   12  C9  UNL     1      24.677   1.337  51.959  1.00  0.00     0.034 A 
HETATM   13  N5  UNL     1      22.965   1.202  52.712  1.00  0.00    -0.368 N 
HETATM   14  C10 UNL     1      23.498   1.679  51.479  1.00  0.00     0.123 A 
HETATM   15  C11 UNL     1      22.922   2.340  50.269  1.00  0.00     0.148 A 
HETATM   16  N4  UNL     1      22.858   3.628  50.572  1.00  0.00    -0.076 NA
BRANCH  13  17
HETATM   17  C12 UNL     1      22.116   0.429  53.647  1.00  0.00     0.116 C 
HETATM   18  C13 UNL     1      20.935  -0.085  52.856  1.00  0.00     0.026 C 
ENDBRANCH  13  17
ENDBRANCH   7   9
ENDBRANCH   3   7
BRANCH   4  19
HETATM   19  O2  UNL     1      21.501   7.390  50.848  1.00  0.00    -0.354 OA
HETATM   20  C15 UNL     1      20.605   7.178  49.789  1.00  0.00     0.210 C 
ENDBRANCH   4  19
BRANCH   1  21
HETATM   21  N1  UNL     1      26.869   7.775  49.717  1.00  0.00    -0.322 N 
HETATM   22  C3  UNL     1      27.136   6.724  48.795  1.00  0.00     0.244 C 
HETATM   23  O1  UNL     1      26.288   5.927  48.273  1.00  0.00    -0.268 OA
HETATM   24  H4  UNL     1      27.791   8.212  49.926  1.00  0.00     0.169 HD
BRANCH  22  25
HETATM   25  C2  UNL     1      28.337   6.191  48.150  1.00  0.00     0.064 C 
HETATM   26  C1  UNL     1      28.102   4.944  48.508  1.00  0.00     0.017 C 
ENDBRANCH  22  25
ENDBRANCH   1  21
BRANCH   6  27
HETATM   27  N6  UNL     1      25.081   9.628  48.432  1.00  0.00    -0.382 N 
HETATM   28  C18 UNL     1      26.095  10.639  48.688  1.00  0.00     0.150 C 
BRANCH  27  29
HETATM   29  C19 UNL     1      24.475   9.626  47.095  1.00  0.00     0.152 C 
BRANCH  29  30
HETATM   30  C20 UNL     1      24.951   8.462  46.292  1.00  0.00     0.291 C 
BRANCH  30  31
HETATM   31  N7  UNL     1      23.948   7.828  45.480  1.00  0.00     0.081 N 
HETATM   32  C21 UNL     1      23.034   7.052  46.310  1.00  0.00     0.309 C 
HETATM   33  C22 UNL     1      23.201   8.712  44.635  1.00  0.00     0.309 C 
ENDBRANCH  30  31
ENDBRANCH  29  30
ENDBRANCH  27  29
ENDBRANCH   6  27
TORSDOF 10
ENDMDL
MODEL 8
REMARK VINA RESULT:      -6.2      7.089     11.982
REMARK  10 active torsions:
REMARK  status: ('A' for Active; 'I' for Inactive)
REMARK    1  A    between atoms: C2_2  and  C3_3 
REMARK       I    between atoms: C3_3  and  N1_5 
REMARK    2  A    between atoms: N1_5  and  C4_6 
REMARK    3  A    between atoms: C6_8  and  N2_9 
REMARK    4  A    between atoms: N2_9  and  C7_10 
REMARK    5  A    between atoms: N5_17  and  C12_18 
REMARK    6  A    between atoms: C14_20  and  O2_21 
REMARK    7  A    between atoms: C17_24  and  N6_25 
REMARK    8  A    between atoms: N6_25  and  C19_27 
REMARK    9  A    between atoms: C19_27  and  C20_28 
REMARK   10  A    between atoms: C20_28  and  N7_29 
ROOT
HETATM    1  C4  UNL     1      28.767   8.922  47.637  1.00  0.00     0.064 A 
HETATM    2  C5  UNL     1      29.796   8.326  48.332  1.00  0.00     0.065 A 
HETATM    3  C6  UNL     1      29.727   7.020  48.696  1.00  0.00     0.085 A 
HETATM    4  C14 UNL     1      28.557   6.344  48.319  1.00  0.00     0.097 A 
HETATM    5  C16 UNL     1      27.549   6.995  47.616  1.00  0.00     0.070 A 
HETATM    6  C17 UNL     1      27.599   8.319  47.237  1.00  0.00     0.059 A 
ENDROOT
BRANCH   3   7
HETATM    7  N2  UNL     1      30.616   6.177  49.386  1.00  0.00    -0.186 N 
HETATM    8  H6  UNL     1      30.571   5.830  50.356  1.00  0.00     0.184 HD
BRANCH   7   9
HETATM    9  C7  UNL     1      31.774   5.679  48.733  1.00  0.00     0.724 A 
HETATM   10  N3  UNL     1      31.685   4.589  48.000  1.00  0.00    -0.076 NA
HETATM   11  C8  UNL     1      32.477   3.787  47.178  1.00  0.00     0.240 A 
HETATM   12  C9  UNL     1      33.846   3.387  47.629  1.00  0.00     0.034 A 
HETATM   13  N5  UNL     1      33.316   4.446  46.175  1.00  0.00    -0.368 N 
HETATM   14  C10 UNL     1      33.871   4.695  47.464  1.00  0.00     0.123 A 
HETATM   15  C11 UNL     1      34.216   5.922  48.243  1.00  0.00     0.148 A 
HETATM   16  N4  UNL     1      33.084   6.300  48.818  1.00  0.00    -0.076 NA
BRANCH  13  17
HETATM   17  C12 UNL     1      33.161   4.484  44.703  1.00  0.00     0.116 C 
HETATM   18  C13 UNL     1      34.447   5.037  44.133  1.00  0.00     0.026 C 
ENDBRANCH  13  17
ENDBRANCH   7   9
ENDBRANCH   3   7
BRANCH   4  19
HETATM   19  O2  UNL     1      28.379   5.001  48.639  1.00  0.00    -0.354 OA
HETATM   20  C15 UNL     1      27.095   4.550  48.985  1.00  0.00     0.210 C 
ENDBRANCH   4  19
BRANCH   1  21
HETATM   21  N1  UNL     1      29.034  10.305  47.350  1.00  0.00    -0.322 N 
HETATM   22  C3  UNL     1      28.632  11.035  48.503  1.00  0.00     0.244 C 
HETATM   23  O1  UNL     1      28.138  10.559  49.579  1.00  0.00    -0.268 OA
HETATM   24  H4  UNL     1      29.388  11.015  46.673  1.00  0.00     0.169 HD
BRANCH  22  25
HETATM   25  C2  UNL     1      28.620  12.448  48.884  1.00  0.00     0.064 C 
HETATM   26  C1  UNL     1      29.934  12.546  48.956  1.00  0.00     0.017 C 
ENDBRANCH  22  25
ENDBRANCH   1  21
BRANCH   6  27
HETATM   27  N6  UNL     1      26.596   9.008  46.538  1.00  0.00    -0.382 N 
HETATM   28  C18 UNL     1      26.437   9.115  45.096  1.00  0.00     0.150 C 
BRANCH  27  29
HETATM   29  C19 UNL     1      25.597   9.696  47.363  1.00  0.00     0.152 C 
BRANCH  29  30
HETATM   30  C20 UNL     1      24.496   8.768  47.758  1.00  0.00     0.291 C 
BRANCH  30  31
HETATM   31  N7  UNL     1      24.101   8.841  49.139  1.00  0.00     0.081 N 
HETATM   32  C21 UNL     1      22.775   8.262  49.322  1.00  0.00     0.309 C 
HETATM   33  C22 UNL     1      25.019   8.251  50.067  1.00  0.00     0.309 C 
ENDBRANCH  30  31
ENDBRANCH  29  30
ENDBRANCH  27  29
ENDBRANCH   6  27
TORSDOF 10
ENDMDL
MODEL 9
REMARK VINA RESULT:      -6.1      2.407      4.653
REMARK  10 active torsions:
REMARK  status: ('A' for Active; 'I' for Inactive)
REMARK    1  A    between atoms: C2_2  and  C3_3 
REMARK       I    between atoms: C3_3  and  N1_5 
REMARK    2  A    between atoms: N1_5  and  C4_6 
REMARK    3  A    between atoms: C6_8  and  N2_9 
REMARK    4  A    between atoms: N2_9  and  C7_10 
REMARK    5  A    between atoms: N5_17  and  C12_18 
REMARK    6  A    between atoms: C14_20  and  O2_21 
REMARK    7  A    between atoms: C17_24  and  N6_25 
REMARK    8  A    between atoms: N6_25  and  C19_27 
REMARK    9  A    between atoms: C19_27  and  C20_28 
REMARK   10  A    between atoms: C20_28  and  N7_29 
ROOT
HETATM    1  C4  UNL     1      21.971   1.090  52.335  1.00  0.00     0.064 A 
HETATM    2  C5  UNL     1      20.794   0.900  51.646  1.00  0.00     0.065 A 
HETATM    3  C6  UNL     1      20.715   1.162  50.316  1.00  0.00     0.085 A 
HETATM    4  C14 UNL     1      21.894   1.630  49.716  1.00  0.00     0.097 A 
HETATM    5  C16 UNL     1      23.056   1.803  50.461  1.00  0.00     0.070 A 
HETATM    6  C17 UNL     1      23.157   1.543  51.810  1.00  0.00     0.059 A 
ENDROOT
BRANCH   3   7
HETATM    7  N2  UNL     1      19.666   1.050  49.386  1.00  0.00    -0.186 N 
HETATM    8  H6  UNL     1      19.702   0.800  48.386  1.00  0.00     0.184 HD
BRANCH   7   9
HETATM    9  C7  UNL     1      18.328   1.297  49.789  1.00  0.00     0.724 A 
HETATM   10  N3  UNL     1      17.483   0.291  49.877  1.00  0.00    -0.076 NA
HETATM   11  C8  UNL     1      16.163   0.035  50.249  1.00  0.00     0.240 A 
HETATM   12  C9  UNL     1      15.068   0.929  49.763  1.00  0.00     0.034 A 
HETATM   13  N5  UNL     1      15.678   0.608  51.506  1.00  0.00    -0.368 N 
HETATM   14  C10 UNL     1      15.827   1.659  50.556  1.00  0.00     0.123 A 
HETATM   15  C11 UNL     1      16.590   2.943  50.517  1.00  0.00     0.148 A 
HETATM   16  N4  UNL     1      17.810   2.612  50.122  1.00  0.00    -0.076 NA
BRANCH  13  17
HETATM   17  C12 UNL     1      15.371  -0.068  52.787  1.00  0.00     0.116 C 
HETATM   18  C13 UNL     1      14.065   0.501  53.290  1.00  0.00     0.026 C 
ENDBRANCH  13  17
ENDBRANCH   7   9
ENDBRANCH   3   7
BRANCH   4  19
HETATM   19  O2  UNL     1      21.928   1.931  48.357  1.00  0.00    -0.354 OA
HETATM   20  C15 UNL     1      22.344   3.210  47.955  1.00  0.00     0.210 C 
ENDBRANCH   4  19
BRANCH   1  21
HETATM   21  N1  UNL     1      21.846   0.757  53.728  1.00  0.00    -0.322 N 
HETATM   22  C3  UNL     1      22.058  -0.647  53.820  1.00  0.00     0.244 C 
HETATM   23  O1  UNL     1      22.312  -1.450  52.862  1.00  0.00    -0.268 OA
HETATM   24  H4  UNL     1      21.667   1.083  54.702  1.00  0.00     0.169 HD
BRANCH  22  25
HETATM   25  C2  UNL     1      22.071  -1.625  54.910  1.00  0.00     0.064 C 
HETATM   26  C1  UNL     1      23.239  -1.235  55.383  1.00  0.00     0.017 C 
ENDBRANCH  22  25
ENDBRANCH   1  21
BRANCH   6  27
HETATM   27  N6  UNL     1      24.310   1.716  52.592  1.00  0.00    -0.382 N 
HETATM   28  C18 UNL     1      24.660   2.867  53.410  1.00  0.00     0.150 C 
BRANCH  27  29
HETATM   29  C19 UNL     1      25.266   0.602  52.579  1.00  0.00     0.152 C 
BRANCH  29  30
HETATM   30  C20 UNL     1      26.314   0.783  53.626  1.00  0.00     0.291 C 
BRANCH  30  31
HETATM   31  N7  UNL     1      27.668   0.781  53.141  1.00  0.00     0.081 N 
HETATM   32  C21 UNL     1      28.296   2.076  53.374  1.00  0.00     0.309 C 
HETATM   33  C22 UNL     1      28.501  -0.261  53.664  1.00  0.00     0.309 C 
ENDBRANCH  30  31
ENDBRANCH  29  30
ENDBRANCH  27  29
ENDBRANCH   6  27
TORSDOF 10
ENDMDL
