MODEL 1
REMARK VINA RESULT:      -8.3      0.000      0.000
REMARK  5 active torsions:
REMARK  status: ('A' for Active; 'I' for Inactive)
REMARK    1  A    between atoms: C6_9  and  N3_10 
REMARK    2  A    between atoms: N3_10  and  C7_11 
REMARK    3  A    between atoms: C10_14  and  O1_15 
REMARK    4  A    between atoms: O1_15  and  C11_16 
REMARK    5  A    between atoms: C11_16  and  C12_17 
ROOT
HETATM    1  C7  UNL     1      24.122   2.860  50.042  1.00  0.00     0.032 A 
HETATM    2  C8  UNL     1      24.643   3.988  49.545  1.00  0.00     0.009 A 
HETATM    3  C9  UNL     1      26.041   4.194  50.013  1.00  0.00     0.094 A 
HETATM    4  C10 UNL     1      26.238   2.993  50.864  1.00  0.00     0.052 A 
HETATM    5  C18 UNL     1      25.139   2.225  50.883  1.00  0.00     0.061 A 
ENDROOT
BRANCH   1   6
HETATM    6  N3  UNL     1      22.818   2.337  49.816  1.00  0.00    -0.341 N 
HETATM    7  H6  UNL     1      22.830   1.838  48.915  1.00  0.00     0.167 HD
BRANCH   6   8
HETATM    8  C6  UNL     1      21.807   2.558  50.768  1.00  0.00     0.138 A 
HETATM    9  N2  UNL     1      21.180   3.745  50.709  1.00  0.00    -0.224 NA
HETATM   10  C5  UNL     1      20.186   4.037  51.599  1.00  0.00     0.236 A 
HETATM   11  N1  UNL     1      19.854   3.123  52.522  1.00  0.00    -0.234 NA
HETATM   12  C4  UNL     1      20.477   1.918  52.596  1.00  0.00     0.109 A 
HETATM   13  S1  UNL     1      20.095   0.643  53.797  1.00  0.00    -0.081 SA
HETATM   14  C19 UNL     1      21.485   1.594  51.712  1.00  0.00     0.028 A 
HETATM   15  C3  UNL     1      21.711  -0.070  54.207  1.00  0.00     0.054 C 
HETATM   16  C2  UNL     1      22.516  -0.146  53.152  1.00  0.00    -0.073 C 
HETATM   17  C1  UNL     1      23.861  -0.740  53.496  1.00  0.00     0.044 C 
HETATM   18  C20 UNL     1      22.182   0.291  51.767  1.00  0.00     0.079 C 
ENDBRANCH   6   8
ENDBRANCH   1   6
BRANCH   4  19
HETATM   19  O1  UNL     1      27.360   2.614  51.586  1.00  0.00    -0.351 OA
BRANCH  19  20
HETATM   20  C11 UNL     1      27.304   2.167  52.930  1.00  0.00     0.214 C 
BRANCH  20  21
HETATM   21  C12 UNL     1      28.006   0.873  53.104  1.00  0.00    -0.034 A 
HETATM   22  C13 UNL     1      27.239  -0.230  52.712  1.00  0.00     0.009 A 
HETATM   23  C14 UNL     1      27.741  -1.516  52.807  1.00  0.00     0.001 A 
HETATM   24  C15 UNL     1      29.018  -1.685  53.299  1.00  0.00     0.000 A 
HETATM   25  C16 UNL     1      29.802  -0.597  53.696  1.00  0.00     0.001 A 
HETATM   26  C17 UNL     1      29.280   0.691  53.594  1.00  0.00     0.009 A 
ENDBRANCH  20  21
ENDBRANCH  19  20
ENDBRANCH   4  19
TORSDOF 5
ENDMDL
MODEL 2
REMARK VINA RESULT:      -8.0      2.795      4.115
REMARK  5 active torsions:
REMARK  status: ('A' for Active; 'I' for Inactive)
REMARK    1  A    between atoms: C6_9  and  N3_10 
REMARK    2  A    between atoms: N3_10  and  C7_11 
REMARK    3  A    between atoms: C10_14  and  O1_15 
REMARK    4  A    between atoms: O1_15  and  C11_16 
REMARK    5  A    between atoms: C11_16  and  C12_17 
ROOT
HETATM    1  C7  UNL     1      21.770  -0.256  52.752  1.00  0.00     0.032 A 
HETATM    2  C8  UNL     1      21.261  -0.786  53.870  1.00  0.00     0.009 A 
HETATM    3  C9  UNL     1      22.327  -1.082  54.866  1.00  0.00     0.094 A 
HETATM    4  C10 UNL     1      23.537  -0.632  54.133  1.00  0.00     0.052 A 
HETATM    5  C18 UNL     1      23.221  -0.158  52.919  1.00  0.00     0.061 A 
ENDROOT
BRANCH   1   6
HETATM    6  N3  UNL     1      21.061   0.151  51.587  1.00  0.00    -0.341 N 
HETATM    7  H6  UNL     1      21.316  -0.491  50.823  1.00  0.00     0.167 HD
BRANCH   6   8
HETATM    8  C6  UNL     1      20.202   1.263  51.650  1.00  0.00     0.138 A 
HETATM    9  N2  UNL     1      20.781   2.454  51.881  1.00  0.00    -0.224 NA
HETATM   10  C5  UNL     1      20.016   3.582  51.957  1.00  0.00     0.236 A 
HETATM   11  N1  UNL     1      18.688   3.476  51.797  1.00  0.00    -0.234 NA
HETATM   12  C4  UNL     1      18.086   2.280  51.562  1.00  0.00     0.109 A 
HETATM   13  S1  UNL     1      16.323   2.052  51.338  1.00  0.00    -0.081 SA
HETATM   14  C19 UNL     1      18.833   1.123  51.481  1.00  0.00     0.028 A 
HETATM   15  C3  UNL     1      15.976   0.477  52.167  1.00  0.00     0.054 C 
HETATM   16  C2  UNL     1      16.951  -0.411  51.998  1.00  0.00    -0.073 C 
HETATM   17  C1  UNL     1      16.659  -1.722  52.689  1.00  0.00     0.044 C 
HETATM   18  C20 UNL     1      18.206  -0.192  51.227  1.00  0.00     0.079 C 
ENDBRANCH   6   8
ENDBRANCH   1   6
BRANCH   4  19
HETATM   19  O1  UNL     1      24.861  -0.650  54.546  1.00  0.00    -0.351 OA
BRANCH  19  20
HETATM   20  C11 UNL     1      25.829   0.280  54.091  1.00  0.00     0.214 C 
BRANCH  20  21
HETATM   21  C12 UNL     1      27.138  -0.372  53.843  1.00  0.00    -0.034 A 
HETATM   22  C13 UNL     1      27.035  -1.549  53.093  1.00  0.00     0.009 A 
HETATM   23  C14 UNL     1      28.161  -2.286  52.769  1.00  0.00     0.001 A 
HETATM   24  C15 UNL     1      29.387  -1.832  53.205  1.00  0.00     0.000 A 
HETATM   25  C16 UNL     1      29.513  -0.659  53.955  1.00  0.00     0.001 A 
HETATM   26  C17 UNL     1      28.368   0.070  54.273  1.00  0.00     0.009 A 
ENDBRANCH  20  21
ENDBRANCH  19  20
ENDBRANCH   4  19
TORSDOF 5
ENDMDL
MODEL 3
REMARK VINA RESULT:      -7.8      2.203      4.202
REMARK  5 active torsions:
REMARK  status: ('A' for Active; 'I' for Inactive)
REMARK    1  A    between atoms: C6_9  and  N3_10 
REMARK    2  A    between atoms: N3_10  and  C7_11 
REMARK    3  A    between atoms: C10_14  and  O1_15 
REMARK    4  A    between atoms: O1_15  and  C11_16 
REMARK    5  A    between atoms: C11_16  and  C12_17 
ROOT
HETATM    1  C7  UNL     1      21.638   0.554  53.760  1.00  0.00     0.032 A 
HETATM    2  C8  UNL     1      21.459  -0.419  54.660  1.00  0.00     0.009 A 
HETATM    3  C9  UNL     1      22.699  -1.220  54.850  1.00  0.00     0.094 A 
HETATM    4  C10 UNL     1      23.625  -0.542  53.906  1.00  0.00     0.052 A 
HETATM    5  C18 UNL     1      23.019   0.476  53.279  1.00  0.00     0.061 A 
ENDROOT
BRANCH   1   6
HETATM    6  N3  UNL     1      20.683   1.514  53.322  1.00  0.00    -0.341 N 
HETATM    7  H6  UNL     1      20.651   2.269  54.022  1.00  0.00     0.167 HD
BRANCH   6   8
HETATM    8  C6  UNL     1      19.993   1.306  52.114  1.00  0.00     0.138 A 
HETATM    9  N2  UNL     1      18.985   0.417  52.147  1.00  0.00    -0.224 NA
HETATM   10  C5  UNL     1      18.267   0.158  51.015  1.00  0.00     0.236 A 
HETATM   11  N1  UNL     1      18.585   0.805  49.883  1.00  0.00    -0.234 NA
HETATM   12  C4  UNL     1      19.601   1.706  49.833  1.00  0.00     0.109 A 
HETATM   13  S1  UNL     1      20.091   2.610  48.365  1.00  0.00    -0.081 SA
HETATM   14  C19 UNL     1      20.345   1.988  50.959  1.00  0.00     0.028 A 
HETATM   15  C3  UNL     1      21.899   2.684  48.479  1.00  0.00     0.054 C 
HETATM   16  C2  UNL     1      22.323   2.849  49.729  1.00  0.00    -0.073 C 
HETATM   17  C1  UNL     1      23.829   2.911  49.822  1.00  0.00     0.044 C 
HETATM   18  C20 UNL     1      21.456   2.964  50.935  1.00  0.00     0.079 C 
ENDBRANCH   6   8
ENDBRANCH   1   6
BRANCH   4  19
HETATM   19  O1  UNL     1      24.953  -0.834  53.630  1.00  0.00    -0.351 OA
BRANCH  19  20
HETATM   20  C11 UNL     1      25.752  -0.057  52.756  1.00  0.00     0.214 C 
BRANCH  20  21
HETATM   21  C12 UNL     1      27.195  -0.196  53.069  1.00  0.00    -0.034 A 
HETATM   22  C13 UNL     1      27.664  -1.509  52.945  1.00  0.00     0.009 A 
HETATM   23  C14 UNL     1      28.989  -1.818  53.200  1.00  0.00     0.001 A 
HETATM   24  C15 UNL     1      29.836  -0.799  53.581  1.00  0.00     0.000 A 
HETATM   25  C16 UNL     1      29.390   0.519  53.711  1.00  0.00     0.001 A 
HETATM   26  C17 UNL     1      28.052   0.812  53.450  1.00  0.00     0.009 A 
ENDBRANCH  20  21
ENDBRANCH  19  20
ENDBRANCH   4  19
TORSDOF 5
ENDMDL
MODEL 4
REMARK VINA RESULT:      -7.7      2.275      4.405
REMARK  5 active torsions:
REMARK  status: ('A' for Active; 'I' for Inactive)
REMARK    1  A    between atoms: C6_9  and  N3_10 
REMARK    2  A    between atoms: N3_10  and  C7_11 
REMARK    3  A    between atoms: C10_14  and  O1_15 
REMARK    4  A    between atoms: O1_15  and  C11_16 
REMARK    5  A    between atoms: C11_16  and  C12_17 
ROOT
HETATM    1  C7  UNL     1      23.019   1.399  51.404  1.00  0.00     0.032 A 
HETATM    2  C8  UNL     1      22.057   0.786  52.102  1.00  0.00     0.009 A 
HETATM    3  C9  UNL     1      22.623  -0.013  53.224  1.00  0.00     0.094 A 
HETATM    4  C10 UNL     1      24.076   0.245  53.053  1.00  0.00     0.052 A 
HETATM    5  C18 UNL     1      24.307   1.054  52.010  1.00  0.00     0.061 A 
ENDROOT
BRANCH   1   6
HETATM    6  N3  UNL     1      22.861   2.243  50.269  1.00  0.00    -0.341 N 
HETATM    7  H6  UNL     1      23.055   1.680  49.428  1.00  0.00     0.167 HD
BRANCH   6   8
HETATM    8  C6  UNL     1      22.497   3.589  50.450  1.00  0.00     0.138 A 
HETATM    9  N2  UNL     1      21.180   3.858  50.454  1.00  0.00    -0.224 NA
HETATM   10  C5  UNL     1      20.746   5.142  50.624  1.00  0.00     0.236 A 
HETATM   11  N1  UNL     1      21.654   6.116  50.786  1.00  0.00    -0.234 NA
HETATM   12  C4  UNL     1      22.989   5.862  50.786  1.00  0.00     0.109 A 
HETATM   13  S1  UNL     1      24.264   7.104  50.995  1.00  0.00    -0.081 SA
HETATM   14  C19 UNL     1      23.458   4.576  50.615  1.00  0.00     0.028 A 
HETATM   15  C3  UNL     1      25.583   6.570  49.872  1.00  0.00     0.054 C 
HETATM   16  C2  UNL     1      25.718   5.248  49.837  1.00  0.00    -0.073 C 
HETATM   17  C1  UNL     1      26.817   4.806  48.901  1.00  0.00     0.044 C 
HETATM   18  C20 UNL     1      24.904   4.269  50.610  1.00  0.00     0.079 C 
ENDBRANCH   6   8
ENDBRANCH   1   6
BRANCH   4  19
HETATM   19  O1  UNL     1      25.138  -0.232  53.808  1.00  0.00    -0.351 OA
BRANCH  19  20
HETATM   20  C11 UNL     1      26.074  -1.177  53.321  1.00  0.00     0.214 C 
BRANCH  20  21
HETATM   21  C12 UNL     1      27.466  -0.684  53.454  1.00  0.00    -0.034 A 
HETATM   22  C13 UNL     1      27.542   0.659  53.837  1.00  0.00     0.009 A 
HETATM   23  C14 UNL     1      28.767   1.282  54.008  1.00  0.00     0.001 A 
HETATM   24  C15 UNL     1      29.911   0.545  53.789  1.00  0.00     0.000 A 
HETATM   25  C16 UNL     1      29.859  -0.799  53.406  1.00  0.00     0.001 A 
HETATM   26  C17 UNL     1      28.617  -1.409  53.238  1.00  0.00     0.009 A 
ENDBRANCH  20  21
ENDBRANCH  19  20
ENDBRANCH   4  19
TORSDOF 5
ENDMDL
MODEL 5
REMARK VINA RESULT:      -7.7      3.082      5.018
REMARK  5 active torsions:
REMARK  status: ('A' for Active; 'I' for Inactive)
REMARK    1  A    between atoms: C6_9  and  N3_10 
REMARK    2  A    between atoms: N3_10  and  C7_11 
REMARK    3  A    between atoms: C10_14  and  O1_15 
REMARK    4  A    between atoms: O1_15  and  C11_16 
REMARK    5  A    between atoms: C11_16  and  C12_17 
ROOT
HETATM    1  C7  UNL     1      24.005   3.618  52.252  1.00  0.00     0.032 A 
HETATM    2  C8  UNL     1      23.465   2.850  51.298  1.00  0.00     0.009 A 
HETATM    3  C9  UNL     1      23.735   1.408  51.544  1.00  0.00     0.094 A 
HETATM    4  C10 UNL     1      24.523   1.474  52.802  1.00  0.00     0.052 A 
HETATM    5  C18 UNL     1      24.680   2.741  53.211  1.00  0.00     0.061 A 
ENDROOT
BRANCH   1   6
HETATM    6  N3  UNL     1      23.956   5.037  52.351  1.00  0.00    -0.341 N 
HETATM    7  H6  UNL     1      24.488   5.313  53.189  1.00  0.00     0.167 HD
BRANCH   6   8
HETATM    8  C6  UNL     1      23.254   5.777  51.383  1.00  0.00     0.138 A 
HETATM    9  N2  UNL     1      21.912   5.732  51.453  1.00  0.00    -0.224 NA
HETATM   10  C5  UNL     1      21.158   6.424  50.548  1.00  0.00     0.236 A 
HETATM   11  N1  UNL     1      21.780   7.141  49.600  1.00  0.00    -0.234 NA
HETATM   12  C4  UNL     1      23.135   7.198  49.516  1.00  0.00     0.109 A 
HETATM   13  S1  UNL     1      24.042   8.129  48.282  1.00  0.00    -0.081 SA
HETATM   14  C19 UNL     1      23.923   6.510  50.414  1.00  0.00     0.028 A 
HETATM   15  C3  UNL     1      25.462   7.072  47.892  1.00  0.00     0.054 C 
HETATM   16  C2  UNL     1      25.936   6.442  48.962  1.00  0.00    -0.073 C 
HETATM   17  C1  UNL     1      27.119   5.562  48.634  1.00  0.00     0.044 C 
HETATM   18  C20 UNL     1      25.400   6.552  50.347  1.00  0.00     0.079 C 
ENDBRANCH   6   8
ENDBRANCH   1   6
BRANCH   4  19
HETATM   19  O1  UNL     1      25.070   0.435  53.541  1.00  0.00    -0.351 OA
BRANCH  19  20
HETATM   20  C11 UNL     1      25.745  -0.663  52.953  1.00  0.00     0.214 C 
BRANCH  20  21
HETATM   21  C12 UNL     1      27.200  -0.625  53.238  1.00  0.00    -0.034 A 
HETATM   22  C13 UNL     1      27.850  -1.832  52.959  1.00  0.00     0.009 A 
HETATM   23  C14 UNL     1      29.211  -1.970  53.168  1.00  0.00     0.001 A 
HETATM   24  C15 UNL     1      29.912  -0.889  53.659  1.00  0.00     0.000 A 
HETATM   25  C16 UNL     1      29.282   0.326  53.945  1.00  0.00     0.001 A 
HETATM   26  C17 UNL     1      27.910   0.448  53.729  1.00  0.00     0.009 A 
ENDBRANCH  20  21
ENDBRANCH  19  20
ENDBRANCH   4  19
TORSDOF 5
ENDMDL
MODEL 6
REMARK VINA RESULT:      -7.7      3.578      5.876
REMARK  5 active torsions:
REMARK  status: ('A' for Active; 'I' for Inactive)
REMARK    1  A    between atoms: C6_9  and  N3_10 
REMARK    2  A    between atoms: N3_10  and  C7_11 
REMARK    3  A    between atoms: C10_14  and  O1_15 
REMARK    4  A    between atoms: O1_15  and  C11_16 
REMARK    5  A    between atoms: C11_16  and  C12_17 
ROOT
HETATM    1  C7  UNL     1      24.855   3.290  50.771  1.00  0.00     0.032 A 
HETATM    2  C8  UNL     1      24.090   3.911  51.677  1.00  0.00     0.009 A 
HETATM    3  C9  UNL     1      24.180   3.251  53.008  1.00  0.00     0.094 A 
HETATM    4  C10 UNL     1      25.127   2.145  52.716  1.00  0.00     0.052 A 
HETATM    5  C18 UNL     1      25.517   2.164  51.433  1.00  0.00     0.061 A 
ENDROOT
BRANCH   1   6
HETATM    6  N3  UNL     1      25.022   3.633  49.400  1.00  0.00    -0.341 N 
HETATM    7  H6  UNL     1      24.371   3.054  48.849  1.00  0.00     0.167 HD
BRANCH   6   8
HETATM    8  C6  UNL     1      25.961   4.614  49.038  1.00  0.00     0.138 A 
HETATM    9  N2  UNL     1      27.244   4.219  48.972  1.00  0.00    -0.224 NA
HETATM   10  C5  UNL     1      28.217   5.114  48.628  1.00  0.00     0.236 A 
HETATM   11  N1  UNL     1      27.867   6.381  48.360  1.00  0.00    -0.234 NA
HETATM   12  C4  UNL     1      26.575   6.797  48.422  1.00  0.00     0.109 A 
HETATM   13  S1  UNL     1      26.024   8.468  48.082  1.00  0.00    -0.081 SA
HETATM   14  C19 UNL     1      25.570   5.917  48.767  1.00  0.00     0.028 A 
HETATM   15  C3  UNL     1      24.704   8.750  49.292  1.00  0.00     0.054 C 
HETATM   16  C2  UNL     1      23.965   7.664  49.500  1.00  0.00    -0.073 C 
HETATM   17  C1  UNL     1      22.867   7.901  50.509  1.00  0.00     0.044 C 
HETATM   18  C20 UNL     1      24.155   6.341  48.843  1.00  0.00     0.079 C 
ENDBRANCH   6   8
ENDBRANCH   1   6
BRANCH   4  19
HETATM   19  O1  UNL     1      25.614   1.169  53.573  1.00  0.00    -0.351 OA
BRANCH  19  20
HETATM   20  C11 UNL     1      25.716  -0.198  53.213  1.00  0.00     0.214 C 
BRANCH  20  21
HETATM   21  C12 UNL     1      27.112  -0.688  53.324  1.00  0.00    -0.034 A 
HETATM   22  C13 UNL     1      27.286  -1.979  52.815  1.00  0.00     0.009 A 
HETATM   23  C14 UNL     1      28.528  -2.591  52.838  1.00  0.00     0.001 A 
HETATM   24  C15 UNL     1      29.589  -1.896  53.378  1.00  0.00     0.000 A 
HETATM   25  C16 UNL     1      29.437  -0.605  53.893  1.00  0.00     0.001 A 
HETATM   26  C17 UNL     1      28.179  -0.005  53.861  1.00  0.00     0.009 A 
ENDBRANCH  20  21
ENDBRANCH  19  20
ENDBRANCH   4  19
TORSDOF 5
ENDMDL
MODEL 7
REMARK VINA RESULT:      -7.6      6.132      8.894
REMARK  5 active torsions:
REMARK  status: ('A' for Active; 'I' for Inactive)
REMARK    1  A    between atoms: C6_9  and  N3_10 
REMARK    2  A    between atoms: N3_10  and  C7_11 
REMARK    3  A    between atoms: C10_14  and  O1_15 
REMARK    4  A    between atoms: O1_15  and  C11_16 
REMARK    5  A    between atoms: C11_16  and  C12_17 
ROOT
HETATM    1  C7  UNL     1      27.846   6.074  48.219  1.00  0.00     0.032 A 
HETATM    2  C8  UNL     1      26.742   6.702  48.640  1.00  0.00     0.009 A 
HETATM    3  C9  UNL     1      25.847   5.782  49.393  1.00  0.00     0.094 A 
HETATM    4  C10 UNL     1      26.623   4.517  49.336  1.00  0.00     0.052 A 
HETATM    5  C18 UNL     1      27.771   4.680  48.663  1.00  0.00     0.061 A 
ENDROOT
BRANCH   1   6
HETATM    6  N3  UNL     1      28.924   6.626  47.471  1.00  0.00    -0.341 N 
HETATM    7  H6  UNL     1      28.672   6.578  46.473  1.00  0.00     0.167 HD
BRANCH   6   8
HETATM    8  C6  UNL     1      30.061   7.108  48.143  1.00  0.00     0.138 A 
HETATM    9  N2  UNL     1      29.933   8.297  48.757  1.00  0.00    -0.224 NA
HETATM   10  C5  UNL     1      30.992   8.834  49.432  1.00  0.00     0.236 A 
HETATM   11  N1  UNL     1      32.149   8.155  49.468  1.00  0.00    -0.234 NA
HETATM   12  C4  UNL     1      32.295   6.952  48.854  1.00  0.00     0.109 A 
HETATM   13  S1  UNL     1      33.802   5.983  48.853  1.00  0.00    -0.081 SA
HETATM   14  C19 UNL     1      31.244   6.385  48.164  1.00  0.00     0.028 A 
HETATM   15  C3  UNL     1      33.859   5.262  47.191  1.00  0.00     0.054 C 
HETATM   16  C2  UNL     1      32.655   4.915  46.746  1.00  0.00    -0.073 C 
HETATM   17  C1  UNL     1      32.705   4.315  45.361  1.00  0.00     0.044 C 
HETATM   18  C20 UNL     1      31.372   5.077  47.485  1.00  0.00     0.079 C 
ENDBRANCH   6   8
ENDBRANCH   1   6
BRANCH   4  19
HETATM   19  O1  UNL     1      26.304   3.276  49.870  1.00  0.00    -0.351 OA
BRANCH  19  20
HETATM   20  C11 UNL     1      25.331   3.095  50.884  1.00  0.00     0.214 C 
BRANCH  20  21
HETATM   21  C12 UNL     1      25.541   1.824  51.619  1.00  0.00    -0.034 A 
HETATM   22  C13 UNL     1      24.406   1.397  52.317  1.00  0.00     0.009 A 
HETATM   23  C14 UNL     1      24.426   0.227  53.058  1.00  0.00     0.001 A 
HETATM   24  C15 UNL     1      25.593  -0.506  53.092  1.00  0.00     0.000 A 
HETATM   25  C16 UNL     1      26.738  -0.097  52.402  1.00  0.00     0.001 A 
HETATM   26  C17 UNL     1      26.700   1.084  51.661  1.00  0.00     0.009 A 
ENDBRANCH  20  21
ENDBRANCH  19  20
ENDBRANCH   4  19
TORSDOF 5
ENDMDL
MODEL 8
REMARK VINA RESULT:      -7.6      2.345      4.173
REMARK  5 active torsions:
REMARK  status: ('A' for Active; 'I' for Inactive)
REMARK    1  A    between atoms: C6_9  and  N3_10 
REMARK    2  A    between atoms: N3_10  and  C7_11 
REMARK    3  A    between atoms: C10_14  and  O1_15 
REMARK    4  A    between atoms: O1_15  and  C11_16 
REMARK    5  A    between atoms: C11_16  and  C12_17 
ROOT
HETATM    1  C7  UNL     1      21.657   0.285  52.969  1.00  0.00     0.032 A 
HETATM    2  C8  UNL     1      21.367  -0.589  53.941  1.00  0.00     0.009 A 
HETATM    3  C9  UNL     1      22.601  -1.144  54.560  1.00  0.00     0.094 A 
HETATM    4  C10 UNL     1      23.653  -0.442  53.782  1.00  0.00     0.052 A 
HETATM    5  C18 UNL     1      23.115   0.379  52.868  1.00  0.00     0.061 A 
ENDROOT
BRANCH   1   6
HETATM    6  N3  UNL     1      20.742   1.012  52.158  1.00  0.00    -0.341 N 
HETATM    7  H6  UNL     1      19.840   1.048  52.655  1.00  0.00     0.167 HD
BRANCH   6   8
HETATM    8  C6  UNL     1      21.167   1.523  50.919  1.00  0.00     0.138 A 
HETATM    9  N2  UNL     1      21.129   0.675  49.877  1.00  0.00    -0.224 NA
HETATM   10  C5  UNL     1      21.526   1.095  48.640  1.00  0.00     0.236 A 
HETATM   11  N1  UNL     1      21.949   2.359  48.489  1.00  0.00    -0.234 NA
HETATM   12  C4  UNL     1      21.994   3.230  49.532  1.00  0.00     0.109 A 
HETATM   13  S1  UNL     1      22.545   4.931  49.417  1.00  0.00    -0.081 SA
HETATM   14  C19 UNL     1      21.600   2.835  50.793  1.00  0.00     0.028 A 
HETATM   15  C3  UNL     1      23.442   5.207  50.968  1.00  0.00     0.054 C 
HETATM   16  C2  UNL     1      22.871   4.593  52.001  1.00  0.00    -0.073 C 
HETATM   17  C1  UNL     1      23.620   4.824  53.292  1.00  0.00     0.044 C 
HETATM   18  C20 UNL     1      21.638   3.760  51.947  1.00  0.00     0.079 C 
ENDBRANCH   6   8
ENDBRANCH   1   6
BRANCH   4  19
HETATM   19  O1  UNL     1      25.032  -0.541  53.897  1.00  0.00    -0.351 OA
BRANCH  19  20
HETATM   20  C11 UNL     1      25.925   0.440  53.398  1.00  0.00     0.214 C 
BRANCH  20  21
HETATM   21  C12 UNL     1      27.327  -0.042  53.413  1.00  0.00    -0.034 A 
HETATM   22  C13 UNL     1      27.450  -1.395  53.079  1.00  0.00     0.009 A 
HETATM   23  C14 UNL     1      28.690  -2.009  53.043  1.00  0.00     0.001 A 
HETATM   24  C15 UNL     1      29.803  -1.254  53.348  1.00  0.00     0.000 A 
HETATM   25  C16 UNL     1      29.703   0.099  53.685  1.00  0.00     0.001 A 
HETATM   26  C17 UNL     1      28.446   0.701  53.716  1.00  0.00     0.009 A 
ENDBRANCH  20  21
ENDBRANCH  19  20
ENDBRANCH   4  19
TORSDOF 5
ENDMDL
MODEL 9
REMARK VINA RESULT:      -7.5      2.631      4.614
REMARK  5 active torsions:
REMARK  status: ('A' for Active; 'I' for Inactive)
REMARK    1  A    between atoms: C6_9  and  N3_10 
REMARK    2  A    between atoms: N3_10  and  C7_11 
REMARK    3  A    between atoms: C10_14  and  O1_15 
REMARK    4  A    between atoms: O1_15  and  C11_16 
REMARK    5  A    between atoms: C11_16  and  C12_17 
ROOT
HETATM    1  C7  UNL     1      22.504   0.961  52.567  1.00  0.00     0.032 A 
HETATM    2  C8  UNL     1      21.828   0.290  53.507  1.00  0.00     0.009 A 
HETATM    3  C9  UNL     1      22.717  -0.638  54.259  1.00  0.00     0.094 A 
HETATM    4  C10 UNL     1      24.021  -0.386  53.594  1.00  0.00     0.052 A 
HETATM    5  C18 UNL     1      23.903   0.530  52.622  1.00  0.00     0.061 A 
ENDROOT
BRANCH   1   6
HETATM    6  N3  UNL     1      21.992   1.928  51.658  1.00  0.00    -0.341 N 
HETATM    7  H6  UNL     1      21.169   1.518  51.193  1.00  0.00     0.167 HD
BRANCH   6   8
HETATM    8  C6  UNL     1      22.626   3.178  51.543  1.00  0.00     0.138 A 
HETATM    9  N2  UNL     1      22.849   3.843  52.689  1.00  0.00    -0.224 NA
HETATM   10  C5  UNL     1      23.461   5.064  52.662  1.00  0.00     0.236 A 
HETATM   11  N1  UNL     1      23.830   5.578  51.479  1.00  0.00    -0.234 NA
HETATM   12  C4  UNL     1      23.613   4.918  50.311  1.00  0.00     0.109 A 
HETATM   13  S1  UNL     1      24.074   5.532  48.691  1.00  0.00    -0.081 SA
HETATM   14  C19 UNL     1      22.997   3.684  50.306  1.00  0.00     0.028 A 
HETATM   15  C3  UNL     1      22.711   5.005  47.619  1.00  0.00     0.054 C 
HETATM   16  C2  UNL     1      22.246   3.802  47.942  1.00  0.00    -0.073 C 
HETATM   17  C1  UNL     1      21.111   3.365  47.047  1.00  0.00     0.044 C 
HETATM   18  C20 UNL     1      22.748   2.943  49.051  1.00  0.00     0.079 C 
ENDBRANCH   6   8
ENDBRANCH   1   6
BRANCH   4  19
HETATM   19  O1  UNL     1      25.256  -0.961  53.857  1.00  0.00    -0.351 OA
BRANCH  19  20
HETATM   20  C11 UNL     1      26.209  -1.248  52.848  1.00  0.00     0.214 C 
BRANCH  20  21
HETATM   21  C12 UNL     1      27.510  -0.593  53.125  1.00  0.00    -0.034 A 
HETATM   22  C13 UNL     1      28.568  -1.498  53.259  1.00  0.00     0.009 A 
HETATM   23  C14 UNL     1      29.854  -1.056  53.519  1.00  0.00     0.001 A 
HETATM   24  C15 UNL     1      30.067   0.300  53.644  1.00  0.00     0.000 A 
HETATM   25  C16 UNL     1      29.024   1.222  53.514  1.00  0.00     0.001 A 
HETATM   26  C17 UNL     1      27.735   0.760  53.253  1.00  0.00     0.009 A 
ENDBRANCH  20  21
ENDBRANCH  19  20
ENDBRANCH   4  19
TORSDOF 5
ENDMDL
