MODEL 1
REMARK VINA RESULT:      -8.4      0.000      0.000
REMARK  0 active torsions:
REMARK  status: ('A' for Active; 'I' for Inactive)
ROOT
HETATM    1  C1  UNL     1      20.321   1.359  49.313  1.00  0.00     0.014 C 
HETATM    2  C2  UNL     1      21.438   2.296  49.777  1.00  0.00     0.010 C 
HETATM    3  C3  UNL     1      22.130   1.765  50.948  1.00  0.00     0.010 C 
HETATM    4  C4  UNL     1      22.546   1.872  52.166  1.00  0.00     0.053 C 
HETATM    5  C5  UNL     1      22.074   3.183  52.524  1.00  0.00     0.084 C 
HETATM    6  C6  UNL     1      23.187   4.211  52.509  1.00  0.00     0.126 C 
HETATM    7  N1  UNL     1      24.515   3.674  52.298  1.00  0.00    -0.383 N 
HETATM    8  C7  UNL     1      25.181   2.369  52.174  1.00  0.00     0.128 A 
HETATM    9  C8  UNL     1      26.419   2.459  51.633  1.00  0.00     0.160 A 
HETATM   10  N2  UNL     1      27.223   1.399  51.605  1.00  0.00    -0.222 NA
HETATM   11  C9  UNL     1      26.746   0.227  52.132  1.00  0.00     0.238 A 
HETATM   12  N3  UNL     1      25.517   0.109  52.662  1.00  0.00    -0.215 NA
HETATM   13  C10 UNL     1      24.685   1.150  52.706  1.00  0.00     0.201 A 
HETATM   14  O1  UNL     1      23.301   1.158  53.219  1.00  0.00    -0.295 OA
HETATM   15  N4  UNL     1      26.729   3.637  50.916  1.00  0.00    -0.339 N 
HETATM   16  C11 UNL     1      25.649   3.968  50.009  1.00  0.00     0.035 A 
HETATM   17  C12 UNL     1      25.628   5.249  49.532  1.00  0.00     0.048 A 
HETATM   18  C13 UNL     1      24.558   5.577  48.736  1.00  0.00     0.013 A 
HETATM   19 BR1  UNL     1      24.468   7.354  48.034  1.00  0.00    -0.051 Br
HETATM   20  C14 UNL     1      23.550   4.654  48.433  1.00  0.00     0.026 A 
HETATM   21  C15 UNL     1      23.554   3.339  48.912  1.00  0.00    -0.054 A 
HETATM   22  C16 UNL     1      24.645   3.089  49.688  1.00  0.00     0.036 A 
HETATM   23  C17 UNL     1      22.437   2.423  48.588  1.00  0.00     0.046 C 
HETATM   24  H10 UNL     1      25.152   4.536  52.249  1.00  0.00     0.159 HD
HETATM   25  H12 UNL     1      27.610   4.095  51.083  1.00  0.00     0.167 HD
ENDROOT
TORSDOF 0
ENDMDL
MODEL 2
REMARK VINA RESULT:      -7.8      3.062      5.258
REMARK  0 active torsions:
REMARK  status: ('A' for Active; 'I' for Inactive)
ROOT
HETATM    1  C1  UNL     1      26.862   5.101  48.927  1.00  0.00     0.014 C 
HETATM    2  C2  UNL     1      26.033   4.428  50.023  1.00  0.00     0.010 C 
HETATM    3  C3  UNL     1      24.603   4.643  49.821  1.00  0.00     0.010 C 
HETATM    4  C4  UNL     1      23.448   5.051  50.230  1.00  0.00     0.053 C 
HETATM    5  C5  UNL     1      23.757   5.532  51.549  1.00  0.00     0.084 C 
HETATM    6  C6  UNL     1      23.314   4.561  52.626  1.00  0.00     0.126 C 
HETATM    7  N1  UNL     1      22.542   3.431  52.153  1.00  0.00    -0.383 N 
HETATM    8  C7  UNL     1      21.938   2.940  50.906  1.00  0.00     0.128 A 
HETATM    9  C8  UNL     1      21.610   1.627  50.961  1.00  0.00     0.160 A 
HETATM   10  N2  UNL     1      20.904   1.065  49.982  1.00  0.00    -0.222 NA
HETATM   11  C9  UNL     1      20.537   1.860  48.929  1.00  0.00     0.238 A 
HETATM   12  N3  UNL     1      20.862   3.161  48.844  1.00  0.00    -0.215 NA
HETATM   13  C10 UNL     1      21.568   3.757  49.805  1.00  0.00     0.201 A 
HETATM   14  O1  UNL     1      22.028   5.158  49.828  1.00  0.00    -0.295 OA
HETATM   15  N4  UNL     1      22.226   0.848  51.966  1.00  0.00    -0.339 N 
HETATM   16  C11 UNL     1      23.649   1.115  52.005  1.00  0.00     0.035 A 
HETATM   17  C12 UNL     1      24.308   0.734  53.141  1.00  0.00     0.048 A 
HETATM   18  C13 UNL     1      25.640   1.063  53.202  1.00  0.00     0.013 A 
HETATM   19 BR1  UNL     1      26.622   0.557  54.764  1.00  0.00    -0.051 Br
HETATM   20  C14 UNL     1      26.282   1.748  52.164  1.00  0.00     0.026 A 
HETATM   21  C15 UNL     1      25.625   2.147  50.995  1.00  0.00    -0.054 A 
HETATM   22  C16 UNL     1      24.312   1.783  51.006  1.00  0.00     0.036 A 
HETATM   23  C17 UNL     1      26.352   2.904  49.951  1.00  0.00     0.046 C 
HETATM   24  H10 UNL     1      22.380   2.828  53.026  1.00  0.00     0.159 HD
HETATM   25  H12 UNL     1      21.661   0.218  52.513  1.00  0.00     0.167 HD
ENDROOT
TORSDOF 0
ENDMDL
MODEL 3
REMARK VINA RESULT:      -7.4      7.089      9.564
REMARK  0 active torsions:
REMARK  status: ('A' for Active; 'I' for Inactive)
ROOT
HETATM    1  C1  UNL     1      30.901  11.464  44.926  1.00  0.00     0.014 C 
HETATM    2  C2  UNL     1      30.718  10.439  46.048  1.00  0.00     0.010 C 
HETATM    3  C3  UNL     1      29.755  10.901  47.043  1.00  0.00     0.010 C 
HETATM    4  C4  UNL     1      29.429  11.187  48.260  1.00  0.00     0.053 C 
HETATM    5  C5  UNL     1      30.648  10.896  48.967  1.00  0.00     0.084 C 
HETATM    6  C6  UNL     1      30.572   9.579  49.712  1.00  0.00     0.126 C 
HETATM    7  N1  UNL     1      29.270   8.945  49.708  1.00  0.00    -0.383 N 
HETATM    8  C7  UNL     1      27.898   9.227  49.263  1.00  0.00     0.128 A 
HETATM    9  C8  UNL     1      27.125   8.116  49.206  1.00  0.00     0.160 A 
HETATM   10  N2  UNL     1      25.816   8.214  48.986  1.00  0.00    -0.222 NA
HETATM   11  C9  UNL     1      25.295   9.469  48.812  1.00  0.00     0.238 A 
HETATM   12  N3  UNL     1      26.043  10.585  48.850  1.00  0.00    -0.215 NA
HETATM   13  C10 UNL     1      27.356  10.525  49.068  1.00  0.00     0.201 A 
HETATM   14  O1  UNL     1      28.303  11.655  49.097  1.00  0.00    -0.295 OA
HETATM   15  N4  UNL     1      27.787   6.868  49.168  1.00  0.00    -0.339 N 
HETATM   16  C11 UNL     1      28.864   6.902  48.200  1.00  0.00     0.035 A 
HETATM   17  C12 UNL     1      29.812   5.923  48.312  1.00  0.00     0.048 A 
HETATM   18  C13 UNL     1      30.870   6.010  47.442  1.00  0.00     0.013 A 
HETATM   19 BR1  UNL     1      32.233   4.671  47.545  1.00  0.00    -0.051 Br
HETATM   20  C14 UNL     1      30.972   7.039  46.499  1.00  0.00     0.026 A 
HETATM   21  C15 UNL     1      30.012   8.049  46.369  1.00  0.00    -0.054 A 
HETATM   22  C16 UNL     1      28.994   7.894  47.261  1.00  0.00     0.036 A 
HETATM   23  C17 UNL     1      30.197   9.133  45.377  1.00  0.00     0.046 C 
HETATM   24  H10 UNL     1      29.421   8.010  50.212  1.00  0.00     0.159 HD
HETATM   25  H12 UNL     1      27.464   6.124  49.765  1.00  0.00     0.167 HD
ENDROOT
TORSDOF 0
ENDMDL
MODEL 4
REMARK VINA RESULT:      -7.4      2.394      3.358
REMARK  0 active torsions:
REMARK  status: ('A' for Active; 'I' for Inactive)
ROOT
HETATM    1  C1  UNL     1      19.722   3.219  47.444  1.00  0.00     0.014 C 
HETATM    2  C2  UNL     1      20.781   3.376  48.537  1.00  0.00     0.010 C 
HETATM    3  C3  UNL     1      20.246   3.038  49.853  1.00  0.00     0.010 C 
HETATM    4  C4  UNL     1      19.997   3.332  51.086  1.00  0.00     0.053 C 
HETATM    5  C5  UNL     1      20.519   4.668  51.182  1.00  0.00     0.084 C 
HETATM    6  C6  UNL     1      21.857   4.706  51.893  1.00  0.00     0.126 C 
HETATM    7  N1  UNL     1      22.281   3.447  52.470  1.00  0.00    -0.383 N 
HETATM    8  C7  UNL     1      21.762   2.088  52.678  1.00  0.00     0.128 A 
HETATM    9  C8  UNL     1      22.734   1.194  52.977  1.00  0.00     0.160 A 
HETATM   10  N2  UNL     1      22.420  -0.043  53.359  1.00  0.00    -0.222 NA
HETATM   11  C9  UNL     1      21.091  -0.367  53.425  1.00  0.00     0.238 A 
HETATM   12  N3  UNL     1      20.109   0.498  53.120  1.00  0.00    -0.215 NA
HETATM   13  C10 UNL     1      20.385   1.743  52.734  1.00  0.00     0.201 A 
HETATM   14  O1  UNL     1      19.419   2.783  52.333  1.00  0.00    -0.295 OA
HETATM   15  N4  UNL     1      24.063   1.551  52.659  1.00  0.00    -0.339 N 
HETATM   16  C11 UNL     1      24.129   2.084  51.313  1.00  0.00     0.035 A 
HETATM   17  C12 UNL     1      25.248   2.806  51.001  1.00  0.00     0.048 A 
HETATM   18  C13 UNL     1      25.266   3.374  49.751  1.00  0.00     0.013 A 
HETATM   19 BR1  UNL     1      26.803   4.397  49.249  1.00  0.00    -0.051 Br
HETATM   20  C14 UNL     1      24.203   3.224  48.853  1.00  0.00     0.026 A 
HETATM   21  C15 UNL     1      23.050   2.489  49.155  1.00  0.00    -0.054 A 
HETATM   22  C16 UNL     1      23.107   1.955  50.407  1.00  0.00     0.036 A 
HETATM   23  C17 UNL     1      21.943   2.401  48.177  1.00  0.00     0.046 C 
HETATM   24  H10 UNL     1      23.260   3.644  52.862  1.00  0.00     0.159 HD
HETATM   25  H12 UNL     1      24.788   1.402  53.342  1.00  0.00     0.167 HD
ENDROOT
TORSDOF 0
ENDMDL
MODEL 5
REMARK VINA RESULT:      -6.9      5.874      8.190
REMARK  0 active torsions:
REMARK  status: ('A' for Active; 'I' for Inactive)
ROOT
HETATM    1  C1  UNL     1      17.967  -2.383  53.740  1.00  0.00     0.014 C 
HETATM    2  C2  UNL     1      17.968  -1.332  52.628  1.00  0.00     0.010 C 
HETATM    3  C3  UNL     1      16.709  -0.594  52.586  1.00  0.00     0.010 C 
HETATM    4  C4  UNL     1      15.658  -0.177  51.962  1.00  0.00     0.053 C 
HETATM    5  C5  UNL     1      15.852  -0.738  50.652  1.00  0.00     0.084 C 
HETATM    6  C6  UNL     1      16.328   0.299  49.655  1.00  0.00     0.126 C 
HETATM    7  N1  UNL     1      16.350   1.660  50.148  1.00  0.00    -0.383 N 
HETATM    8  C7  UNL     1      15.952   2.416  51.344  1.00  0.00     0.128 A 
HETATM    9  C8  UNL     1      16.528   3.640  51.408  1.00  0.00     0.160 A 
HETATM   10  N2  UNL     1      16.148   4.518  52.335  1.00  0.00    -0.222 NA
HETATM   11  C9  UNL     1      15.171   4.130  53.213  1.00  0.00     0.238 A 
HETATM   12  N3  UNL     1      14.594   2.916  53.178  1.00  0.00    -0.215 NA
HETATM   13  C10 UNL     1      14.949   2.013  52.265  1.00  0.00     0.201 A 
HETATM   14  O1  UNL     1      14.434   0.637  52.132  1.00  0.00    -0.295 OA
HETATM   15  N4  UNL     1      17.675   3.859  50.613  1.00  0.00    -0.339 N 
HETATM   16  C11 UNL     1      18.598   2.751  50.752  1.00  0.00     0.035 A 
HETATM   17  C12 UNL     1      19.557   2.635  49.784  1.00  0.00     0.048 A 
HETATM   18  C13 UNL     1      20.377   1.538  49.880  1.00  0.00     0.013 A 
HETATM   19 BR1  UNL     1      21.742   1.315  48.558  1.00  0.00    -0.051 Br
HETATM   20  C14 UNL     1      20.238   0.595  50.905  1.00  0.00     0.026 A 
HETATM   21  C15 UNL     1      19.263   0.697  51.904  1.00  0.00    -0.054 A 
HETATM   22  C16 UNL     1      18.493   1.810  51.745  1.00  0.00     0.036 A 
HETATM   23  C17 UNL     1      19.141  -0.354  52.939  1.00  0.00     0.046 C 
HETATM   24  H10 UNL     1      16.771   2.233  49.344  1.00  0.00     0.159 HD
HETATM   25  H12 UNL     1      17.743   4.706  50.073  1.00  0.00     0.167 HD
ENDROOT
TORSDOF 0
ENDMDL
MODEL 6
REMARK VINA RESULT:      -6.8      3.239      5.093
REMARK  0 active torsions:
REMARK  status: ('A' for Active; 'I' for Inactive)
ROOT
HETATM    1  C1  UNL     1      18.019   4.211  50.603  1.00  0.00     0.014 C 
HETATM    2  C2  UNL     1      19.308   3.387  50.559  1.00  0.00     0.010 C 
HETATM    3  C3  UNL     1      20.200   3.846  49.498  1.00  0.00     0.010 C 
HETATM    4  C4  UNL     1      20.905   3.633  48.437  1.00  0.00     0.053 C 
HETATM    5  C5  UNL     1      20.674   2.232  48.207  1.00  0.00     0.084 C 
HETATM    6  C6  UNL     1      21.855   1.384  48.638  1.00  0.00     0.126 C 
HETATM    7  N1  UNL     1      23.028   2.128  49.045  1.00  0.00    -0.383 N 
HETATM    8  C7  UNL     1      23.503   3.519  49.093  1.00  0.00     0.128 A 
HETATM    9  C8  UNL     1      24.577   3.680  49.902  1.00  0.00     0.160 A 
HETATM   10  N2  UNL     1      25.233   4.838  49.930  1.00  0.00    -0.222 NA
HETATM   11  C9  UNL     1      24.775   5.846  49.124  1.00  0.00     0.238 A 
HETATM   12  N3  UNL     1      23.703   5.715  48.324  1.00  0.00    -0.215 NA
HETATM   13  C10 UNL     1      23.022   4.571  48.270  1.00  0.00     0.201 A 
HETATM   14  O1  UNL     1      21.811   4.296  47.474  1.00  0.00    -0.295 OA
HETATM   15  N4  UNL     1      24.829   2.667  50.855  1.00  0.00    -0.339 N 
HETATM   16  C11 UNL     1      23.604   2.314  51.544  1.00  0.00     0.035 A 
HETATM   17  C12 UNL     1      23.606   1.120  52.210  1.00  0.00     0.048 A 
HETATM   18  C13 UNL     1      22.417   0.756  52.793  1.00  0.00     0.013 A 
HETATM   19 BR1  UNL     1      22.351  -0.903  53.743  1.00  0.00    -0.051 Br
HETATM   20  C14 UNL     1      21.274   1.559  52.709  1.00  0.00     0.026 A 
HETATM   21  C15 UNL     1      21.253   2.783  52.031  1.00  0.00    -0.054 A 
HETATM   22  C16 UNL     1      22.466   3.077  51.484  1.00  0.00     0.036 A 
HETATM   23  C17 UNL     1      20.000   3.567  51.943  1.00  0.00     0.046 C 
HETATM   24  H10 UNL     1      23.723   1.380  49.375  1.00  0.00     0.159 HD
HETATM   25  H12 UNL     1      25.768   2.320  50.965  1.00  0.00     0.167 HD
ENDROOT
TORSDOF 0
ENDMDL
MODEL 7
REMARK VINA RESULT:      -6.7      2.659      3.882
REMARK  0 active torsions:
REMARK  status: ('A' for Active; 'I' for Inactive)
ROOT
HETATM    1  C1  UNL     1      20.537   7.400  47.158  1.00  0.00     0.014 C 
HETATM    2  C2  UNL     1      21.860   7.326  47.923  1.00  0.00     0.010 C 
HETATM    3  C3  UNL     1      21.738   6.506  49.125  1.00  0.00     0.010 C 
HETATM    4  C4  UNL     1      21.846   6.341  50.402  1.00  0.00     0.053 C 
HETATM    5  C5  UNL     1      22.328   7.628  50.826  1.00  0.00     0.084 C 
HETATM    6  C6  UNL     1      23.812   7.605  51.133  1.00  0.00     0.126 C 
HETATM    7  N1  UNL     1      24.426   6.295  51.097  1.00  0.00    -0.383 N 
HETATM    8  C7  UNL     1      24.035   4.887  50.937  1.00  0.00     0.128 A 
HETATM    9  C8  UNL     1      25.082   4.081  50.639  1.00  0.00     0.160 A 
HETATM   10  N2  UNL     1      24.933   2.758  50.626  1.00  0.00    -0.222 NA
HETATM   11  C9  UNL     1      23.691   2.257  50.913  1.00  0.00     0.238 A 
HETATM   12  N3  UNL     1      22.634   3.036  51.199  1.00  0.00    -0.215 NA
HETATM   13  C10 UNL     1      22.746   4.364  51.221  1.00  0.00     0.201 A 
HETATM   14  O1  UNL     1      21.670   5.340  51.477  1.00  0.00    -0.295 OA
HETATM   15  N4  UNL     1      26.250   4.696  50.136  1.00  0.00    -0.339 N 
HETATM   16  C11 UNL     1      25.907   5.647  49.098  1.00  0.00     0.035 A 
HETATM   17  C12 UNL     1      26.864   6.572  48.783  1.00  0.00     0.048 A 
HETATM   18  C13 UNL     1      26.501   7.518  47.856  1.00  0.00     0.013 A 
HETATM   19 BR1  UNL     1      27.793   8.843  47.369  1.00  0.00    -0.051 Br
HETATM   20  C14 UNL     1      25.230   7.533  47.270  1.00  0.00     0.026 A 
HETATM   21  C15 UNL     1      24.239   6.595  47.579  1.00  0.00    -0.054 A 
HETATM   22  C16 UNL     1      24.673   5.690  48.501  1.00  0.00     0.036 A 
HETATM   23  C17 UNL     1      22.901   6.688  46.954  1.00  0.00     0.046 C 
HETATM   24  H10 UNL     1      25.470   6.479  51.266  1.00  0.00     0.159 HD
HETATM   25  H12 UNL     1      27.146   4.427  50.510  1.00  0.00     0.167 HD
ENDROOT
TORSDOF 0
ENDMDL
MODEL 8
REMARK VINA RESULT:      -6.7      1.665      2.051
REMARK  0 active torsions:
REMARK  status: ('A' for Active; 'I' for Inactive)
ROOT
HETATM    1  C1  UNL     1      19.704   3.279  47.434  1.00  0.00     0.014 C 
HETATM    2  C2  UNL     1      20.759   3.913  48.342  1.00  0.00     0.010 C 
HETATM    3  C3  UNL     1      20.797   3.268  49.651  1.00  0.00     0.010 C 
HETATM    4  C4  UNL     1      20.732   3.312  50.941  1.00  0.00     0.053 C 
HETATM    5  C5  UNL     1      20.509   4.713  51.176  1.00  0.00     0.084 C 
HETATM    6  C6  UNL     1      21.767   5.418  51.646  1.00  0.00     0.126 C 
HETATM    7  N1  UNL     1      22.893   4.548  51.916  1.00  0.00    -0.383 N 
HETATM    8  C7  UNL     1      23.201   3.112  51.970  1.00  0.00     0.128 A 
HETATM    9  C8  UNL     1      24.531   2.858  51.941  1.00  0.00     0.160 A 
HETATM   10  N2  UNL     1      24.988   1.625  52.150  1.00  0.00    -0.222 NA
HETATM   11  C9  UNL     1      24.067   0.639  52.383  1.00  0.00     0.238 A 
HETATM   12  N3  UNL     1      22.742   0.863  52.404  1.00  0.00    -0.215 NA
HETATM   13  C10 UNL     1      22.249   2.084  52.198  1.00  0.00     0.201 A 
HETATM   14  O1  UNL     1      20.825   2.469  52.153  1.00  0.00    -0.295 OA
HETATM   15  N4  UNL     1      25.377   3.887  51.468  1.00  0.00    -0.339 N 
HETATM   16  C11 UNL     1      24.844   4.449  50.244  1.00  0.00     0.035 A 
HETATM   17  C12 UNL     1      25.331   5.673  49.876  1.00  0.00     0.048 A 
HETATM   18  C13 UNL     1      24.763   6.234  48.759  1.00  0.00     0.013 A 
HETATM   19 BR1  UNL     1      25.399   7.945  48.188  1.00  0.00    -0.051 Br
HETATM   20  C14 UNL     1      23.746   5.592  48.042  1.00  0.00     0.026 A 
HETATM   21  C15 UNL     1      23.235   4.340  48.403  1.00  0.00    -0.054 A 
HETATM   22  C16 UNL     1      23.849   3.848  49.515  1.00  0.00     0.036 A 
HETATM   23  C17 UNL     1      22.132   3.732  47.627  1.00  0.00     0.046 C 
HETATM   24  H10 UNL     1      23.697   5.214  52.164  1.00  0.00     0.159 HD
HETATM   25  H12 UNL     1      26.214   4.108  51.982  1.00  0.00     0.167 HD
ENDROOT
TORSDOF 0
ENDMDL
MODEL 9
REMARK VINA RESULT:      -6.5      3.185      4.374
REMARK  0 active torsions:
REMARK  status: ('A' for Active; 'I' for Inactive)
ROOT
HETATM    1  C1  UNL     1      20.904   5.552  45.851  1.00  0.00     0.014 C 
HETATM    2  C2  UNL     1      21.495   6.176  47.117  1.00  0.00     0.010 C 
HETATM    3  C3  UNL     1      20.893   5.614  48.323  1.00  0.00     0.010 C 
HETATM    4  C4  UNL     1      20.266   5.744  49.445  1.00  0.00     0.053 C 
HETATM    5  C5  UNL     1      20.080   7.168  49.514  1.00  0.00     0.084 C 
HETATM    6  C6  UNL     1      21.052   7.822  50.476  1.00  0.00     0.126 C 
HETATM    7  N1  UNL     1      21.863   6.904  51.247  1.00  0.00    -0.383 N 
HETATM    8  C7  UNL     1      21.994   5.458  51.475  1.00  0.00     0.128 A 
HETATM    9  C8  UNL     1      23.172   5.121  52.052  1.00  0.00     0.160 A 
HETATM   10  N2  UNL     1      23.384   3.878  52.480  1.00  0.00    -0.222 NA
HETATM   11  C9  UNL     1      22.376   2.967  52.306  1.00  0.00     0.238 A 
HETATM   12  N3  UNL     1      21.204   3.273  51.724  1.00  0.00    -0.215 NA
HETATM   13  C10 UNL     1      20.957   4.507  51.283  1.00  0.00     0.201 A 
HETATM   14  O1  UNL     1      19.740   4.976  50.594  1.00  0.00    -0.295 OA
HETATM   15  N4  UNL     1      24.222   6.063  51.978  1.00  0.00    -0.339 N 
HETATM   16  C11 UNL     1      24.338   6.578  50.629  1.00  0.00     0.035 A 
HETATM   17  C12 UNL     1      25.039   7.743  50.483  1.00  0.00     0.048 A 
HETATM   18  C13 UNL     1      25.075   8.266  49.214  1.00  0.00     0.013 A 
HETATM   19 BR1  UNL     1      26.040   9.895  48.938  1.00  0.00    -0.051 Br
HETATM   20  C14 UNL     1      24.433   7.644  48.137  1.00  0.00     0.026 A 
HETATM   21  C15 UNL     1      23.712   6.452  48.267  1.00  0.00    -0.054 A 
HETATM   22  C16 UNL     1      23.724   5.994  49.550  1.00  0.00     0.036 A 
HETATM   23  C17 UNL     1      23.021   5.864  47.097  1.00  0.00     0.046 C 
HETATM   24  H10 UNL     1      22.526   7.533  51.809  1.00  0.00     0.159 HD
HETATM   25  H12 UNL     1      24.759   6.265  52.807  1.00  0.00     0.167 HD
ENDROOT
TORSDOF 0
ENDMDL
