MODEL 1
REMARK VINA RESULT:      -8.7      0.000      0.000
REMARK  8 active torsions:
REMARK  status: ('A' for Active; 'I' for Inactive)
REMARK    1  A    between atoms: C2_2  and  C3_3 
REMARK    2  A    between atoms: C3_3  and  C4_4 
REMARK    3  A    between atoms: C4_4  and  C6_6 
REMARK    4  A    between atoms: C6_6  and  C7_7 
REMARK    5  A    between atoms: C7_7  and  C8_8 
REMARK    6  A    between atoms: C8_8  and  N1_9 
REMARK       I    between atoms: N1_9  and  C9_10 
REMARK    7  A    between atoms: C9_10  and  C10_12 
REMARK    8  A    between atoms: C16_18  and  N2_20 
ROOT
HETATM    1  N1  UNL     1      25.060   0.578  52.660  1.00  0.00     0.219 N 
HETATM    2  C9  UNL     1      25.903  -0.224  53.477  1.00  0.00     0.399 C 
HETATM    3  O1  UNL     1      25.489  -1.027  54.356  1.00  0.00    -0.255 OA
HETATM    4  C16 UNL     1      23.703   0.420  52.828  1.00  0.00     0.406 A 
HETATM    5  O2  UNL     1      23.965   1.223  51.886  1.00  0.00    -0.090 OA
ENDROOT
BRANCH   1   6
HETATM    6  C8  UNL     1      25.725   1.389  51.756  1.00  0.00     0.260 C 
BRANCH   6   7
HETATM    7  C7  UNL     1      26.409   2.083  50.901  1.00  0.00     0.029 C 
BRANCH   7   8
HETATM    8  C6  UNL     1      26.267   3.289  50.142  1.00  0.00     0.008 C 
BRANCH   8   9
HETATM    9  C4  UNL     1      25.946   4.437  49.657  1.00  0.00    -0.032 C 
HETATM   10  C5  UNL     1      27.013   5.053  48.840  1.00  0.00     0.048 C 
BRANCH   9  11
HETATM   11  C3  UNL     1      24.764   5.363  49.656  1.00  0.00     0.146 C 
HETATM   12  N3  UNL     1      24.864   6.124  50.890  1.00  0.00    -0.364 N 
HETATM   13  C21 UNL     1      23.881   5.612  51.744  1.00  0.00     0.110 C 
HETATM   14  H19 UNL     1      25.557   6.868  51.007  1.00  0.00     0.162 HD
HETATM   15  C22 UNL     1      23.081   4.748  51.103  1.00  0.00     0.018 C 
HETATM   16  C23 UNL     1      21.933   4.037  51.763  1.00  0.00     0.069 C 
HETATM   17  N4  UNL     1      23.537   4.660  49.737  1.00  0.00    -0.359 N 
HETATM   18  H24 UNL     1      22.983   4.146  49.025  1.00  0.00     0.162 HD
BRANCH  11  19
HETATM   19  C2  UNL     1      24.915   6.281  48.529  1.00  0.00     0.021 C 
HETATM   20  C1  UNL     1      24.202   7.088  47.793  1.00  0.00     0.012 C 
ENDBRANCH  11  19
ENDBRANCH   9  11
ENDBRANCH   8   9
ENDBRANCH   7   8
ENDBRANCH   6   7
ENDBRANCH   1   6
BRANCH   2  21
HETATM   21  C10 UNL     1      27.345  -0.392  53.584  1.00  0.00     0.044 A 
HETATM   22  C11 UNL     1      27.803  -1.608  53.068  1.00  0.00     0.017 A 
HETATM   23  C12 UNL     1      29.168  -1.874  53.121  1.00  0.00     0.001 A 
HETATM   24  C13 UNL     1      30.073  -0.981  53.662  1.00  0.00     0.000 A 
HETATM   25  C14 UNL     1      29.596   0.232  54.173  1.00  0.00     0.001 A 
HETATM   26  C15 UNL     1      28.235   0.520  54.131  1.00  0.00     0.017 A 
ENDBRANCH   2  21
BRANCH   4  27
HETATM   27  N2  UNL     1      22.344   0.185  53.086  1.00  0.00    -0.288 N 
HETATM   28  C17 UNL     1      21.842  -0.193  54.270  1.00  0.00     0.100 A 
HETATM   29  C18 UNL     1      20.501  -0.274  53.969  1.00  0.00     0.019 A 
HETATM   30  C19 UNL     1      20.248   0.049  52.645  1.00  0.00     0.019 A 
HETATM   31  C20 UNL     1      21.468   0.344  52.088  1.00  0.00     0.100 A 
ENDBRANCH   4  27
TORSDOF 8
ENDMDL
MODEL 2
REMARK VINA RESULT:      -8.6      1.148      1.650
REMARK  8 active torsions:
REMARK  status: ('A' for Active; 'I' for Inactive)
REMARK    1  A    between atoms: C2_2  and  C3_3 
REMARK    2  A    between atoms: C3_3  and  C4_4 
REMARK    3  A    between atoms: C4_4  and  C6_6 
REMARK    4  A    between atoms: C6_6  and  C7_7 
REMARK    5  A    between atoms: C7_7  and  C8_8 
REMARK    6  A    between atoms: C8_8  and  N1_9 
REMARK       I    between atoms: N1_9  and  C9_10 
REMARK    7  A    between atoms: C9_10  and  C10_12 
REMARK    8  A    between atoms: C16_18  and  N2_20 
ROOT
HETATM    1  N1  UNL     1      24.947   0.490  52.828  1.00  0.00     0.219 N 
HETATM    2  C9  UNL     1      25.881  -0.284  53.569  1.00  0.00     0.399 C 
HETATM    3  O1  UNL     1      25.566  -1.156  54.423  1.00  0.00    -0.255 OA
HETATM    4  C16 UNL     1      23.614   0.224  53.043  1.00  0.00     0.406 A 
HETATM    5  O2  UNL     1      23.775   1.087  52.133  1.00  0.00    -0.090 OA
ENDROOT
BRANCH   1   6
HETATM    6  C8  UNL     1      25.510   1.390  51.939  1.00  0.00     0.260 C 
BRANCH   6   7
HETATM    7  C7  UNL     1      26.099   2.251  51.169  1.00  0.00     0.029 C 
BRANCH   7   8
HETATM    8  C6  UNL     1      25.746   3.361  50.336  1.00  0.00     0.008 C 
BRANCH   8   9
HETATM    9  C4  UNL     1      25.165   4.295  49.669  1.00  0.00    -0.032 C 
HETATM   10  C5  UNL     1      23.918   3.861  49.005  1.00  0.00     0.048 C 
BRANCH   9  11
HETATM   11  C3  UNL     1      25.373   5.752  49.366  1.00  0.00     0.146 C 
HETATM   12  N3  UNL     1      25.613   6.385  50.651  1.00  0.00    -0.364 N 
HETATM   13  C21 UNL     1      24.445   7.089  50.964  1.00  0.00     0.110 C 
HETATM   14  H19 UNL     1      26.502   6.273  51.147  1.00  0.00     0.162 HD
HETATM   15  C22 UNL     1      23.591   7.096  49.931  1.00  0.00     0.018 C 
HETATM   16  C23 UNL     1      22.251   7.775  49.970  1.00  0.00     0.069 C 
HETATM   17  N4  UNL     1      24.202   6.360  48.852  1.00  0.00    -0.359 N 
HETATM   18  H24 UNL     1      23.772   6.349  47.906  1.00  0.00     0.162 HD
BRANCH  11  19
HETATM   19  C2  UNL     1      26.581   5.871  48.552  1.00  0.00     0.021 C 
HETATM   20  C1  UNL     1      27.801   5.415  48.502  1.00  0.00     0.012 C 
ENDBRANCH  11  19
ENDBRANCH   9  11
ENDBRANCH   8   9
ENDBRANCH   7   8
ENDBRANCH   6   7
ENDBRANCH   1   6
BRANCH   2  21
HETATM   21  C10 UNL     1      27.335  -0.350  53.608  1.00  0.00     0.044 A 
HETATM   22  C11 UNL     1      27.849  -1.571  53.161  1.00  0.00     0.017 A 
HETATM   23  C12 UNL     1      29.230  -1.742  53.158  1.00  0.00     0.001 A 
HETATM   24  C13 UNL     1      30.097  -0.752  53.579  1.00  0.00     0.000 A 
HETATM   25  C14 UNL     1      29.565   0.463  54.022  1.00  0.00     0.001 A 
HETATM   26  C15 UNL     1      28.186   0.658  54.034  1.00  0.00     0.017 A 
ENDBRANCH   2  21
BRANCH   4  27
HETATM   27  N2  UNL     1      22.288  -0.123  53.344  1.00  0.00    -0.288 N 
HETATM   28  C17 UNL     1      21.211   0.602  53.013  1.00  0.00     0.100 A 
HETATM   29  C18 UNL     1      20.202  -0.178  53.533  1.00  0.00     0.019 A 
HETATM   30  C19 UNL     1      20.696  -1.319  54.147  1.00  0.00     0.019 A 
HETATM   31  C20 UNL     1      22.062  -1.260  54.011  1.00  0.00     0.100 A 
ENDBRANCH   4  27
TORSDOF 8
ENDMDL
MODEL 3
REMARK VINA RESULT:      -8.5      2.845      7.119
REMARK  8 active torsions:
REMARK  status: ('A' for Active; 'I' for Inactive)
REMARK    1  A    between atoms: C2_2  and  C3_3 
REMARK    2  A    between atoms: C3_3  and  C4_4 
REMARK    3  A    between atoms: C4_4  and  C6_6 
REMARK    4  A    between atoms: C6_6  and  C7_7 
REMARK    5  A    between atoms: C7_7  and  C8_8 
REMARK    6  A    between atoms: C8_8  and  N1_9 
REMARK       I    between atoms: N1_9  and  C9_10 
REMARK    7  A    between atoms: C9_10  and  C10_12 
REMARK    8  A    between atoms: C16_18  and  N2_20 
ROOT
HETATM    1  N1  UNL     1      22.150   3.720  51.980  1.00  0.00     0.219 N 
HETATM    2  C9  UNL     1      21.263   2.619  52.133  1.00  0.00     0.399 C 
HETATM    3  O1  UNL     1      20.064   2.610  51.744  1.00  0.00    -0.255 OA
HETATM    4  C16 UNL     1      21.658   4.824  51.322  1.00  0.00     0.406 A 
HETATM    5  O2  UNL     1      22.881   4.962  51.613  1.00  0.00    -0.090 OA
ENDROOT
BRANCH   1   6
HETATM    6  C8  UNL     1      23.426   3.513  52.477  1.00  0.00     0.260 C 
BRANCH   6   7
HETATM    7  C7  UNL     1      24.607   3.232  52.932  1.00  0.00     0.029 C 
BRANCH   7   8
HETATM    8  C6  UNL     1      25.419   2.075  53.160  1.00  0.00     0.008 C 
BRANCH   8   9
HETATM    9  C4  UNL     1      26.062   0.962  53.106  1.00  0.00    -0.032 C 
HETATM   10  C5  UNL     1      26.514   0.603  51.745  1.00  0.00     0.048 C 
BRANCH   9  11
HETATM   11  C3  UNL     1      26.524  -0.113  54.049  1.00  0.00     0.146 C 
HETATM   12  N3  UNL     1      27.186   0.583  55.138  1.00  0.00    -0.364 N 
HETATM   13  C21 UNL     1      28.558   0.374  54.958  1.00  0.00     0.110 C 
HETATM   14  H19 UNL     1      26.657   1.099  55.847  1.00  0.00     0.162 HD
HETATM   15  C22 UNL     1      28.789  -0.517  53.983  1.00  0.00     0.018 C 
HETATM   16  C23 UNL     1      30.167  -0.944  53.563  1.00  0.00     0.069 C 
HETATM   17  N4  UNL     1      27.512  -0.943  53.466  1.00  0.00    -0.359 N 
HETATM   18  H24 UNL     1      27.448  -1.731  52.792  1.00  0.00     0.162 HD
BRANCH  11  19
HETATM   19  C2  UNL     1      25.337  -0.784  54.577  1.00  0.00     0.021 C 
HETATM   20  C1  UNL     1      24.738  -1.008  55.713  1.00  0.00     0.012 C 
ENDBRANCH  11  19
ENDBRANCH   9  11
ENDBRANCH   8   9
ENDBRANCH   7   8
ENDBRANCH   6   7
ENDBRANCH   1   6
BRANCH   2  21
HETATM   21  C10 UNL     1      21.392   1.289  52.708  1.00  0.00     0.044 A 
HETATM   22  C11 UNL     1      20.711   1.138  53.920  1.00  0.00     0.017 A 
HETATM   23  C12 UNL     1      20.769  -0.098  54.559  1.00  0.00     0.001 A 
HETATM   24  C13 UNL     1      21.472  -1.166  54.036  1.00  0.00     0.000 A 
HETATM   25  C14 UNL     1      22.148  -0.997  52.823  1.00  0.00     0.001 A 
HETATM   26  C15 UNL     1      22.103   0.229  52.165  1.00  0.00     0.017 A 
ENDBRANCH   2  21
BRANCH   4  27
HETATM   27  N2  UNL     1      21.054   5.895  50.647  1.00  0.00    -0.288 N 
HETATM   28  C17 UNL     1      20.007   5.786  49.817  1.00  0.00     0.100 A 
HETATM   29  C18 UNL     1      19.829   7.101  49.449  1.00  0.00     0.019 A 
HETATM   30  C19 UNL     1      20.756   7.937  50.055  1.00  0.00     0.019 A 
HETATM   31  C20 UNL     1      21.545   7.125  50.832  1.00  0.00     0.100 A 
ENDBRANCH   4  27
TORSDOF 8
ENDMDL
MODEL 4
REMARK VINA RESULT:      -8.3      2.584      8.175
REMARK  8 active torsions:
REMARK  status: ('A' for Active; 'I' for Inactive)
REMARK    1  A    between atoms: C2_2  and  C3_3 
REMARK    2  A    between atoms: C3_3  and  C4_4 
REMARK    3  A    between atoms: C4_4  and  C6_6 
REMARK    4  A    between atoms: C6_6  and  C7_7 
REMARK    5  A    between atoms: C7_7  and  C8_8 
REMARK    6  A    between atoms: C8_8  and  N1_9 
REMARK       I    between atoms: N1_9  and  C9_10 
REMARK    7  A    between atoms: C9_10  and  C10_12 
REMARK    8  A    between atoms: C16_18  and  N2_20 
ROOT
HETATM    1  N1  UNL     1      26.057   4.461  49.655  1.00  0.00     0.219 N 
HETATM    2  C9  UNL     1      24.677   4.784  49.774  1.00  0.00     0.399 C 
HETATM    3  O1  UNL     1      24.145   5.824  49.300  1.00  0.00    -0.255 OA
HETATM    4  C16 UNL     1      26.837   5.335  48.934  1.00  0.00     0.406 A 
HETATM    5  O2  UNL     1      27.497   4.323  49.308  1.00  0.00    -0.090 OA
ENDROOT
BRANCH   1   6
HETATM    6  C8  UNL     1      26.429   3.267  50.249  1.00  0.00     0.260 C 
BRANCH   6   7
HETATM    7  C7  UNL     1      26.694   2.142  50.838  1.00  0.00     0.029 C 
BRANCH   7   8
HETATM    8  C6  UNL     1      26.097   1.274  51.807  1.00  0.00     0.008 C 
BRANCH   8   9
HETATM    9  C4  UNL     1      25.628   0.700  52.859  1.00  0.00    -0.032 C 
HETATM   10  C5  UNL     1      24.191   0.962  53.086  1.00  0.00     0.048 C 
BRANCH   9  11
HETATM   11  C3  UNL     1      26.117  -0.205  53.954  1.00  0.00     0.146 C 
HETATM   12  N3  UNL     1      26.783   0.664  54.908  1.00  0.00    -0.364 N 
HETATM   13  C21 UNL     1      28.156   0.444  54.743  1.00  0.00     0.110 C 
HETATM   14  H19 UNL     1      26.256   1.280  55.533  1.00  0.00     0.162 HD
HETATM   15  C22 UNL     1      28.387  -0.588  53.919  1.00  0.00     0.018 C 
HETATM   16  C23 UNL     1      29.765  -1.061  53.553  1.00  0.00     0.069 C 
HETATM   17  N4  UNL     1      27.109  -1.106  53.496  1.00  0.00    -0.359 N 
HETATM   18  H24 UNL     1      27.047  -1.992  52.957  1.00  0.00     0.162 HD
BRANCH  11  19
HETATM   19  C2  UNL     1      24.947  -0.797  54.600  1.00  0.00     0.021 C 
HETATM   20  C1  UNL     1      24.552  -1.204  55.774  1.00  0.00     0.012 C 
ENDBRANCH  11  19
ENDBRANCH   9  11
ENDBRANCH   8   9
ENDBRANCH   7   8
ENDBRANCH   6   7
ENDBRANCH   1   6
BRANCH   2  21
HETATM   21  C10 UNL     1      23.535   4.130  50.394  1.00  0.00     0.044 A 
HETATM   22  C11 UNL     1      22.982   3.113  49.610  1.00  0.00     0.017 A 
HETATM   23  C12 UNL     1      21.882   2.421  50.107  1.00  0.00     0.001 A 
HETATM   24  C13 UNL     1      21.327   2.706  51.341  1.00  0.00     0.000 A 
HETATM   25  C14 UNL     1      21.894   3.726  52.113  1.00  0.00     0.001 A 
HETATM   26  C15 UNL     1      22.995   4.432  51.636  1.00  0.00     0.017 A 
ENDBRANCH   2  21
BRANCH   4  27
HETATM   27  N2  UNL     1      27.538   6.294  48.187  1.00  0.00    -0.288 N 
HETATM   28  C17 UNL     1      28.853   6.251  47.925  1.00  0.00     0.100 A 
HETATM   29  C18 UNL     1      29.006   7.398  47.178  1.00  0.00     0.019 A 
HETATM   30  C19 UNL     1      27.807   8.076  47.021  1.00  0.00     0.019 A 
HETATM   31  C20 UNL     1      26.863   7.335  47.689  1.00  0.00     0.100 A 
ENDBRANCH   4  27
TORSDOF 8
ENDMDL
MODEL 5
REMARK VINA RESULT:      -8.3      1.496      5.379
REMARK  8 active torsions:
REMARK  status: ('A' for Active; 'I' for Inactive)
REMARK    1  A    between atoms: C2_2  and  C3_3 
REMARK    2  A    between atoms: C3_3  and  C4_4 
REMARK    3  A    between atoms: C4_4  and  C6_6 
REMARK    4  A    between atoms: C6_6  and  C7_7 
REMARK    5  A    between atoms: C7_7  and  C8_8 
REMARK    6  A    between atoms: C8_8  and  N1_9 
REMARK       I    between atoms: N1_9  and  C9_10 
REMARK    7  A    between atoms: C9_10  and  C10_12 
REMARK    8  A    between atoms: C16_18  and  N2_20 
ROOT
HETATM    1  N1  UNL     1      25.402   1.019  53.398  1.00  0.00     0.219 N 
HETATM    2  C9  UNL     1      24.450  -0.030  53.276  1.00  0.00     0.399 C 
HETATM    3  O1  UNL     1      24.744  -1.251  53.173  1.00  0.00    -0.255 OA
HETATM    4  C16 UNL     1      26.727   0.650  53.448  1.00  0.00     0.406 A 
HETATM    5  O2  UNL     1      26.585   1.897  53.605  1.00  0.00    -0.090 OA
ENDROOT
BRANCH   1   6
HETATM    6  C8  UNL     1      24.860   2.289  53.502  1.00  0.00     0.260 C 
BRANCH   6   7
HETATM    7  C7  UNL     1      24.364   3.487  53.510  1.00  0.00     0.029 C 
BRANCH   7   8
HETATM    8  C6  UNL     1      23.682   4.370  52.613  1.00  0.00     0.008 C 
BRANCH   8   9
HETATM    9  C4  UNL     1      23.313   5.158  51.664  1.00  0.00    -0.032 C 
HETATM   10  C5  UNL     1      21.849   5.353  51.592  1.00  0.00     0.048 C 
BRANCH   9  11
HETATM   11  C3  UNL     1      23.948   5.983  50.581  1.00  0.00     0.146 C 
HETATM   12  N3  UNL     1      23.482   5.408  49.331  1.00  0.00    -0.364 N 
HETATM   13  C21 UNL     1      24.567   4.705  48.796  1.00  0.00     0.110 C 
HETATM   14  H19 UNL     1      22.524   5.552  48.999  1.00  0.00     0.162 HD
HETATM   15  C22 UNL     1      25.688   4.937  49.495  1.00  0.00     0.018 C 
HETATM   16  C23 UNL     1      27.015   4.319  49.157  1.00  0.00     0.069 C 
HETATM   17  N4  UNL     1      25.357   5.845  50.565  1.00  0.00    -0.359 N 
HETATM   18  H24 UNL     1      26.103   6.265  51.155  1.00  0.00     0.162 HD
BRANCH  11  19
HETATM   19  C2  UNL     1      23.427   7.344  50.693  1.00  0.00     0.021 C 
HETATM   20  C1  UNL     1      23.190   8.388  49.949  1.00  0.00     0.012 C 
ENDBRANCH  11  19
ENDBRANCH   9  11
ENDBRANCH   8   9
ENDBRANCH   7   8
ENDBRANCH   6   7
ENDBRANCH   1   6
BRANCH   2  21
HETATM   21  C10 UNL     1      22.996  -0.076  53.233  1.00  0.00     0.044 A 
HETATM   22  C11 UNL     1      22.425  -0.693  54.350  1.00  0.00     0.017 A 
HETATM   23  C12 UNL     1      21.038  -0.793  54.411  1.00  0.00     0.001 A 
HETATM   24  C13 UNL     1      20.219  -0.305  53.411  1.00  0.00     0.000 A 
HETATM   25  C14 UNL     1      20.807   0.311  52.301  1.00  0.00     0.001 A 
HETATM   26  C15 UNL     1      22.193   0.422  52.218  1.00  0.00     0.017 A 
ENDBRANCH   2  21
BRANCH   4  27
HETATM   27  N2  UNL     1      28.042   0.163  53.482  1.00  0.00    -0.288 N 
HETATM   28  C17 UNL     1      29.128   0.905  53.742  1.00  0.00     0.100 A 
HETATM   29  C18 UNL     1      30.120  -0.046  53.652  1.00  0.00     0.019 A 
HETATM   30  C19 UNL     1      29.609  -1.298  53.346  1.00  0.00     0.019 A 
HETATM   31  C20 UNL     1      28.249  -1.135  53.239  1.00  0.00     0.100 A 
ENDBRANCH   4  27
TORSDOF 8
ENDMDL
MODEL 6
REMARK VINA RESULT:      -8.1      2.278      5.658
REMARK  8 active torsions:
REMARK  status: ('A' for Active; 'I' for Inactive)
REMARK    1  A    between atoms: C2_2  and  C3_3 
REMARK    2  A    between atoms: C3_3  and  C4_4 
REMARK    3  A    between atoms: C4_4  and  C6_6 
REMARK    4  A    between atoms: C6_6  and  C7_7 
REMARK    5  A    between atoms: C7_7  and  C8_8 
REMARK    6  A    between atoms: C8_8  and  N1_9 
REMARK       I    between atoms: N1_9  and  C9_10 
REMARK    7  A    between atoms: C9_10  and  C10_12 
REMARK    8  A    between atoms: C16_18  and  N2_20 
ROOT
HETATM    1  N1  UNL     1      25.775   1.997  51.474  1.00  0.00     0.219 N 
HETATM    2  C9  UNL     1      24.461   1.592  51.838  1.00  0.00     0.399 C 
HETATM    3  O1  UNL     1      24.200   0.710  52.699  1.00  0.00    -0.255 OA
HETATM    4  C16 UNL     1      26.815   1.403  52.152  1.00  0.00     0.406 A 
HETATM    5  O2  UNL     1      27.228   2.294  51.353  1.00  0.00    -0.090 OA
ENDROOT
BRANCH   1   6
HETATM    6  C8  UNL     1      25.833   2.986  50.507  1.00  0.00     0.260 C 
BRANCH   6   7
HETATM    7  C7  UNL     1      25.799   3.902  49.589  1.00  0.00     0.029 C 
BRANCH   7   8
HETATM    8  C6  UNL     1      26.709   4.781  48.920  1.00  0.00     0.008 C 
BRANCH   8   9
HETATM    9  C4  UNL     1      27.491   5.732  48.548  1.00  0.00    -0.032 C 
HETATM   10  C5  UNL     1      28.885   5.297  48.316  1.00  0.00     0.048 C 
BRANCH   9  11
HETATM   11  C3  UNL     1      27.406   7.202  48.249  1.00  0.00     0.146 C 
HETATM   12  N3  UNL     1      27.745   7.872  49.492  1.00  0.00    -0.364 N 
HETATM   13  C21 UNL     1      26.544   8.375  50.005  1.00  0.00     0.110 C 
HETATM   14  H19 UNL     1      28.709   7.910  49.836  1.00  0.00     0.162 HD
HETATM   15  C22 UNL     1      25.544   8.237  49.123  1.00  0.00     0.018 C 
HETATM   16  C23 UNL     1      24.136   8.686  49.393  1.00  0.00     0.069 C 
HETATM   17  N4  UNL     1      26.084   7.607  47.943  1.00  0.00    -0.359 N 
HETATM   18  H24 UNL     1      25.514   7.521  47.079  1.00  0.00     0.162 HD
BRANCH  11  19
HETATM   19  C2  UNL     1      28.430   7.516  47.255  1.00  0.00     0.021 C 
HETATM   20  C1  UNL     1      28.558   8.125  46.109  1.00  0.00     0.012 C 
ENDBRANCH  11  19
ENDBRANCH   9  11
ENDBRANCH   8   9
ENDBRANCH   7   8
ENDBRANCH   6   7
ENDBRANCH   1   6
BRANCH   2  21
HETATM   21  C10 UNL     1      23.127   1.989  51.414  1.00  0.00     0.044 A 
HETATM   22  C11 UNL     1      22.562   2.985  52.215  1.00  0.00     0.017 A 
HETATM   23  C12 UNL     1      21.284   3.439  51.899  1.00  0.00     0.001 A 
HETATM   24  C13 UNL     1      20.567   2.939  50.829  1.00  0.00     0.000 A 
HETATM   25  C14 UNL     1      21.149   1.942  50.038  1.00  0.00     0.001 A 
HETATM   26  C15 UNL     1      22.426   1.473  50.334  1.00  0.00     0.017 A 
ENDBRANCH   2  21
BRANCH   4  27
HETATM   27  N2  UNL     1      27.797   0.732  52.896  1.00  0.00    -0.288 N 
HETATM   28  C17 UNL     1      27.861  -0.597  53.059  1.00  0.00     0.100 A 
HETATM   29  C18 UNL     1      28.983  -0.708  53.849  1.00  0.00     0.019 A 
HETATM   30  C19 UNL     1      29.543   0.530  54.129  1.00  0.00     0.019 A 
HETATM   31  C20 UNL     1      28.749   1.455  53.495  1.00  0.00     0.100 A 
ENDBRANCH   4  27
TORSDOF 8
ENDMDL
MODEL 7
REMARK VINA RESULT:      -8.1      1.662      5.269
REMARK  8 active torsions:
REMARK  status: ('A' for Active; 'I' for Inactive)
REMARK    1  A    between atoms: C2_2  and  C3_3 
REMARK    2  A    between atoms: C3_3  and  C4_4 
REMARK    3  A    between atoms: C4_4  and  C6_6 
REMARK    4  A    between atoms: C6_6  and  C7_7 
REMARK    5  A    between atoms: C7_7  and  C8_8 
REMARK    6  A    between atoms: C8_8  and  N1_9 
REMARK       I    between atoms: N1_9  and  C9_10 
REMARK    7  A    between atoms: C9_10  and  C10_12 
REMARK    8  A    between atoms: C16_18  and  N2_20 
ROOT
HETATM    1  N1  UNL     1      25.046   1.119  53.157  1.00  0.00     0.219 N 
HETATM    2  C9  UNL     1      24.056   0.100  53.192  1.00  0.00     0.399 C 
HETATM    3  O1  UNL     1      24.304  -1.133  53.276  1.00  0.00    -0.255 OA
HETATM    4  C16 UNL     1      26.356   0.714  53.268  1.00  0.00     0.406 A 
HETATM    5  O2  UNL     1      26.261   1.974  53.234  1.00  0.00    -0.090 OA
ENDROOT
BRANCH   1   6
HETATM    6  C8  UNL     1      24.551   2.409  53.065  1.00  0.00     0.260 C 
BRANCH   6   7
HETATM    7  C7  UNL     1      24.044   3.592  52.904  1.00  0.00     0.029 C 
BRANCH   7   8
HETATM    8  C6  UNL     1      23.875   4.551  51.854  1.00  0.00     0.008 C 
BRANCH   8   9
HETATM    9  C4  UNL     1      23.891   5.238  50.766  1.00  0.00    -0.032 C 
HETATM   10  C5  UNL     1      23.651   6.681  50.974  1.00  0.00     0.048 C 
BRANCH   9  11
HETATM   11  C3  UNL     1      24.106   5.007  49.298  1.00  0.00     0.146 C 
HETATM   12  N3  UNL     1      22.941   5.571  48.640  1.00  0.00    -0.364 N 
HETATM   13  C21 UNL     1      22.161   4.484  48.227  1.00  0.00     0.110 C 
HETATM   14  H19 UNL     1      22.812   6.582  48.550  1.00  0.00     0.162 HD
HETATM   15  C22 UNL     1      22.811   3.324  48.406  1.00  0.00     0.018 C 
HETATM   16  C23 UNL     1      22.225   1.986  48.055  1.00  0.00     0.069 C 
HETATM   17  N4  UNL     1      24.103   3.629  48.970  1.00  0.00    -0.359 N 
HETATM   18  H24 UNL     1      24.826   2.889  49.070  1.00  0.00     0.162 HD
BRANCH  11  19
HETATM   19  C2  UNL     1      25.286   5.770  48.894  1.00  0.00     0.021 C 
HETATM   20  C1  UNL     1      26.577   5.630  48.785  1.00  0.00     0.012 C 
ENDBRANCH  11  19
ENDBRANCH   9  11
ENDBRANCH   8   9
ENDBRANCH   7   8
ENDBRANCH   6   7
ENDBRANCH   1   6
BRANCH   2  21
HETATM   21  C10 UNL     1      22.601   0.101  53.151  1.00  0.00     0.044 A 
HETATM   22  C11 UNL     1      22.080   0.301  51.869  1.00  0.00     0.017 A 
HETATM   23  C12 UNL     1      20.697   0.322  51.715  1.00  0.00     0.001 A 
HETATM   24  C13 UNL     1      19.834   0.153  52.781  1.00  0.00     0.000 A 
HETATM   25  C14 UNL     1      20.373  -0.047  54.057  1.00  0.00     0.001 A 
HETATM   26  C15 UNL     1      21.753  -0.072  54.235  1.00  0.00     0.017 A 
ENDBRANCH   2  21
BRANCH   4  27
HETATM   27  N2  UNL     1      27.653   0.190  53.380  1.00  0.00    -0.288 N 
HETATM   28  C17 UNL     1      27.986  -1.089  53.155  1.00  0.00     0.100 A 
HETATM   29  C18 UNL     1      29.341  -1.051  53.399  1.00  0.00     0.019 A 
HETATM   30  C19 UNL     1      29.766   0.220  53.757  1.00  0.00     0.019 A 
HETATM   31  C20 UNL     1      28.645   1.012  53.737  1.00  0.00     0.100 A 
ENDBRANCH   4  27
TORSDOF 8
ENDMDL
MODEL 8
REMARK VINA RESULT:      -8.1      1.459      5.022
REMARK  8 active torsions:
REMARK  status: ('A' for Active; 'I' for Inactive)
REMARK    1  A    between atoms: C2_2  and  C3_3 
REMARK    2  A    between atoms: C3_3  and  C4_4 
REMARK    3  A    between atoms: C4_4  and  C6_6 
REMARK    4  A    between atoms: C6_6  and  C7_7 
REMARK    5  A    between atoms: C7_7  and  C8_8 
REMARK    6  A    between atoms: C8_8  and  N1_9 
REMARK       I    between atoms: N1_9  and  C9_10 
REMARK    7  A    between atoms: C9_10  and  C10_12 
REMARK    8  A    between atoms: C16_18  and  N2_20 
ROOT
HETATM    1  N1  UNL     1      25.292   0.716  52.368  1.00  0.00     0.219 N 
HETATM    2  C9  UNL     1      24.242   0.006  53.013  1.00  0.00     0.399 C 
HETATM    3  O1  UNL     1      24.416  -0.954  53.811  1.00  0.00    -0.255 OA
HETATM    4  C16 UNL     1      26.578   0.340  52.683  1.00  0.00     0.406 A 
HETATM    5  O2  UNL     1      26.562   1.339  51.907  1.00  0.00    -0.090 OA
ENDROOT
BRANCH   1   6
HETATM    6  C8  UNL     1      24.877   1.740  51.533  1.00  0.00     0.260 C 
BRANCH   6   7
HETATM    7  C7  UNL     1      24.571   2.731  50.755  1.00  0.00     0.029 C 
BRANCH   7   8
HETATM    8  C6  UNL     1      25.241   3.715  49.960  1.00  0.00     0.008 C 
BRANCH   8   9
HETATM    9  C4  UNL     1      25.814   4.760  49.475  1.00  0.00    -0.032 C 
HETATM   10  C5  UNL     1      27.172   4.501  48.950  1.00  0.00     0.048 C 
BRANCH   9  11
HETATM   11  C3  UNL     1      25.498   6.212  49.257  1.00  0.00     0.146 C 
HETATM   12  N3  UNL     1      25.735   6.858  50.536  1.00  0.00    -0.364 N 
HETATM   13  C21 UNL     1      24.472   7.137  51.072  1.00  0.00     0.110 C 
HETATM   14  H19 UNL     1      26.683   7.027  50.885  1.00  0.00     0.162 HD
HETATM   15  C22 UNL     1      23.501   6.892  50.180  1.00  0.00     0.018 C 
HETATM   16  C23 UNL     1      22.042   7.099  50.470  1.00  0.00     0.069 C 
HETATM   17  N4  UNL     1      24.127   6.421  48.970  1.00  0.00    -0.359 N 
HETATM   18  H24 UNL     1      23.573   6.294  48.100  1.00  0.00     0.162 HD
BRANCH  11  19
HETATM   19  C2  UNL     1      26.455   6.737  48.285  1.00  0.00     0.021 C 
HETATM   20  C1  UNL     1      26.566   7.697  47.409  1.00  0.00     0.012 C 
ENDBRANCH  11  19
ENDBRANCH   9  11
ENDBRANCH   8   9
ENDBRANCH   7   8
ENDBRANCH   6   7
ENDBRANCH   1   6
BRANCH   2  21
HETATM   21  C10 UNL     1      22.791   0.112  52.996  1.00  0.00     0.044 A 
HETATM   22  C11 UNL     1      22.212   0.036  54.266  1.00  0.00     0.017 A 
HETATM   23  C12 UNL     1      20.827   0.124  54.366  1.00  0.00     0.001 A 
HETATM   24  C13 UNL     1      20.017   0.283  53.257  1.00  0.00     0.000 A 
HETATM   25  C14 UNL     1      20.613   0.358  51.994  1.00  0.00     0.001 A 
HETATM   26  C15 UNL     1      21.997   0.272  51.870  1.00  0.00     0.017 A 
ENDBRANCH   2  21
BRANCH   4  27
HETATM   27  N2  UNL     1      27.843  -0.127  53.069  1.00  0.00    -0.288 N 
HETATM   28  C17 UNL     1      28.216  -1.415  53.075  1.00  0.00     0.100 A 
HETATM   29  C18 UNL     1      29.514  -1.308  53.523  1.00  0.00     0.019 A 
HETATM   30  C19 UNL     1      29.868   0.011  53.769  1.00  0.00     0.019 A 
HETATM   31  C20 UNL     1      28.760   0.762  53.465  1.00  0.00     0.100 A 
ENDBRANCH   4  27
TORSDOF 8
ENDMDL
MODEL 9
REMARK VINA RESULT:      -8.0      1.822      2.826
REMARK  8 active torsions:
REMARK  status: ('A' for Active; 'I' for Inactive)
REMARK    1  A    between atoms: C2_2  and  C3_3 
REMARK    2  A    between atoms: C3_3  and  C4_4 
REMARK    3  A    between atoms: C4_4  and  C6_6 
REMARK    4  A    between atoms: C6_6  and  C7_7 
REMARK    5  A    between atoms: C7_7  and  C8_8 
REMARK    6  A    between atoms: C8_8  and  N1_9 
REMARK       I    between atoms: N1_9  and  C9_10 
REMARK    7  A    between atoms: C9_10  and  C10_12 
REMARK    8  A    between atoms: C16_18  and  N2_20 
ROOT
HETATM    1  N1  UNL     1      22.365   0.901  51.886  1.00  0.00     0.219 N 
HETATM    2  C9  UNL     1      23.365   0.374  52.749  1.00  0.00     0.399 C 
HETATM    3  O1  UNL     1      23.144  -0.450  53.676  1.00  0.00    -0.255 OA
HETATM    4  C16 UNL     1      21.083   0.434  52.066  1.00  0.00     0.406 A 
HETATM    5  O2  UNL     1      21.157   1.218  51.077  1.00  0.00    -0.090 OA
ENDROOT
BRANCH   1   6
HETATM    6  C8  UNL     1      22.828   1.791  50.932  1.00  0.00     0.260 C 
BRANCH   6   7
HETATM    7  C7  UNL     1      23.176   2.638  50.014  1.00  0.00     0.029 C 
BRANCH   7   8
HETATM    8  C6  UNL     1      24.346   3.359  49.609  1.00  0.00     0.008 C 
BRANCH   8   9
HETATM    9  C4  UNL     1      25.352   4.151  49.484  1.00  0.00    -0.032 C 
HETATM   10  C5  UNL     1      26.659   3.465  49.559  1.00  0.00     0.048 C 
BRANCH   9  11
HETATM   11  C3  UNL     1      25.605   5.614  49.258  1.00  0.00     0.146 C 
HETATM   12  N3  UNL     1      25.654   6.210  50.581  1.00  0.00    -0.364 N 
HETATM   13  C21 UNL     1      24.454   6.912  50.738  1.00  0.00     0.110 C 
HETATM   14  H19 UNL     1      26.459   6.078  51.200  1.00  0.00     0.162 HD
HETATM   15  C22 UNL     1      23.762   6.954  49.590  1.00  0.00     0.018 C 
HETATM   16  C23 UNL     1      22.432   7.640  49.450  1.00  0.00     0.069 C 
HETATM   17  N4  UNL     1      24.525   6.244  48.593  1.00  0.00    -0.359 N 
HETATM   18  H24 UNL     1      24.239   6.262  47.594  1.00  0.00     0.162 HD
BRANCH  11  19
HETATM   19  C2  UNL     1      26.920   5.749  48.636  1.00  0.00     0.021 C 
HETATM   20  C1  UNL     1      27.609   6.601  47.928  1.00  0.00     0.012 C 
ENDBRANCH  11  19
ENDBRANCH   9  11
ENDBRANCH   8   9
ENDBRANCH   7   8
ENDBRANCH   6   7
ENDBRANCH   1   6
BRANCH   2  21
HETATM   21  C10 UNL     1      24.804   0.562  52.862  1.00  0.00     0.044 A 
HETATM   22  C11 UNL     1      25.166   1.842  53.290  1.00  0.00     0.017 A 
HETATM   23  C12 UNL     1      26.520   2.131  53.431  1.00  0.00     0.001 A 
HETATM   24  C13 UNL     1      27.505   1.199  53.164  1.00  0.00     0.000 A 
HETATM   25  C14 UNL     1      27.124  -0.078  52.737  1.00  0.00     0.001 A 
HETATM   26  C15 UNL     1      25.775  -0.390  52.589  1.00  0.00     0.017 A 
ENDBRANCH   2  21
BRANCH   4  27
HETATM   27  N2  UNL     1      19.817  -0.103  52.341  1.00  0.00    -0.288 N 
HETATM   28  C17 UNL     1      19.508  -0.821  53.431  1.00  0.00     0.100 A 
HETATM   29  C18 UNL     1      18.176  -1.084  53.200  1.00  0.00     0.019 A 
HETATM   30  C19 UNL     1      17.739  -0.529  52.006  1.00  0.00     0.019 A 
HETATM   31  C20 UNL     1      18.830   0.106  51.464  1.00  0.00     0.100 A 
ENDBRANCH   4  27
TORSDOF 8
ENDMDL
