MODEL 1
REMARK VINA RESULT:      -8.7      0.000      0.000
REMARK  8 active torsions:
REMARK  status: ('A' for Active; 'I' for Inactive)
REMARK    1  A    between atoms: C2_2  and  N3_17 
REMARK    2  A    between atoms: C3_3  and  C4_4 
REMARK    3  A    between atoms: C7_8  and  N2_9 
REMARK    4  A    between atoms: N2_9  and  C8_10 
REMARK    5  A    between atoms: N3_17  and  C14_18 
REMARK    6  A    between atoms: C14_18  and  C15_19 
REMARK    7  A    between atoms: C15_19  and  C16_20 
REMARK    8  A    between atoms: C19_23  and  O1_24 
ROOT
HETATM    1  C1  UNL     1      24.763   4.775  50.651  1.00  0.00     0.067 C 
HETATM    2  C2  UNL     1      25.665   3.654  50.278  1.00  0.00    -0.003 C 
HETATM    3  C3  UNL     1      26.700   3.559  49.413  1.00  0.00     0.004 C 
ENDROOT
BRANCH   3   4
HETATM    4  C4  UNL     1      26.702   4.915  48.913  1.00  0.00     0.030 C 
HETATM    5  C5  UNL     1      27.470   5.907  48.421  1.00  0.00     0.002 C 
HETATM    6  C6  UNL     1      26.746   7.162  48.079  1.00  0.00     0.162 C 
HETATM    7  C13 UNL     1      28.752   6.576  47.961  1.00  0.00     0.090 C 
HETATM    8  N1  UNL     1      27.513   8.163  48.854  1.00  0.00    -0.276 NA
HETATM    9  C7  UNL     1      28.765   7.800  48.792  1.00  0.00     0.099 C 
BRANCH   9  10
HETATM   10  N2  UNL     1      29.871   8.464  49.392  1.00  0.00    -0.345 N 
HETATM   11  H8  UNL     1      29.640   9.227  50.065  1.00  0.00     0.167 HD
BRANCH  10  12
HETATM   12  C8  UNL     1      31.185   8.047  49.035  1.00  0.00     0.030 A 
HETATM   13  C9  UNL     1      31.735   8.935  48.190  1.00  0.00     0.008 A 
HETATM   14  C10 UNL     1      33.104   8.445  47.855  1.00  0.00     0.075 A 
HETATM   15  C11 UNL     1      33.234   7.181  48.620  1.00  0.00    -0.006 A 
HETATM   16 BR1  UNL     1      34.729   6.001  48.679  1.00  0.00    -0.055 Br
HETATM   17  C12 UNL     1      32.116   6.982  49.287  1.00  0.00     0.044 A 
ENDBRANCH  10  12
ENDBRANCH   9  10
ENDBRANCH   3   4
BRANCH   2  18
HETATM   18  N3  UNL     1      25.204   2.555  51.093  1.00  0.00    -0.393 N 
HETATM   19  H15 UNL     1      24.498   1.919  50.646  1.00  0.00     0.159 HD
BRANCH  18  20
HETATM   20  C14 UNL     1      25.606   2.244  52.451  1.00  0.00     0.124 C 
BRANCH  20  21
HETATM   21  C15 UNL     1      27.069   1.960  52.463  1.00  0.00     0.058 C 
BRANCH  21  22
HETATM   22  C16 UNL     1      27.362   0.502  52.642  1.00  0.00    -0.057 A 
HETATM   23  C17 UNL     1      28.569   0.219  53.268  1.00  0.00     0.010 A 
HETATM   24  C18 UNL     1      29.033  -1.052  53.531  1.00  0.00     0.037 A 
HETATM   25  C19 UNL     1      28.224  -2.099  53.136  1.00  0.00     0.065 A 
HETATM   26  C20 UNL     1      27.019  -1.854  52.511  1.00  0.00     0.037 A 
HETATM   27  C21 UNL     1      26.583  -0.570  52.261  1.00  0.00     0.010 A 
BRANCH  25  28
HETATM   28  O1  UNL     1      28.668  -3.398  53.390  1.00  0.00    -0.361 OA
HETATM   29  H22 UNL     1      28.420  -3.872  54.255  1.00  0.00     0.217 HD
ENDBRANCH  25  28
ENDBRANCH  21  22
ENDBRANCH  20  21
ENDBRANCH  18  20
ENDBRANCH   2  18
TORSDOF 8
ENDMDL
MODEL 2
REMARK VINA RESULT:      -8.5      1.586      1.917
REMARK  8 active torsions:
REMARK  status: ('A' for Active; 'I' for Inactive)
REMARK    1  A    between atoms: C2_2  and  N3_17 
REMARK    2  A    between atoms: C3_3  and  C4_4 
REMARK    3  A    between atoms: C7_8  and  N2_9 
REMARK    4  A    between atoms: N2_9  and  C8_10 
REMARK    5  A    between atoms: N3_17  and  C14_18 
REMARK    6  A    between atoms: C14_18  and  C15_19 
REMARK    7  A    between atoms: C15_19  and  C16_20 
REMARK    8  A    between atoms: C19_23  and  O1_24 
ROOT
HETATM    1  C1  UNL     1      24.629   4.550  50.827  1.00  0.00     0.067 C 
HETATM    2  C2  UNL     1      25.613   3.512  50.424  1.00  0.00    -0.003 C 
HETATM    3  C3  UNL     1      26.617   3.502  49.517  1.00  0.00     0.004 C 
ENDROOT
BRANCH   3   4
HETATM    4  C4  UNL     1      26.475   4.848  49.009  1.00  0.00     0.030 C 
HETATM    5  C5  UNL     1      27.137   5.932  48.559  1.00  0.00     0.002 C 
HETATM    6  C6  UNL     1      26.278   7.082  48.162  1.00  0.00     0.162 C 
HETATM    7  C13 UNL     1      28.348   6.763  48.178  1.00  0.00     0.090 C 
HETATM    8  N1  UNL     1      26.858   8.174  48.977  1.00  0.00    -0.276 NA
HETATM    9  C7  UNL     1      28.148   7.977  48.998  1.00  0.00     0.099 C 
BRANCH   9  10
HETATM   10  N2  UNL     1      29.117   8.779  49.662  1.00  0.00    -0.345 N 
HETATM   11  H8  UNL     1      29.157   8.688  50.701  1.00  0.00     0.167 HD
BRANCH  10  12
HETATM   12  C8  UNL     1      29.943   9.631  48.876  1.00  0.00     0.030 A 
HETATM   13  C9  UNL     1      29.335  10.813  48.684  1.00  0.00     0.008 A 
HETATM   14  C10 UNL     1      30.246  11.657  47.858  1.00  0.00     0.075 A 
HETATM   15  C11 UNL     1      31.427  10.792  47.623  1.00  0.00    -0.006 A 
HETATM   16 BR1  UNL     1      33.005  11.212  46.639  1.00  0.00    -0.055 Br
HETATM   17  C12 UNL     1      31.222   9.637  48.220  1.00  0.00     0.044 A 
ENDBRANCH  10  12
ENDBRANCH   9  10
ENDBRANCH   3   4
BRANCH   2  18
HETATM   18  N3  UNL     1      25.289   2.385  51.265  1.00  0.00    -0.393 N 
HETATM   19  H15 UNL     1      24.740   1.616  50.807  1.00  0.00     0.159 HD
BRANCH  18  20
HETATM   20  C14 UNL     1      25.634   2.207  52.662  1.00  0.00     0.124 C 
BRANCH  20  21
HETATM   21  C15 UNL     1      27.094   1.924  52.762  1.00  0.00     0.058 C 
BRANCH  21  22
HETATM   22  C16 UNL     1      27.383   0.456  52.842  1.00  0.00    -0.057 A 
HETATM   23  C17 UNL     1      28.631   0.131  53.356  1.00  0.00     0.010 A 
HETATM   24  C18 UNL     1      29.099  -1.155  53.517  1.00  0.00     0.037 A 
HETATM   25  C19 UNL     1      28.249  -2.174  53.133  1.00  0.00     0.065 A 
HETATM   26  C20 UNL     1      27.002  -1.887  52.618  1.00  0.00     0.037 A 
HETATM   27  C21 UNL     1      26.564  -0.589  52.469  1.00  0.00     0.010 A 
BRANCH  25  28
HETATM   28  O1  UNL     1      28.696  -3.488  53.285  1.00  0.00    -0.361 OA
HETATM   29  H22 UNL     1      29.533  -3.810  52.807  1.00  0.00     0.217 HD
ENDBRANCH  25  28
ENDBRANCH  21  22
ENDBRANCH  20  21
ENDBRANCH  18  20
ENDBRANCH   2  18
TORSDOF 8
ENDMDL
MODEL 3
REMARK VINA RESULT:      -8.4      5.347      8.641
REMARK  8 active torsions:
REMARK  status: ('A' for Active; 'I' for Inactive)
REMARK    1  A    between atoms: C2_2  and  N3_17 
REMARK    2  A    between atoms: C3_3  and  C4_4 
REMARK    3  A    between atoms: C7_8  and  N2_9 
REMARK    4  A    between atoms: N2_9  and  C8_10 
REMARK    5  A    between atoms: N3_17  and  C14_18 
REMARK    6  A    between atoms: C14_18  and  C15_19 
REMARK    7  A    between atoms: C15_19  and  C16_20 
REMARK    8  A    between atoms: C19_23  and  O1_24 
ROOT
HETATM    1  C1  UNL     1      24.115   2.699  50.211  1.00  0.00     0.067 C 
HETATM    2  C2  UNL     1      24.571   3.845  51.041  1.00  0.00    -0.003 C 
HETATM    3  C3  UNL     1      23.911   4.848  51.662  1.00  0.00     0.004 C 
ENDROOT
BRANCH   3   4
HETATM    4  C4  UNL     1      22.560   4.496  51.287  1.00  0.00     0.030 C 
HETATM    5  C5  UNL     1      21.434   3.871  51.683  1.00  0.00     0.002 C 
HETATM    6  C6  UNL     1      20.316   3.893  50.700  1.00  0.00     0.162 C 
HETATM    7  C13 UNL     1      20.535   3.085  52.619  1.00  0.00     0.090 C 
HETATM    8  N1  UNL     1      20.006   2.451  50.577  1.00  0.00    -0.276 NA
HETATM    9  C7  UNL     1      20.149   1.938  51.769  1.00  0.00     0.099 C 
BRANCH   9  10
HETATM   10  N2  UNL     1      19.955   0.577  52.135  1.00  0.00    -0.345 N 
HETATM   11  H8  UNL     1      19.120   0.104  51.726  1.00  0.00     0.167 HD
BRANCH  10  12
HETATM   12  C8  UNL     1      20.898  -0.027  53.014  1.00  0.00     0.030 A 
HETATM   13  C9  UNL     1      20.314  -1.024  53.700  1.00  0.00     0.008 A 
HETATM   14  C10 UNL     1      21.347  -1.615  54.600  1.00  0.00     0.075 A 
HETATM   15  C11 UNL     1      22.567  -0.819  54.320  1.00  0.00    -0.006 A 
HETATM   16 BR1  UNL     1      24.293  -1.013  55.108  1.00  0.00    -0.055 Br
HETATM   17  C12 UNL     1      22.276   0.083  53.406  1.00  0.00     0.044 A 
ENDBRANCH  10  12
ENDBRANCH   9  10
ENDBRANCH   3   4
BRANCH   2  18
HETATM   18  N3  UNL     1      26.006   3.688  51.085  1.00  0.00    -0.393 N 
HETATM   19  H15 UNL     1      26.563   4.577  51.087  1.00  0.00     0.159 HD
BRANCH  18  20
HETATM   20  C14 UNL     1      26.749   2.443  51.124  1.00  0.00     0.124 C 
BRANCH  20  21
HETATM   21  C15 UNL     1      26.870   2.001  52.541  1.00  0.00     0.058 C 
BRANCH  21  22
HETATM   22  C16 UNL     1      27.196   0.543  52.655  1.00  0.00    -0.057 A 
HETATM   23  C17 UNL     1      28.377   0.257  53.327  1.00  0.00     0.010 A 
HETATM   24  C18 UNL     1      28.864  -1.014  53.545  1.00  0.00     0.037 A 
HETATM   25  C19 UNL     1      28.106  -2.058  53.051  1.00  0.00     0.065 A 
HETATM   26  C20 UNL     1      26.928  -1.810  52.378  1.00  0.00     0.037 A 
HETATM   27  C21 UNL     1      26.469  -0.526  52.176  1.00  0.00     0.010 A 
BRANCH  25  28
HETATM   28  O1  UNL     1      28.574  -3.357  53.257  1.00  0.00    -0.361 OA
HETATM   29  H22 UNL     1      28.250  -3.906  54.048  1.00  0.00     0.217 HD
ENDBRANCH  25  28
ENDBRANCH  21  22
ENDBRANCH  20  21
ENDBRANCH  18  20
ENDBRANCH   2  18
TORSDOF 8
ENDMDL
MODEL 4
REMARK VINA RESULT:      -8.4      4.811     10.039
REMARK  8 active torsions:
REMARK  status: ('A' for Active; 'I' for Inactive)
REMARK    1  A    between atoms: C2_2  and  N3_17 
REMARK    2  A    between atoms: C3_3  and  C4_4 
REMARK    3  A    between atoms: C7_8  and  N2_9 
REMARK    4  A    between atoms: N2_9  and  C8_10 
REMARK    5  A    between atoms: N3_17  and  C14_18 
REMARK    6  A    between atoms: C14_18  and  C15_19 
REMARK    7  A    between atoms: C15_19  and  C16_20 
REMARK    8  A    between atoms: C19_23  and  O1_24 
ROOT
HETATM    1  C1  UNL     1      24.800   2.884  52.683  1.00  0.00     0.067 C 
HETATM    2  C2  UNL     1      25.495   2.927  51.370  1.00  0.00    -0.003 C 
HETATM    3  C3  UNL     1      26.591   2.296  50.891  1.00  0.00     0.004 C 
ENDROOT
BRANCH   3   4
HETATM    4  C4  UNL     1      26.933   1.518  52.061  1.00  0.00     0.030 C 
HETATM    5  C5  UNL     1      26.676   0.387  52.745  1.00  0.00     0.002 C 
HETATM    6  C6  UNL     1      27.472   0.202  53.989  1.00  0.00     0.162 C 
HETATM    7  C13 UNL     1      25.998  -0.939  53.037  1.00  0.00     0.090 C 
HETATM    8  N1  UNL     1      26.404  -0.010  54.992  1.00  0.00    -0.276 NA
HETATM    9  C7  UNL     1      25.477  -0.715  54.403  1.00  0.00     0.099 C 
BRANCH   9  10
HETATM   10  N2  UNL     1      24.255  -1.160  54.980  1.00  0.00    -0.345 N 
HETATM   11  H8  UNL     1      24.333  -1.676  55.883  1.00  0.00     0.167 HD
BRANCH  10  12
HETATM   12  C8  UNL     1      23.040  -0.874  54.295  1.00  0.00     0.030 A 
HETATM   13  C9  UNL     1      22.031  -1.574  54.837  1.00  0.00     0.008 A 
HETATM   14  C10 UNL     1      20.791  -1.232  54.080  1.00  0.00     0.075 A 
HETATM   15  C11 UNL     1      21.248  -0.259  53.059  1.00  0.00    -0.006 A 
HETATM   16 BR1  UNL     1      20.198   0.615  51.729  1.00  0.00    -0.055 Br
HETATM   17  C12 UNL     1      22.542  -0.075  53.209  1.00  0.00     0.044 A 
ENDBRANCH  10  12
ENDBRANCH   9  10
ENDBRANCH   3   4
BRANCH   2  18
HETATM   18  N3  UNL     1      24.711   3.860  50.595  1.00  0.00    -0.393 N 
HETATM   19  H15 UNL     1      23.858   3.463  50.130  1.00  0.00     0.159 HD
BRANCH  18  20
HETATM   20  C14 UNL     1      24.978   5.271  50.392  1.00  0.00     0.124 C 
BRANCH  20  21
HETATM   21  C15 UNL     1      25.123   5.525  48.931  1.00  0.00     0.058 C 
BRANCH  21  22
HETATM   22  C16 UNL     1      26.542   5.805  48.542  1.00  0.00    -0.057 A 
HETATM   23  C17 UNL     1      26.761   7.058  47.983  1.00  0.00     0.010 A 
HETATM   24  C18 UNL     1      27.987   7.519  47.557  1.00  0.00     0.037 A 
HETATM   25  C19 UNL     1      29.057   6.658  47.706  1.00  0.00     0.065 A 
HETATM   26  C20 UNL     1      28.875   5.406  48.256  1.00  0.00     0.037 A 
HETATM   27  C21 UNL     1      27.635   4.974  48.673  1.00  0.00     0.010 A 
BRANCH  25  28
HETATM   28  O1  UNL     1      30.313   7.099  47.283  1.00  0.00    -0.361 OA
HETATM   29  H22 UNL     1      30.732   7.933  47.684  1.00  0.00     0.217 HD
ENDBRANCH  25  28
ENDBRANCH  21  22
ENDBRANCH  20  21
ENDBRANCH  18  20
ENDBRANCH   2  18
TORSDOF 8
ENDMDL
MODEL 5
REMARK VINA RESULT:      -8.1      5.220      9.799
REMARK  8 active torsions:
REMARK  status: ('A' for Active; 'I' for Inactive)
REMARK    1  A    between atoms: C2_2  and  N3_17 
REMARK    2  A    between atoms: C3_3  and  C4_4 
REMARK    3  A    between atoms: C7_8  and  N2_9 
REMARK    4  A    between atoms: N2_9  and  C8_10 
REMARK    5  A    between atoms: N3_17  and  C14_18 
REMARK    6  A    between atoms: C14_18  and  C15_19 
REMARK    7  A    between atoms: C15_19  and  C16_20 
REMARK    8  A    between atoms: C19_23  and  O1_24 
ROOT
HETATM    1  C1  UNL     1      24.090   3.373  51.394  1.00  0.00     0.067 C 
HETATM    2  C2  UNL     1      24.861   3.407  50.123  1.00  0.00    -0.003 C 
HETATM    3  C3  UNL     1      26.149   3.121  49.824  1.00  0.00     0.004 C 
ENDROOT
BRANCH   3   4
HETATM    4  C4  UNL     1      26.610   2.751  51.143  1.00  0.00     0.030 C 
HETATM    5  C5  UNL     1      26.839   1.721  51.981  1.00  0.00     0.002 C 
HETATM    6  C6  UNL     1      27.369   2.098  53.320  1.00  0.00     0.162 C 
HETATM    7  C13 UNL     1      26.887   0.269  52.421  1.00  0.00     0.090 C 
HETATM    8  N1  UNL     1      26.390   1.443  54.217  1.00  0.00    -0.276 NA
HETATM    9  C7  UNL     1      26.078   0.305  53.658  1.00  0.00     0.099 C 
BRANCH   9  10
HETATM   10  N2  UNL     1      25.168  -0.665  54.162  1.00  0.00    -0.345 N 
HETATM   11  H8  UNL     1      25.583  -1.434  54.733  1.00  0.00     0.167 HD
BRANCH  10  12
HETATM   12  C8  UNL     1      23.785  -0.518  53.856  1.00  0.00     0.030 A 
HETATM   13  C9  UNL     1      23.038  -1.065  54.829  1.00  0.00     0.008 A 
HETATM   14  C10 UNL     1      21.606  -0.880  54.452  1.00  0.00     0.075 A 
HETATM   15  C11 UNL     1      21.663  -0.164  53.155  1.00  0.00    -0.006 A 
HETATM   16 BR1  UNL     1      20.202   0.411  52.074  1.00  0.00    -0.055 Br
HETATM   17  C12 UNL     1      22.927   0.029  52.841  1.00  0.00     0.044 A 
ENDBRANCH  10  12
ENDBRANCH   9  10
ENDBRANCH   3   4
BRANCH   2  18
HETATM   18  N3  UNL     1      23.893   3.840  49.144  1.00  0.00    -0.393 N 
HETATM   19  H15 UNL     1      23.706   3.169  48.358  1.00  0.00     0.159 HD
BRANCH  18  20
HETATM   20  C14 UNL     1      23.161   5.092  49.131  1.00  0.00     0.124 C 
BRANCH  20  21
HETATM   21  C15 UNL     1      23.812   6.017  48.161  1.00  0.00     0.058 C 
BRANCH  21  22
HETATM   22  C16 UNL     1      24.904   6.825  48.793  1.00  0.00    -0.057 A 
HETATM   23  C17 UNL     1      24.474   7.799  49.683  1.00  0.00     0.010 A 
HETATM   24  C18 UNL     1      25.308   8.652  50.373  1.00  0.00     0.037 A 
HETATM   25  C19 UNL     1      26.663   8.505  50.147  1.00  0.00     0.065 A 
HETATM   26  C20 UNL     1      27.126   7.547  49.269  1.00  0.00     0.037 A 
HETATM   27  C21 UNL     1      26.264   6.710  48.594  1.00  0.00     0.010 A 
BRANCH  25  28
HETATM   28  O1  UNL     1      27.534   9.354  50.833  1.00  0.00    -0.361 OA
HETATM   29  H22 UNL     1      28.540   9.212  50.789  1.00  0.00     0.217 HD
ENDBRANCH  25  28
ENDBRANCH  21  22
ENDBRANCH  20  21
ENDBRANCH  18  20
ENDBRANCH   2  18
TORSDOF 8
ENDMDL
MODEL 6
REMARK VINA RESULT:      -8.0      2.566      3.098
REMARK  8 active torsions:
REMARK  status: ('A' for Active; 'I' for Inactive)
REMARK    1  A    between atoms: C2_2  and  N3_17 
REMARK    2  A    between atoms: C3_3  and  C4_4 
REMARK    3  A    between atoms: C7_8  and  N2_9 
REMARK    4  A    between atoms: N2_9  and  C8_10 
REMARK    5  A    between atoms: N3_17  and  C14_18 
REMARK    6  A    between atoms: C14_18  and  C15_19 
REMARK    7  A    between atoms: C15_19  and  C16_20 
REMARK    8  A    between atoms: C19_23  and  O1_24 
ROOT
HETATM    1  C1  UNL     1      24.499   5.144  50.191  1.00  0.00     0.067 C 
HETATM    2  C2  UNL     1      25.373   3.948  50.078  1.00  0.00    -0.003 C 
HETATM    3  C3  UNL     1      26.552   3.729  49.453  1.00  0.00     0.004 C 
ENDROOT
BRANCH   3   4
HETATM    4  C4  UNL     1      26.755   5.044  48.888  1.00  0.00     0.030 C 
HETATM    5  C5  UNL     1      27.671   5.906  48.403  1.00  0.00     0.002 C 
HETATM    6  C6  UNL     1      27.131   7.217  47.948  1.00  0.00     0.162 C 
HETATM    7  C13 UNL     1      29.053   6.388  48.003  1.00  0.00     0.090 C 
HETATM    8  N1  UNL     1      27.965   8.161  48.725  1.00  0.00    -0.276 NA
HETATM    9  C7  UNL     1      29.164   7.647  48.770  1.00  0.00     0.099 C 
BRANCH   9  10
HETATM   10  N2  UNL     1      30.303   8.207  49.413  1.00  0.00    -0.345 N 
HETATM   11  H8  UNL     1      30.114   8.953  50.118  1.00  0.00     0.167 HD
BRANCH  10  12
HETATM   12  C8  UNL     1      31.590   7.717  49.055  1.00  0.00     0.030 A 
HETATM   13  C9  UNL     1      32.223   8.613  48.280  1.00  0.00     0.008 A 
HETATM   14  C10 UNL     1      33.561   8.046  47.939  1.00  0.00     0.075 A 
HETATM   15  C11 UNL     1      33.580   6.730  48.624  1.00  0.00    -0.006 A 
HETATM   16 BR1  UNL     1      34.984   5.441  48.634  1.00  0.00    -0.055 Br
HETATM   17  C12 UNL     1      32.436   6.572  49.255  1.00  0.00     0.044 A 
ENDBRANCH  10  12
ENDBRANCH   9  10
ENDBRANCH   3   4
BRANCH   2  18
HETATM   18  N3  UNL     1      24.677   2.939  50.841  1.00  0.00    -0.393 N 
HETATM   19  H15 UNL     1      24.095   2.265  50.284  1.00  0.00     0.159 HD
BRANCH  18  20
HETATM   20  C14 UNL     1      24.694   2.764  52.280  1.00  0.00     0.124 C 
BRANCH  20  21
HETATM   21  C15 UNL     1      24.968   1.331  52.585  1.00  0.00     0.058 C 
BRANCH  21  22
HETATM   22  C16 UNL     1      23.760   0.624  53.117  1.00  0.00    -0.057 A 
HETATM   23  C17 UNL     1      24.029  -0.401  54.015  1.00  0.00     0.010 A 
HETATM   24  C18 UNL     1      23.067  -1.179  54.623  1.00  0.00     0.037 A 
HETATM   25  C19 UNL     1      21.753  -0.900  54.301  1.00  0.00     0.065 A 
HETATM   26  C20 UNL     1      21.451   0.111  53.413  1.00  0.00     0.037 A 
HETATM   27  C21 UNL     1      22.436   0.871  52.821  1.00  0.00     0.010 A 
BRANCH  25  28
HETATM   28  O1  UNL     1      20.757  -1.671  54.903  1.00  0.00    -0.361 OA
HETATM   29  H22 UNL     1      20.498  -2.576  54.518  1.00  0.00     0.217 HD
ENDBRANCH  25  28
ENDBRANCH  21  22
ENDBRANCH  20  21
ENDBRANCH  18  20
ENDBRANCH   2  18
TORSDOF 8
ENDMDL
MODEL 7
REMARK VINA RESULT:      -7.8      2.682      3.723
REMARK  8 active torsions:
REMARK  status: ('A' for Active; 'I' for Inactive)
REMARK    1  A    between atoms: C2_2  and  N3_17 
REMARK    2  A    between atoms: C3_3  and  C4_4 
REMARK    3  A    between atoms: C7_8  and  N2_9 
REMARK    4  A    between atoms: N2_9  and  C8_10 
REMARK    5  A    between atoms: N3_17  and  C14_18 
REMARK    6  A    between atoms: C14_18  and  C15_19 
REMARK    7  A    between atoms: C15_19  and  C16_20 
REMARK    8  A    between atoms: C19_23  and  O1_24 
ROOT
HETATM    1  C1  UNL     1      23.017   1.498  51.044  1.00  0.00     0.067 C 
HETATM    2  C2  UNL     1      23.741   1.884  52.284  1.00  0.00    -0.003 C 
HETATM    3  C3  UNL     1      24.628   2.867  52.559  1.00  0.00     0.004 C 
ENDROOT
BRANCH   3   4
HETATM    4  C4  UNL     1      24.693   3.484  51.254  1.00  0.00     0.030 C 
HETATM    5  C5  UNL     1      25.481   3.726  50.187  1.00  0.00     0.002 C 
HETATM    6  C6  UNL     1      24.840   4.496  49.086  1.00  0.00     0.162 C 
HETATM    7  C13 UNL     1      26.749   3.681  49.355  1.00  0.00     0.090 C 
HETATM    8  N1  UNL     1      25.793   5.616  48.918  1.00  0.00    -0.276 NA
HETATM    9  C7  UNL     1      26.986   5.117  49.092  1.00  0.00     0.099 C 
BRANCH   9  10
HETATM   10  N2  UNL     1      28.219   5.824  49.026  1.00  0.00    -0.345 N 
HETATM   11  H8  UNL     1      28.899   5.638  49.796  1.00  0.00     0.167 HD
BRANCH  10  12
HETATM   12  C8  UNL     1      28.430   6.714  47.935  1.00  0.00     0.030 A 
HETATM   13  C9  UNL     1      29.730   6.731  47.600  1.00  0.00     0.008 A 
HETATM   14  C10 UNL     1      29.886   7.677  46.457  1.00  0.00     0.075 A 
HETATM   15  C11 UNL     1      28.511   8.174  46.208  1.00  0.00    -0.006 A 
HETATM   16 BR1  UNL     1      27.943   9.422  44.883  1.00  0.00    -0.055 Br
HETATM   17  C12 UNL     1      27.699   7.602  47.072  1.00  0.00     0.044 A 
ENDBRANCH  10  12
ENDBRANCH   9  10
ENDBRANCH   3   4
BRANCH   2  18
HETATM   18  N3  UNL     1      23.283   0.928  53.263  1.00  0.00    -0.393 N 
HETATM   19  H15 UNL     1      22.696   1.317  54.042  1.00  0.00     0.159 HD
BRANCH  18  20
HETATM   20  C14 UNL     1      23.547  -0.498  53.285  1.00  0.00     0.124 C 
BRANCH  20  21
HETATM   21  C15 UNL     1      24.467  -0.797  54.418  1.00  0.00     0.058 C 
BRANCH  21  22
HETATM   22  C16 UNL     1      25.904  -0.580  54.054  1.00  0.00    -0.057 A 
HETATM   23  C17 UNL     1      26.584   0.322  54.862  1.00  0.00     0.010 A 
HETATM   24  C18 UNL     1      27.909   0.667  54.705  1.00  0.00     0.037 A 
HETATM   25  C19 UNL     1      28.586   0.059  53.665  1.00  0.00     0.065 A 
HETATM   26  C20 UNL     1      27.941  -0.842  52.844  1.00  0.00     0.037 A 
HETATM   27  C21 UNL     1      26.614  -1.165  53.027  1.00  0.00     0.010 A 
BRANCH  25  28
HETATM   28  O1  UNL     1      29.930   0.388  53.482  1.00  0.00    -0.361 OA
HETATM   29  H22 UNL     1      30.224   1.360  53.426  1.00  0.00     0.217 HD
ENDBRANCH  25  28
ENDBRANCH  21  22
ENDBRANCH  20  21
ENDBRANCH  18  20
ENDBRANCH   2  18
TORSDOF 8
ENDMDL
MODEL 8
REMARK VINA RESULT:      -7.7      2.997      3.588
REMARK  8 active torsions:
REMARK  status: ('A' for Active; 'I' for Inactive)
REMARK    1  A    between atoms: C2_2  and  N3_17 
REMARK    2  A    between atoms: C3_3  and  C4_4 
REMARK    3  A    between atoms: C7_8  and  N2_9 
REMARK    4  A    between atoms: N2_9  and  C8_10 
REMARK    5  A    between atoms: N3_17  and  C14_18 
REMARK    6  A    between atoms: C14_18  and  C15_19 
REMARK    7  A    between atoms: C15_19  and  C16_20 
REMARK    8  A    between atoms: C19_23  and  O1_24 
ROOT
HETATM    1  C1  UNL     1      23.727   4.541  48.659  1.00  0.00     0.067 C 
HETATM    2  C2  UNL     1      24.598   3.772  49.586  1.00  0.00    -0.003 C 
HETATM    3  C3  UNL     1      25.882   3.928  49.979  1.00  0.00     0.004 C 
ENDROOT
BRANCH   3   4
HETATM    4  C4  UNL     1      26.210   5.111  49.216  1.00  0.00     0.030 C 
HETATM    5  C5  UNL     1      27.199   5.781  48.593  1.00  0.00     0.002 C 
HETATM    6  C6  UNL     1      26.791   7.061  47.949  1.00  0.00     0.162 C 
HETATM    7  C13 UNL     1      28.612   6.039  48.104  1.00  0.00     0.090 C 
HETATM    8  N1  UNL     1      27.747   8.012  48.560  1.00  0.00    -0.276 NA
HETATM    9  C7  UNL     1      28.883   7.379  48.667  1.00  0.00     0.099 C 
BRANCH   9  10
HETATM   10  N2  UNL     1      30.095   7.898  49.202  1.00  0.00    -0.345 N 
HETATM   11  H8  UNL     1      30.492   7.390  50.022  1.00  0.00     0.167 HD
BRANCH  10  12
HETATM   12  C8  UNL     1      30.666   9.050  48.589  1.00  0.00     0.030 A 
HETATM   13  C9  UNL     1      30.417  10.138  49.335  1.00  0.00     0.008 A 
HETATM   14  C10 UNL     1      31.037  11.307  48.644  1.00  0.00     0.075 A 
HETATM   15  C11 UNL     1      31.656  10.722  47.430  1.00  0.00    -0.006 A 
HETATM   16 BR1  UNL     1      32.632  11.629  46.066  1.00  0.00    -0.055 Br
HETATM   17  C12 UNL     1      31.425   9.426  47.428  1.00  0.00     0.044 A 
ENDBRANCH  10  12
ENDBRANCH   9  10
ENDBRANCH   3   4
BRANCH   2  18
HETATM   18  N3  UNL     1      23.743   2.710  50.059  1.00  0.00    -0.393 N 
HETATM   19  H15 UNL     1      23.246   2.158  49.317  1.00  0.00     0.159 HD
BRANCH  18  20
HETATM   20  C14 UNL     1      23.499   2.330  51.437  1.00  0.00     0.124 C 
BRANCH  20  21
HETATM   21  C15 UNL     1      22.426   1.297  51.467  1.00  0.00     0.058 C 
BRANCH  21  22
HETATM   22  C16 UNL     1      22.489   0.450  52.701  1.00  0.00    -0.057 A 
HETATM   23  C17 UNL     1      23.768   0.088  53.100  1.00  0.00     0.010 A 
HETATM   24  C18 UNL     1      24.053  -0.686  54.204  1.00  0.00     0.037 A 
HETATM   25  C19 UNL     1      22.974  -1.119  54.950  1.00  0.00     0.065 A 
HETATM   26  C20 UNL     1      21.689  -0.779  54.581  1.00  0.00     0.037 A 
HETATM   27  C21 UNL     1      21.438  -0.003  53.470  1.00  0.00     0.010 A 
BRANCH  25  28
HETATM   28  O1  UNL     1      23.231  -1.905  56.075  1.00  0.00    -0.361 OA
HETATM   29  H22 UNL     1      22.947  -2.881  56.102  1.00  0.00     0.217 HD
ENDBRANCH  25  28
ENDBRANCH  21  22
ENDBRANCH  20  21
ENDBRANCH  18  20
ENDBRANCH   2  18
TORSDOF 8
ENDMDL
MODEL 9
REMARK VINA RESULT:      -7.6      2.533      3.124
REMARK  8 active torsions:
REMARK  status: ('A' for Active; 'I' for Inactive)
REMARK    1  A    between atoms: C2_2  and  N3_17 
REMARK    2  A    between atoms: C3_3  and  C4_4 
REMARK    3  A    between atoms: C7_8  and  N2_9 
REMARK    4  A    between atoms: N2_9  and  C8_10 
REMARK    5  A    between atoms: N3_17  and  C14_18 
REMARK    6  A    between atoms: C14_18  and  C15_19 
REMARK    7  A    between atoms: C15_19  and  C16_20 
REMARK    8  A    between atoms: C19_23  and  O1_24 
ROOT
HETATM    1  C1  UNL     1      25.034   6.737  50.567  1.00  0.00     0.067 C 
HETATM    2  C2  UNL     1      25.242   5.351  50.072  1.00  0.00    -0.003 C 
HETATM    3  C3  UNL     1      26.056   4.826  49.128  1.00  0.00     0.004 C 
ENDROOT
BRANCH   3   4
HETATM    4  C4  UNL     1      26.713   6.040  48.698  1.00  0.00     0.030 C 
HETATM    5  C5  UNL     1      27.885   6.580  48.310  1.00  0.00     0.002 C 
HETATM    6  C6  UNL     1      27.837   8.032  47.981  1.00  0.00     0.162 C 
HETATM    7  C13 UNL     1      29.365   6.600  47.974  1.00  0.00     0.090 C 
HETATM    8  N1  UNL     1      28.906   8.565  48.855  1.00  0.00    -0.276 NA
HETATM    9  C7  UNL     1      29.859   7.674  48.863  1.00  0.00     0.099 C 
BRANCH   9  10
HETATM   10  N2  UNL     1      31.090   7.756  49.571  1.00  0.00    -0.345 N 
HETATM   11  H8  UNL     1      31.096   8.367  50.416  1.00  0.00     0.167 HD
BRANCH  10  12
HETATM   12  C8  UNL     1      32.201   7.011  49.082  1.00  0.00     0.030 A 
HETATM   13  C9  UNL     1      33.172   7.847  48.678  1.00  0.00     0.008 A 
HETATM   14  C10 UNL     1      34.304   7.011  48.180  1.00  0.00     0.075 A 
HETATM   15  C11 UNL     1      33.832   5.617  48.363  1.00  0.00    -0.006 A 
HETATM   16 BR1  UNL     1      34.760   4.006  47.942  1.00  0.00    -0.055 Br
HETATM   17  C12 UNL     1      32.623   5.652  48.882  1.00  0.00     0.044 A 
ENDBRANCH  10  12
ENDBRANCH   9  10
ENDBRANCH   3   4
BRANCH   2  18
HETATM   18  N3  UNL     1      24.328   4.562  50.864  1.00  0.00    -0.393 N 
HETATM   19  H15 UNL     1      23.806   5.081  51.612  1.00  0.00     0.159 HD
BRANCH  18  20
HETATM   20  C14 UNL     1      24.063   3.142  50.738  1.00  0.00     0.124 C 
BRANCH  20  21
HETATM   21  C15 UNL     1      24.926   2.406  51.704  1.00  0.00     0.058 C 
BRANCH  21  22
HETATM   22  C16 UNL     1      24.205   1.267  52.356  1.00  0.00    -0.057 A 
HETATM   23  C17 UNL     1      22.902   1.069  51.918  1.00  0.00     0.010 A 
HETATM   24  C18 UNL     1      22.062   0.081  52.384  1.00  0.00     0.037 A 
HETATM   25  C19 UNL     1      22.575  -0.759  53.353  1.00  0.00     0.065 A 
HETATM   26  C20 UNL     1      23.865  -0.591  53.811  1.00  0.00     0.037 A 
HETATM   27  C21 UNL     1      24.680   0.408  53.325  1.00  0.00     0.010 A 
BRANCH  25  28
HETATM   28  O1  UNL     1      21.748  -1.771  53.844  1.00  0.00    -0.361 OA
HETATM   29  H22 UNL     1      22.092  -2.436  54.531  1.00  0.00     0.217 HD
ENDBRANCH  25  28
ENDBRANCH  21  22
ENDBRANCH  20  21
ENDBRANCH  18  20
ENDBRANCH   2  18
TORSDOF 8
ENDMDL
