MODEL 1
REMARK VINA RESULT:      -8.2      0.000      0.000
REMARK  3 active torsions:
REMARK  status: ('A' for Active; 'I' for Inactive)
REMARK    1  A    between atoms: O1_2  and  C2_3 
REMARK    2  A    between atoms: C2_3  and  C3_5 
REMARK    3  A    between atoms: C15_19  and  N2_20 
ROOT
HETATM    1  C3  UNL     1      26.097   1.149  52.873  1.00  0.00     0.046 C 
HETATM    2  C4  UNL     1      26.942   1.879  52.105  1.00  0.00     0.018 C 
HETATM    3  C5  UNL     1      26.684   2.856  51.013  1.00  0.00     0.006 C 
HETATM    4  C6  UNL     1      25.567   3.048  50.308  1.00  0.00    -0.048 C 
HETATM    5  C7  UNL     1      25.626   4.111  49.277  1.00  0.00     0.157 C 
HETATM    6  N1  UNL     1      24.321   4.041  48.651  1.00  0.00    -0.356 N 
HETATM    7  C8  UNL     1      23.633   2.845  49.066  1.00  0.00     0.227 C 
HETATM    8  O3  UNL     1      22.688   2.143  48.584  1.00  0.00    -0.273 OA
HETATM    9  C9  UNL     1      24.208   2.384  50.346  1.00  0.00     0.120 C 
HETATM   10  C10 UNL     1      23.483   2.850  51.564  1.00  0.00     0.025 C 
HETATM   11  C11 UNL     1      24.039   4.212  52.032  1.00  0.00     0.042 C 
HETATM   12  C12 UNL     1      23.332   4.628  53.272  1.00  0.00    -0.014 C 
HETATM   13  C13 UNL     1      22.118   4.873  52.909  1.00  0.00    -0.032 C 
HETATM   14  C14 UNL     1      21.457   3.909  52.334  1.00  0.00     0.021 C 
HETATM   15  C15 UNL     1      22.074   3.215  51.162  1.00  0.00     0.252 C 
HETATM   16  C16 UNL     1      23.475   1.944  52.707  1.00  0.00     0.072 A 
HETATM   17  C17 UNL     1      22.355   1.025  52.924  1.00  0.00    -0.002 A 
HETATM   18 BR1  UNL     1      20.445   1.133  52.900  1.00  0.00    -0.055 Br
HETATM   19  C18 UNL     1      22.775  -0.225  53.219  1.00  0.00     0.016 A 
HETATM   20  C19 UNL     1      24.258  -0.220  53.212  1.00  0.00     0.010 A 
HETATM   21  C20 UNL     1      24.635   1.049  52.907  1.00  0.00    -0.032 A 
HETATM   22  H8  UNL     1      23.843   4.675  47.997  1.00  0.00     0.162 HD
ENDROOT
BRANCH  15  23
HETATM   23  N2  UNL     1      22.047   4.230  50.095  1.00  0.00     0.087 N 
HETATM   24  H15 UNL     1      22.971   4.289  49.607  1.00  0.00     0.313 HD
HETATM   25  H16 UNL     1      21.893   5.167  50.568  1.00  0.00     0.313 HD
ENDBRANCH  15  23
BRANCH   1  26
HETATM   26  C2  UNL     1      26.857   0.345  53.794  1.00  0.00     0.293 C 
HETATM   27  O2  UNL     1      26.997   0.790  54.959  1.00  0.00    -0.259 OA
BRANCH  26  28
HETATM   28  O1  UNL     1      27.545  -0.842  53.861  1.00  0.00    -0.323 OA
HETATM   29  C1  UNL     1      28.898  -0.985  53.477  1.00  0.00     0.213 C 
ENDBRANCH  26  28
ENDBRANCH   1  26
TORSDOF 3
ENDMDL
MODEL 2
REMARK VINA RESULT:      -8.2      2.189      4.033
REMARK  3 active torsions:
REMARK  status: ('A' for Active; 'I' for Inactive)
REMARK    1  A    between atoms: O1_2  and  C2_3 
REMARK    2  A    between atoms: C2_3  and  C3_5 
REMARK    3  A    between atoms: C15_19  and  N2_20 
ROOT
HETATM    1  C3  UNL     1      24.491   0.278  52.678  1.00  0.00     0.046 C 
HETATM    2  C4  UNL     1      23.276  -0.034  53.191  1.00  0.00     0.018 C 
HETATM    3  C5  UNL     1      21.955   0.639  53.073  1.00  0.00     0.006 C 
HETATM    4  C6  UNL     1      21.683   1.884  52.674  1.00  0.00    -0.048 C 
HETATM    5  C7  UNL     1      20.250   2.261  52.665  1.00  0.00     0.157 C 
HETATM    6  N1  UNL     1      20.275   3.653  52.260  1.00  0.00    -0.356 N 
HETATM    7  C8  UNL     1      21.623   4.161  52.305  1.00  0.00     0.227 C 
HETATM    8  O3  UNL     1      22.141   5.318  52.403  1.00  0.00    -0.273 OA
HETATM    9  C9  UNL     1      22.563   3.025  52.214  1.00  0.00     0.120 C 
HETATM   10  C10 UNL     1      23.054   2.724  50.838  1.00  0.00     0.025 C 
HETATM   11  C11 UNL     1      22.101   1.736  50.132  1.00  0.00     0.042 C 
HETATM   12  C12 UNL     1      22.639   1.418  48.782  1.00  0.00    -0.014 C 
HETATM   13  C13 UNL     1      22.539   2.513  48.107  1.00  0.00    -0.032 C 
HETATM   14  C14 UNL     1      23.143   3.567  48.578  1.00  0.00     0.021 C 
HETATM   15  C15 UNL     1      22.886   3.967  49.996  1.00  0.00     0.252 C 
HETATM   16  C16 UNL     1      24.412   2.206  50.726  1.00  0.00     0.072 A 
HETATM   17  C17 UNL     1      25.536   3.107  50.459  1.00  0.00    -0.002 A 
HETATM   18 BR1  UNL     1      25.906   4.547  49.255  1.00  0.00    -0.055 Br
HETATM   19  C18 UNL     1      26.587   2.860  51.271  1.00  0.00     0.016 A 
HETATM   20  C19 UNL     1      26.215   1.740  52.169  1.00  0.00     0.010 A 
HETATM   21  C20 UNL     1      24.948   1.385  51.833  1.00  0.00    -0.032 A 
HETATM   22  H8  UNL     1      19.524   4.292  51.965  1.00  0.00     0.162 HD
ENDROOT
BRANCH  15  23
HETATM   23  N2  UNL     1      21.492   4.442  49.982  1.00  0.00     0.087 N 
HETATM   24  H15 UNL     1      21.441   5.472  50.161  1.00  0.00     0.313 HD
HETATM   25  H16 UNL     1      20.998   3.969  50.794  1.00  0.00     0.313 HD
ENDBRANCH  15  23
BRANCH   1  26
HETATM   26  C2  UNL     1      25.457  -0.705  53.095  1.00  0.00     0.293 C 
HETATM   27  O2  UNL     1      25.547  -0.930  54.327  1.00  0.00    -0.259 OA
BRANCH  26  28
HETATM   28  O1  UNL     1      26.400  -1.562  52.582  1.00  0.00    -0.323 OA
HETATM   29  C1  UNL     1      27.766  -1.529  52.942  1.00  0.00     0.213 C 
ENDBRANCH  26  28
ENDBRANCH   1  26
TORSDOF 3
ENDMDL
MODEL 3
REMARK VINA RESULT:      -8.0      2.802      4.445
REMARK  3 active torsions:
REMARK  status: ('A' for Active; 'I' for Inactive)
REMARK    1  A    between atoms: O1_2  and  C2_3 
REMARK    2  A    between atoms: C2_3  and  C3_5 
REMARK    3  A    between atoms: C15_19  and  N2_20 
ROOT
HETATM    1  C3  UNL     1      22.251   0.609  52.421  1.00  0.00     0.046 C 
HETATM    2  C4  UNL     1      23.167   0.467  53.409  1.00  0.00     0.018 C 
HETATM    3  C5  UNL     1      24.502   1.092  53.611  1.00  0.00     0.006 C 
HETATM    4  C6  UNL     1      25.270   1.730  52.724  1.00  0.00    -0.048 C 
HETATM    5  C7  UNL     1      26.561   2.246  53.239  1.00  0.00     0.157 C 
HETATM    6  N1  UNL     1      27.184   2.817  52.062  1.00  0.00    -0.356 N 
HETATM    7  C8  UNL     1      26.466   2.422  50.876  1.00  0.00     0.227 C 
HETATM    8  O3  UNL     1      26.757   2.333  49.641  1.00  0.00    -0.273 OA
HETATM    9  C9  UNL     1      25.089   2.048  51.256  1.00  0.00     0.120 C 
HETATM   10  C10 UNL     1      24.082   3.140  51.125  1.00  0.00     0.025 C 
HETATM   11  C11 UNL     1      24.007   3.962  52.430  1.00  0.00     0.042 C 
HETATM   12  C12 UNL     1      22.964   5.012  52.288  1.00  0.00    -0.014 C 
HETATM   13  C13 UNL     1      23.423   5.833  51.406  1.00  0.00    -0.032 C 
HETATM   14  C14 UNL     1      23.718   5.352  50.232  1.00  0.00     0.021 C 
HETATM   15  C15 UNL     1      24.619   4.161  50.151  1.00  0.00     0.252 C 
HETATM   16  C16 UNL     1      22.728   2.742  50.760  1.00  0.00     0.072 A 
HETATM   17  C17 UNL     1      22.293   2.767  49.361  1.00  0.00    -0.002 A 
HETATM   18 BR1  UNL     1      22.412   3.986  47.891  1.00  0.00    -0.055 Br
HETATM   19  C18 UNL     1      21.637   1.637  49.014  1.00  0.00     0.016 A 
HETATM   20  C19 UNL     1      21.595   0.752  50.203  1.00  0.00     0.010 A 
HETATM   21  C20 UNL     1      22.239   1.416  51.197  1.00  0.00    -0.032 A 
HETATM   22  H8  UNL     1      28.009   3.423  51.952  1.00  0.00     0.162 HD
ENDROOT
BRANCH  15  23
HETATM   23  N2  UNL     1      25.933   4.682  50.563  1.00  0.00     0.087 N 
HETATM   24  H15 UNL     1      26.431   4.005  51.186  1.00  0.00     0.313 HD
HETATM   25  H16 UNL     1      25.749   5.550  51.145  1.00  0.00     0.313 HD
ENDBRANCH  15  23
BRANCH   1  26
HETATM   26  C2  UNL     1      21.112  -0.228  52.696  1.00  0.00     0.293 C 
HETATM   27  O2  UNL     1      21.322  -1.280  53.349  1.00  0.00    -0.259 OA
BRANCH  26  28
HETATM   28  O1  UNL     1      19.757  -0.294  52.482  1.00  0.00    -0.323 OA
HETATM   29  C1  UNL     1      18.867  -1.014  53.311  1.00  0.00     0.213 C 
ENDBRANCH  26  28
ENDBRANCH   1  26
TORSDOF 3
ENDMDL
MODEL 4
REMARK VINA RESULT:      -8.0      2.637      4.589
REMARK  3 active torsions:
REMARK  status: ('A' for Active; 'I' for Inactive)
REMARK    1  A    between atoms: O1_2  and  C2_3 
REMARK    2  A    between atoms: C2_3  and  C3_5 
REMARK    3  A    between atoms: C15_19  and  N2_20 
ROOT
HETATM    1  C3  UNL     1      23.428   0.342  52.871  1.00  0.00     0.046 C 
HETATM    2  C4  UNL     1      22.460  -0.586  53.071  1.00  0.00     0.018 C 
HETATM    3  C5  UNL     1      21.026  -0.613  52.675  1.00  0.00     0.006 C 
HETATM    4  C6  UNL     1      20.249   0.397  52.277  1.00  0.00    -0.048 C 
HETATM    5  C7  UNL     1      18.847   0.043  51.948  1.00  0.00     0.157 C 
HETATM    6  N1  UNL     1      18.249   1.322  51.620  1.00  0.00    -0.356 N 
HETATM    7  C8  UNL     1      19.131   2.397  52.002  1.00  0.00     0.227 C 
HETATM    8  O3  UNL     1      18.976   3.631  52.268  1.00  0.00    -0.273 OA
HETATM    9  C9  UNL     1      20.510   1.875  52.086  1.00  0.00     0.120 C 
HETATM   10  C10 UNL     1      21.327   2.058  50.852  1.00  0.00     0.025 C 
HETATM   11  C11 UNL     1      21.141   0.857  49.900  1.00  0.00     0.042 C 
HETATM   12  C12 UNL     1      22.002   1.044  48.702  1.00  0.00    -0.014 C 
HETATM   13  C13 UNL     1      21.496   2.048  48.070  1.00  0.00    -0.032 C 
HETATM   14  C14 UNL     1      21.396   3.176  48.714  1.00  0.00     0.021 C 
HETATM   15  C15 UNL     1      20.720   3.183  50.048  1.00  0.00     0.252 C 
HETATM   16  C16 UNL     1      22.757   2.273  51.039  1.00  0.00     0.072 A 
HETATM   17  C17 UNL     1      23.310   3.629  51.082  1.00  0.00    -0.002 A 
HETATM   18 BR1  UNL     1      23.127   5.237  50.061  1.00  0.00    -0.055 Br
HETATM   19  C18 UNL     1      24.176   3.791  52.107  1.00  0.00     0.016 A 
HETATM   20  C19 UNL     1      24.254   2.506  52.843  1.00  0.00     0.010 A 
HETATM   21  C20 UNL     1      23.418   1.647  52.205  1.00  0.00    -0.032 A 
HETATM   22  H8  UNL     1      17.349   1.564  51.186  1.00  0.00     0.162 HD
ENDROOT
BRANCH  15  23
HETATM   23  N2  UNL     1      19.304   2.933  49.728  1.00  0.00     0.087 N 
HETATM   24  H15 UNL     1      18.813   3.820  49.469  1.00  0.00     0.313 HD
HETATM   25  H16 UNL     1      18.846   2.581  50.618  1.00  0.00     0.313 HD
ENDBRANCH  15  23
BRANCH   1  26
HETATM   26  C2  UNL     1      24.660  -0.114  53.460  1.00  0.00     0.293 C 
HETATM   27  O2  UNL     1      25.509  -0.620  52.686  1.00  0.00    -0.259 OA
BRANCH  26  28
HETATM   28  O1  UNL     1      25.297  -0.201  54.674  1.00  0.00    -0.323 OA
HETATM   29  C1  UNL     1      26.634   0.205  54.888  1.00  0.00     0.213 C 
ENDBRANCH  26  28
ENDBRANCH   1  26
TORSDOF 3
ENDMDL
MODEL 5
REMARK VINA RESULT:      -8.0      2.838      4.746
REMARK  3 active torsions:
REMARK  status: ('A' for Active; 'I' for Inactive)
REMARK    1  A    between atoms: O1_2  and  C2_3 
REMARK    2  A    between atoms: C2_3  and  C3_5 
REMARK    3  A    between atoms: C15_19  and  N2_20 
ROOT
HETATM    1  C3  UNL     1      21.740   0.582  52.953  1.00  0.00     0.046 C 
HETATM    2  C4  UNL     1      20.402   0.790  52.976  1.00  0.00     0.018 C 
HETATM    3  C5  UNL     1      19.549   1.792  52.282  1.00  0.00     0.006 C 
HETATM    4  C6  UNL     1      19.912   2.930  51.686  1.00  0.00    -0.048 C 
HETATM    5  C7  UNL     1      18.816   3.720  51.077  1.00  0.00     0.157 C 
HETATM    6  N1  UNL     1      19.493   4.900  50.577  1.00  0.00    -0.356 N 
HETATM    7  C8  UNL     1      20.837   4.961  51.097  1.00  0.00     0.227 C 
HETATM    8  O3  UNL     1      21.687   5.890  51.273  1.00  0.00    -0.273 OA
HETATM    9  C9  UNL     1      21.255   3.602  51.496  1.00  0.00     0.120 C 
HETATM   10  C10 UNL     1      22.022   2.850  50.461  1.00  0.00     0.025 C 
HETATM   11  C11 UNL     1      21.059   2.069  49.541  1.00  0.00     0.042 C 
HETATM   12  C12 UNL     1      21.852   1.294  48.550  1.00  0.00    -0.014 C 
HETATM   13  C13 UNL     1      22.400   2.176  47.784  1.00  0.00    -0.032 C 
HETATM   14  C14 UNL     1      23.162   3.070  48.346  1.00  0.00     0.021 C 
HETATM   15  C15 UNL     1      22.621   3.850  49.501  1.00  0.00     0.252 C 
HETATM   16  C16 UNL     1      23.041   1.926  50.944  1.00  0.00     0.072 A 
HETATM   17  C17 UNL     1      24.441   2.345  51.051  1.00  0.00    -0.002 A 
HETATM   18 BR1  UNL     1      25.699   3.276  49.951  1.00  0.00    -0.055 Br
HETATM   19  C18 UNL     1      24.990   1.982  52.231  1.00  0.00     0.016 A 
HETATM   20  C19 UNL     1      23.950   1.275  53.018  1.00  0.00     0.010 A 
HETATM   21  C20 UNL     1      22.831   1.262  52.249  1.00  0.00    -0.032 A 
HETATM   22  H8  UNL     1      19.181   5.653  49.949  1.00  0.00     0.162 HD
ENDROOT
BRANCH  15  23
HETATM   23  N2  UNL     1      21.597   4.717  48.894  1.00  0.00     0.087 N 
HETATM   24  H15 UNL     1      21.382   5.537  49.507  1.00  0.00     0.313 HD
HETATM   25  H16 UNL     1      20.706   4.143  48.833  1.00  0.00     0.313 HD
ENDBRANCH  15  23
BRANCH   1  26
HETATM   26  C2  UNL     1      22.070  -0.526  53.812  1.00  0.00     0.293 C 
HETATM   27  O2  UNL     1      22.249  -1.641  53.262  1.00  0.00    -0.259 OA
BRANCH  26  28
HETATM   28  O1  UNL     1      22.278  -0.828  55.136  1.00  0.00    -0.323 OA
HETATM   29  C1  UNL     1      23.469  -1.408  55.629  1.00  0.00     0.213 C 
ENDBRANCH  26  28
ENDBRANCH   1  26
TORSDOF 3
ENDMDL
MODEL 6
REMARK VINA RESULT:      -7.4      9.593     12.320
REMARK  3 active torsions:
REMARK  status: ('A' for Active; 'I' for Inactive)
REMARK    1  A    between atoms: O1_2  and  C2_3 
REMARK    2  A    between atoms: C2_3  and  C3_5 
REMARK    3  A    between atoms: C15_19  and  N2_20 
ROOT
HETATM    1  C3  UNL     1      33.363   5.621  43.948  1.00  0.00     0.046 C 
HETATM    2  C4  UNL     1      33.915   4.408  44.190  1.00  0.00     0.018 C 
HETATM    3  C5  UNL     1      34.300   3.737  45.461  1.00  0.00     0.006 C 
HETATM    4  C6  UNL     1      34.472   4.274  46.671  1.00  0.00    -0.048 C 
HETATM    5  C7  UNL     1      34.859   3.332  47.748  1.00  0.00     0.157 C 
HETATM    6  N1  UNL     1      35.031   4.195  48.900  1.00  0.00    -0.356 N 
HETATM    7  C8  UNL     1      35.035   5.577  48.490  1.00  0.00     0.227 C 
HETATM    8  O3  UNL     1      35.485   6.657  48.990  1.00  0.00    -0.273 OA
HETATM    9  C9  UNL     1      34.348   5.690  47.189  1.00  0.00     0.120 C 
HETATM   10  C10 UNL     1      32.901   6.043  47.271  1.00  0.00     0.025 C 
HETATM   11  C11 UNL     1      32.042   4.765  47.389  1.00  0.00     0.042 C 
HETATM   12  C12 UNL     1      30.604   5.143  47.422  1.00  0.00    -0.014 C 
HETATM   13  C13 UNL     1      30.438   5.760  48.543  1.00  0.00    -0.032 C 
HETATM   14  C14 UNL     1      31.170   6.814  48.765  1.00  0.00     0.021 C 
HETATM   15  C15 UNL     1      32.653   6.704  48.605  1.00  0.00     0.252 C 
HETATM   16  C16 UNL     1      32.362   6.854  46.186  1.00  0.00     0.072 A 
HETATM   17  C17 UNL     1      32.276   8.312  46.314  1.00  0.00    -0.002 A 
HETATM   18 BR1  UNL     1      31.684   9.557  47.640  1.00  0.00    -0.055 Br
HETATM   19  C18 UNL     1      32.732   8.945  45.211  1.00  0.00     0.016 A 
HETATM   20  C19 UNL     1      33.172   7.911  44.242  1.00  0.00     0.010 A 
HETATM   21  C20 UNL     1      32.950   6.710  44.836  1.00  0.00    -0.032 A 
HETATM   22  H8  UNL     1      35.143   3.984  49.901  1.00  0.00     0.162 HD
ENDROOT
BRANCH  15  23
HETATM   23  N2  UNL     1      33.067   5.851  49.732  1.00  0.00     0.087 N 
HETATM   24  H15 UNL     1      32.297   5.749  50.433  1.00  0.00     0.313 HD
HETATM   25  H16 UNL     1      33.860   6.356  50.224  1.00  0.00     0.313 HD
ENDBRANCH  15  23
BRANCH   1  26
HETATM   26  C2  UNL     1      33.189   5.796  42.529  1.00  0.00     0.293 C 
HETATM   27  O2  UNL     1      34.209   5.667  41.809  1.00  0.00    -0.259 OA
BRANCH  26  28
HETATM   28  O1  UNL     1      32.220   6.079  41.597  1.00  0.00    -0.323 OA
HETATM   29  C1  UNL     1      32.081   5.382  40.375  1.00  0.00     0.213 C 
ENDBRANCH  26  28
ENDBRANCH   1  26
TORSDOF 3
ENDMDL
MODEL 7
REMARK VINA RESULT:      -7.4      3.402      5.132
REMARK  3 active torsions:
REMARK  status: ('A' for Active; 'I' for Inactive)
REMARK    1  A    between atoms: O1_2  and  C2_3 
REMARK    2  A    between atoms: C2_3  and  C3_5 
REMARK    3  A    between atoms: C15_19  and  N2_20 
ROOT
HETATM    1  C3  UNL     1      25.367   5.933  48.677  1.00  0.00     0.046 C 
HETATM    2  C4  UNL     1      24.412   6.501  47.901  1.00  0.00     0.018 C 
HETATM    3  C5  UNL     1      23.006   6.103  47.622  1.00  0.00     0.006 C 
HETATM    4  C6  UNL     1      22.412   4.926  47.831  1.00  0.00    -0.048 C 
HETATM    5  C7  UNL     1      20.984   4.844  47.444  1.00  0.00     0.157 C 
HETATM    6  N1  UNL     1      20.642   3.464  47.721  1.00  0.00    -0.356 N 
HETATM    7  C8  UNL     1      21.835   2.697  47.976  1.00  0.00     0.227 C 
HETATM    8  O3  UNL     1      22.137   1.462  47.915  1.00  0.00    -0.273 OA
HETATM    9  C9  UNL     1      22.911   3.616  48.400  1.00  0.00     0.120 C 
HETATM   10  C10 UNL     1      23.066   3.765  49.876  1.00  0.00     0.025 C 
HETATM   11  C11 UNL     1      22.160   4.900  50.399  1.00  0.00     0.042 C 
HETATM   12  C12 UNL     1      22.369   5.058  51.863  1.00  0.00    -0.014 C 
HETATM   13  C13 UNL     1      21.893   3.983  52.394  1.00  0.00    -0.032 C 
HETATM   14  C14 UNL     1      22.394   2.846  52.003  1.00  0.00     0.021 C 
HETATM   15  C15 UNL     1      22.453   2.554  50.538  1.00  0.00     0.252 C 
HETATM   16  C16 UNL     1      24.417   3.995  50.372  1.00  0.00     0.072 A 
HETATM   17  C17 UNL     1      25.243   2.878  50.838  1.00  0.00    -0.002 A 
HETATM   18 BR1  UNL     1      25.006   1.353  51.969  1.00  0.00    -0.055 Br
HETATM   19  C18 UNL     1      26.498   2.935  50.343  1.00  0.00     0.016 A 
HETATM   20  C19 UNL     1      26.593   4.138  49.480  1.00  0.00     0.010 A 
HETATM   21  C20 UNL     1      25.371   4.729  49.512  1.00  0.00    -0.032 A 
HETATM   22  H8  UNL     1      19.735   2.978  47.760  1.00  0.00     0.162 HD
ENDROOT
BRANCH  15  23
HETATM   23  N2  UNL     1      21.042   2.369  50.157  1.00  0.00     0.087 N 
HETATM   24  H15 UNL     1      20.399   2.747  50.891  1.00  0.00     0.313 HD
HETATM   25  H16 UNL     1      20.872   1.322  50.114  1.00  0.00     0.313 HD
ENDBRANCH  15  23
BRANCH   1  26
HETATM   26  C2  UNL     1      26.574   6.715  48.604  1.00  0.00     0.293 C 
HETATM   27  O2  UNL     1      26.789   7.520  49.544  1.00  0.00    -0.259 OA
BRANCH  26  28
HETATM   28  O1  UNL     1      27.673   6.914  47.805  1.00  0.00    -0.323 OA
HETATM   29  C1  UNL     1      28.981   6.509  48.156  1.00  0.00     0.213 C 
ENDBRANCH  26  28
ENDBRANCH   1  26
TORSDOF 3
ENDMDL
MODEL 8
REMARK VINA RESULT:      -7.4      6.965      9.280
REMARK  3 active torsions:
REMARK  status: ('A' for Active; 'I' for Inactive)
REMARK    1  A    between atoms: O1_2  and  C2_3 
REMARK    2  A    between atoms: C2_3  and  C3_5 
REMARK    3  A    between atoms: C15_19  and  N2_20 
ROOT
HETATM    1  C3  UNL     1      30.086   6.103  47.920  1.00  0.00     0.046 C 
HETATM    2  C4  UNL     1      29.010   5.324  48.185  1.00  0.00     0.018 C 
HETATM    3  C5  UNL     1      27.592   5.669  48.474  1.00  0.00     0.006 C 
HETATM    4  C6  UNL     1      27.074   6.845  48.837  1.00  0.00    -0.048 C 
HETATM    5  C7  UNL     1      25.608   6.867  49.054  1.00  0.00     0.157 C 
HETATM    6  N1  UNL     1      25.357   8.226  49.490  1.00  0.00    -0.356 N 
HETATM    7  C8  UNL     1      26.599   8.889  49.796  1.00  0.00     0.227 C 
HETATM    8  O3  UNL     1      26.929   9.885  50.514  1.00  0.00    -0.273 OA
HETATM    9  C9  UNL     1      27.694   8.204  49.080  1.00  0.00     0.120 C 
HETATM   10  C10 UNL     1      28.057   8.804  47.763  1.00  0.00     0.025 C 
HETATM   11  C11 UNL     1      27.200   8.187  46.637  1.00  0.00     0.042 C 
HETATM   12  C12 UNL     1      27.615   8.769  45.332  1.00  0.00    -0.014 C 
HETATM   13  C13 UNL     1      27.257  10.008  45.381  1.00  0.00    -0.032 C 
HETATM   14  C14 UNL     1      27.733  10.734  46.352  1.00  0.00     0.021 C 
HETATM   15  C15 UNL     1      27.588  10.239  47.755  1.00  0.00     0.252 C 
HETATM   16  C16 UNL     1      29.458   8.717  47.368  1.00  0.00     0.072 A 
HETATM   17  C17 UNL     1      30.379   9.825  47.635  1.00  0.00    -0.002 A 
HETATM   18 BR1  UNL     1      30.361  11.727  47.430  1.00  0.00    -0.055 Br
HETATM   19  C18 UNL     1      31.547   9.397  48.163  1.00  0.00     0.016 A 
HETATM   20  C19 UNL     1      31.474   7.921  48.291  1.00  0.00     0.010 A 
HETATM   21  C20 UNL     1      30.251   7.556  47.827  1.00  0.00    -0.032 A 
HETATM   22  H8  UNL     1      24.482   8.755  49.607  1.00  0.00     0.162 HD
ENDROOT
BRANCH  15  23
HETATM   23  N2  UNL     1      26.144  10.351  48.022  1.00  0.00     0.087 N 
HETATM   24  H15 UNL     1      25.963  10.652  49.008  1.00  0.00     0.313 HD
HETATM   25  H16 UNL     1      25.737   9.376  47.923  1.00  0.00     0.313 HD
ENDBRANCH  15  23
BRANCH   1  26
HETATM   26  C2  UNL     1      31.243   5.271  47.710  1.00  0.00     0.293 C 
HETATM   27  O2  UNL     1      31.704   4.672  48.712  1.00  0.00    -0.259 OA
BRANCH  26  28
HETATM   28  O1  UNL     1      32.100   4.862  46.718  1.00  0.00    -0.323 OA
HETATM   29  C1  UNL     1      32.354   3.506  46.413  1.00  0.00     0.213 C 
ENDBRANCH  26  28
ENDBRANCH   1  26
TORSDOF 3
ENDMDL
MODEL 9
REMARK VINA RESULT:      -7.3      9.710     12.492
REMARK  3 active torsions:
REMARK  status: ('A' for Active; 'I' for Inactive)
REMARK    1  A    between atoms: O1_2  and  C2_3 
REMARK    2  A    between atoms: C2_3  and  C3_5 
REMARK    3  A    between atoms: C15_19  and  N2_20 
ROOT
HETATM    1  C3  UNL     1      32.865   8.390  44.666  1.00  0.00     0.046 C 
HETATM    2  C4  UNL     1      32.226   9.344  45.385  1.00  0.00     0.018 C 
HETATM    3  C5  UNL     1      31.713   9.346  46.781  1.00  0.00     0.006 C 
HETATM    4  C6  UNL     1      31.488   8.310  47.592  1.00  0.00    -0.048 C 
HETATM    5  C7  UNL     1      30.971   8.643  48.940  1.00  0.00     0.157 C 
HETATM    6  N1  UNL     1      30.769   7.344  49.550  1.00  0.00    -0.356 N 
HETATM    7  C8  UNL     1      30.875   6.305  48.556  1.00  0.00     0.227 C 
HETATM    8  O3  UNL     1      30.456   5.108  48.464  1.00  0.00    -0.273 OA
HETATM    9  C9  UNL     1      31.659   6.817  47.414  1.00  0.00     0.120 C 
HETATM   10  C10 UNL     1      33.115   6.495  47.456  1.00  0.00     0.025 C 
HETATM   11  C11 UNL     1      33.886   7.592  48.222  1.00  0.00     0.042 C 
HETATM   12  C12 UNL     1      35.338   7.270  48.208  1.00  0.00    -0.014 C 
HETATM   13  C13 UNL     1      35.460   6.210  48.934  1.00  0.00    -0.032 C 
HETATM   14  C14 UNL     1      34.778   5.158  48.582  1.00  0.00     0.021 C 
HETATM   15  C15 UNL     1      33.306   5.299  48.358  1.00  0.00     0.252 C 
HETATM   16  C16 UNL     1      33.776   6.285  46.174  1.00  0.00     0.072 A 
HETATM   17  C17 UNL     1      33.939   4.934  45.629  1.00  0.00    -0.002 A 
HETATM   18 BR1  UNL     1      34.508   3.230  46.288  1.00  0.00    -0.055 Br
HETATM   19  C18 UNL     1      33.600   4.870  44.323  1.00  0.00     0.016 A 
HETATM   20  C19 UNL     1      33.170   6.225  43.898  1.00  0.00     0.010 A 
HETATM   21  C20 UNL     1      33.277   7.022  44.992  1.00  0.00    -0.032 A 
HETATM   22  H8  UNL     1      30.573   7.068  50.522  1.00  0.00     0.162 HD
ENDROOT
BRANCH  15  23
HETATM   23  N2  UNL     1      32.763   5.530  49.707  1.00  0.00     0.087 N 
HETATM   24  H15 UNL     1      33.424   5.190  50.444  1.00  0.00     0.313 HD
HETATM   25  H16 UNL     1      31.886   4.939  49.790  1.00  0.00     0.313 HD
ENDBRANCH  15  23
BRANCH   1  26
HETATM   26  C2  UNL     1      33.149   8.890  43.346  1.00  0.00     0.293 C 
HETATM   27  O2  UNL     1      32.169   9.247  42.648  1.00  0.00    -0.259 OA
BRANCH  26  28
HETATM   28  O1  UNL     1      34.203   9.139  42.501  1.00  0.00    -0.323 OA
HETATM   29  C1  UNL     1      35.558   9.060  42.895  1.00  0.00     0.213 C 
ENDBRANCH  26  28
ENDBRANCH   1  26
TORSDOF 3
ENDMDL
