MODEL 1
REMARK VINA RESULT:      -9.5      0.000      0.000
REMARK  6 active torsions:
REMARK  status: ('A' for Active; 'I' for Inactive)
REMARK    1  A    between atoms: C5_9  and  N5_10 
REMARK    2  A    between atoms: N5_10  and  C6_11 
REMARK    3  A    between atoms: C10_15  and  C11_16 
REMARK    4  A    between atoms: C15_23  and  C16_24 
REMARK    5  A    between atoms: C16_24  and  C17_25 
REMARK    6  A    between atoms: C17_25  and  C18_26 
ROOT
HETATM    1  C1  UNL     1      21.902   2.338  51.597  1.00  0.00     0.157 C 
HETATM    2  N1  UNL     1      22.714   1.361  50.915  1.00  0.00    -0.345 N 
HETATM    3  C2  UNL     1      21.637   0.907  50.130  1.00  0.00     0.231 C 
HETATM    4  N2  UNL     1      21.169   1.188  48.984  1.00  0.00    -0.174 NA
HETATM    5  N3  UNL     1      21.788   2.165  48.217  1.00  0.00    -0.308 N 
HETATM    6  C3  UNL     1      22.185   3.512  47.905  1.00  0.00     0.188 C 
HETATM    7  C4  UNL     1      23.044   4.104  48.969  1.00  0.00     0.113 C 
HETATM    8  N4  UNL     1      23.865   3.175  49.163  1.00  0.00    -0.246 NA
HETATM    9  C5  UNL     1      24.933   3.123  50.054  1.00  0.00     0.129 C 
HETATM   10  C13 UNL     1      25.028   2.387  51.114  1.00  0.00     0.079 C 
HETATM   11  C14 UNL     1      23.967   1.516  51.492  1.00  0.00     0.034 C 
HETATM   12  C15 UNL     1      24.106   0.756  52.587  1.00  0.00     0.003 C 
HETATM   13  H5  UNL     1      22.013   1.316  47.638  1.00  0.00     0.182 HD
ENDROOT
BRANCH   9  14
HETATM   14  N5  UNL     1      25.765   4.070  49.497  1.00  0.00    -0.341 N 
HETATM   15  H9  UNL     1      25.092   4.123  48.659  1.00  0.00     0.167 HD
BRANCH  14  16
HETATM   16  C6  UNL     1      26.612   5.019  48.951  1.00  0.00     0.034 A 
HETATM   17  C7  UNL     1      25.970   6.241  48.658  1.00  0.00     0.029 A 
HETATM   18  C8  UNL     1      26.659   7.315  48.103  1.00  0.00     0.003 A 
HETATM   19  C9  UNL     1      27.984   7.030  47.895  1.00  0.00     0.016 A 
HETATM   20  C10 UNL     1      28.678   5.869  48.153  1.00  0.00     0.050 A 
HETATM   21  C12 UNL     1      27.946   4.857  48.696  1.00  0.00     0.045 A 
BRANCH  20  22
HETATM   22  C11 UNL     1      30.106   5.847  47.824  1.00  0.00     0.417 C 
HETATM   23  F1  UNL     1      30.636   4.618  47.576  1.00  0.00    -0.166 F 
HETATM   24  F2  UNL     1      30.428   6.739  46.795  1.00  0.00    -0.166 F 
HETATM   25  F3  UNL     1      30.790   6.354  48.927  1.00  0.00    -0.166 F 
ENDBRANCH  20  22
ENDBRANCH  14  16
ENDBRANCH   9  14
BRANCH  12  26
HETATM   26  C16 UNL     1      25.200   0.532  53.568  1.00  0.00     0.033 C 
BRANCH  26  27
HETATM   27  C17 UNL     1      25.964  -0.687  53.104  1.00  0.00     0.038 C 
BRANCH  27  28
HETATM   28  C18 UNL     1      27.427  -0.579  53.302  1.00  0.00    -0.076 A 
HETATM   29  C19 UNL     1      27.995   0.567  53.663  1.00  0.00     0.003 A 
HETATM   30  C20 UNL     1      29.427   0.469  53.809  1.00  0.00    -0.003 A 
HETATM   31  C21 UNL     1      29.750  -0.774  53.534  1.00  0.00    -0.022 A 
HETATM   32  C22 UNL     1      28.520  -1.549  53.193  1.00  0.00     0.061 A 
ENDBRANCH  27  28
ENDBRANCH  26  27
ENDBRANCH  12  26
TORSDOF 6
ENDMDL
MODEL 2
REMARK VINA RESULT:      -9.2      3.182      5.888
REMARK  6 active torsions:
REMARK  status: ('A' for Active; 'I' for Inactive)
REMARK    1  A    between atoms: C5_9  and  N5_10 
REMARK    2  A    between atoms: N5_10  and  C6_11 
REMARK    3  A    between atoms: C10_15  and  C11_16 
REMARK    4  A    between atoms: C15_23  and  C16_24 
REMARK    5  A    between atoms: C16_24  and  C17_25 
REMARK    6  A    between atoms: C17_25  and  C18_26 
ROOT
HETATM    1  C1  UNL     1      25.670  -0.864  52.923  1.00  0.00     0.157 C 
HETATM    2  N1  UNL     1      25.032   0.111  53.772  1.00  0.00    -0.345 N 
HETATM    3  C2  UNL     1      25.979  -0.056  54.800  1.00  0.00     0.231 C 
HETATM    4  N2  UNL     1      27.071   0.504  55.127  1.00  0.00    -0.174 NA
HETATM    5  N3  UNL     1      27.550   1.558  54.362  1.00  0.00    -0.308 N 
HETATM    6  C3  UNL     1      28.104   2.153  53.176  1.00  0.00     0.188 C 
HETATM    7  C4  UNL     1      27.215   1.979  51.993  1.00  0.00     0.113 C 
HETATM    8  N4  UNL     1      26.104   2.313  52.472  1.00  0.00    -0.246 NA
HETATM    9  C5  UNL     1      24.861   2.358  51.850  1.00  0.00     0.129 C 
HETATM   10  C13 UNL     1      23.850   1.580  52.070  1.00  0.00     0.079 C 
HETATM   11  C14 UNL     1      23.937   0.528  53.027  1.00  0.00     0.034 C 
HETATM   12  C15 UNL     1      22.866  -0.248  53.242  1.00  0.00     0.003 C 
HETATM   13  H5  UNL     1      27.313   2.075  55.247  1.00  0.00     0.182 HD
ENDROOT
BRANCH   9  14
HETATM   14  N5  UNL     1      25.065   3.396  50.967  1.00  0.00    -0.341 N 
HETATM   15  H9  UNL     1      25.093   4.065  51.809  1.00  0.00     0.167 HD
BRANCH  14  16
HETATM   16  C6  UNL     1      25.269   4.426  50.066  1.00  0.00     0.034 A 
HETATM   17  C7  UNL     1      24.073   5.033  49.627  1.00  0.00     0.029 A 
HETATM   18  C8  UNL     1      24.076   6.087  48.718  1.00  0.00     0.003 A 
HETATM   19  C9  UNL     1      25.346   6.436  48.334  1.00  0.00     0.016 A 
HETATM   20  C10 UNL     1      26.553   5.895  48.715  1.00  0.00     0.050 A 
HETATM   21  C12 UNL     1      26.480   4.866  49.606  1.00  0.00     0.045 A 
BRANCH  20  22
HETATM   22  C11 UNL     1      27.768   6.473  48.135  1.00  0.00     0.417 C 
HETATM   23  F1  UNL     1      28.786   5.600  47.904  1.00  0.00    -0.166 F 
HETATM   24  F2  UNL     1      27.500   7.232  46.989  1.00  0.00    -0.166 F 
HETATM   25  F3  UNL     1      28.253   7.410  49.045  1.00  0.00    -0.166 F 
ENDBRANCH  20  22
ENDBRANCH  14  16
ENDBRANCH   9  14
BRANCH  12  26
HETATM   26  C16 UNL     1      21.471  -0.265  52.728  1.00  0.00     0.033 C 
BRANCH  26  27
HETATM   27  C17 UNL     1      20.635  -0.999  53.751  1.00  0.00     0.038 C 
BRANCH  27  28
HETATM   28  C18 UNL     1      19.228  -1.195  53.333  1.00  0.00    -0.076 A 
HETATM   29  C19 UNL     1      18.644  -0.382  52.458  1.00  0.00     0.003 A 
HETATM   30  C20 UNL     1      17.276  -0.740  52.177  1.00  0.00    -0.003 A 
HETATM   31  C21 UNL     1      17.009  -1.806  52.896  1.00  0.00    -0.022 A 
HETATM   32  C22 UNL     1      18.215  -2.192  53.688  1.00  0.00     0.061 A 
ENDBRANCH  27  28
ENDBRANCH  26  27
ENDBRANCH  12  26
TORSDOF 6
ENDMDL
MODEL 3
REMARK VINA RESULT:      -9.1      4.676      7.947
REMARK  6 active torsions:
REMARK  status: ('A' for Active; 'I' for Inactive)
REMARK    1  A    between atoms: C5_9  and  N5_10 
REMARK    2  A    between atoms: N5_10  and  C6_11 
REMARK    3  A    between atoms: C10_15  and  C11_16 
REMARK    4  A    between atoms: C15_23  and  C16_24 
REMARK    5  A    between atoms: C16_24  and  C17_25 
REMARK    6  A    between atoms: C17_25  and  C18_26 
ROOT
HETATM    1  C1  UNL     1      23.927   5.798  48.462  1.00  0.00     0.157 C 
HETATM    2  N1  UNL     1      24.745   6.236  49.566  1.00  0.00    -0.345 N 
HETATM    3  C2  UNL     1      23.870   7.291  49.890  1.00  0.00     0.231 C 
HETATM    4  N2  UNL     1      22.884   7.441  50.675  1.00  0.00    -0.174 NA
HETATM    5  N3  UNL     1      22.474   6.377  51.466  1.00  0.00    -0.308 N 
HETATM    6  C3  UNL     1      21.902   5.078  51.697  1.00  0.00     0.188 C 
HETATM    7  C4  UNL     1      22.665   3.998  51.011  1.00  0.00     0.113 C 
HETATM    8  N4  UNL     1      23.843   4.294  51.327  1.00  0.00    -0.246 NA
HETATM    9  C5  UNL     1      25.029   3.652  50.985  1.00  0.00     0.129 C 
HETATM   10  C13 UNL     1      25.953   4.092  50.193  1.00  0.00     0.079 C 
HETATM   11  C14 UNL     1      25.818   5.355  49.549  1.00  0.00     0.034 C 
HETATM   12  C15 UNL     1      26.801   5.787  48.748  1.00  0.00     0.003 C 
HETATM   13  H5  UNL     1      22.843   7.020  52.212  1.00  0.00     0.182 HD
ENDROOT
BRANCH   9  14
HETATM   14  N5  UNL     1      24.880   2.472  51.681  1.00  0.00    -0.341 N 
HETATM   15  H9  UNL     1      25.375   1.968  50.870  1.00  0.00     0.167 HD
BRANCH  14  16
HETATM   16  C6  UNL     1      24.722   1.296  52.393  1.00  0.00     0.034 A 
HETATM   17  C7  UNL     1      25.882   0.492  52.415  1.00  0.00     0.029 A 
HETATM   18  C8  UNL     1      25.915  -0.729  53.081  1.00  0.00     0.003 A 
HETATM   19  C9  UNL     1      24.720  -1.023  53.685  1.00  0.00     0.016 A 
HETATM   20  C10 UNL     1      23.551  -0.295  53.708  1.00  0.00     0.050 A 
HETATM   21  C12 UNL     1      23.585   0.890  53.037  1.00  0.00     0.045 A 
BRANCH  20  22
HETATM   22  C11 UNL     1      22.415  -0.861  54.441  1.00  0.00     0.417 C 
HETATM   23  F1  UNL     1      21.518   0.039  54.927  1.00  0.00    -0.166 F 
HETATM   24  F2  UNL     1      21.762  -1.864  53.715  1.00  0.00    -0.166 F 
HETATM   25  F3  UNL     1      22.933  -1.536  55.544  1.00  0.00    -0.166 F 
ENDBRANCH  20  22
ENDBRANCH  14  16
ENDBRANCH   9  14
BRANCH  12  26
HETATM   26  C16 UNL     1      28.138   5.262  48.363  1.00  0.00     0.033 C 
BRANCH  26  27
HETATM   27  C17 UNL     1      29.082   6.443  48.333  1.00  0.00     0.038 C 
BRANCH  27  28
HETATM   28  C18 UNL     1      30.510   6.060  48.399  1.00  0.00    -0.076 A 
HETATM   29  C19 UNL     1      30.986   5.035  47.698  1.00  0.00     0.003 A 
HETATM   30  C20 UNL     1      32.400   4.824  47.893  1.00  0.00    -0.003 A 
HETATM   31  C21 UNL     1      32.808   5.747  48.735  1.00  0.00    -0.022 A 
HETATM   32  C22 UNL     1      31.655   6.612  49.128  1.00  0.00     0.061 A 
ENDBRANCH  27  28
ENDBRANCH  26  27
ENDBRANCH  12  26
TORSDOF 6
ENDMDL
MODEL 4
REMARK VINA RESULT:      -9.0      1.855      2.423
REMARK  6 active torsions:
REMARK  status: ('A' for Active; 'I' for Inactive)
REMARK    1  A    between atoms: C5_9  and  N5_10 
REMARK    2  A    between atoms: N5_10  and  C6_11 
REMARK    3  A    between atoms: C10_15  and  C11_16 
REMARK    4  A    between atoms: C15_23  and  C16_24 
REMARK    5  A    between atoms: C16_24  and  C17_25 
REMARK    6  A    between atoms: C17_25  and  C18_26 
ROOT
HETATM    1  C1  UNL     1      21.610   1.860  52.604  1.00  0.00     0.157 C 
HETATM    2  N1  UNL     1      22.264   0.932  51.715  1.00  0.00    -0.345 N 
HETATM    3  C2  UNL     1      21.053   0.541  51.113  1.00  0.00     0.231 C 
HETATM    4  N2  UNL     1      20.387   0.909  50.096  1.00  0.00    -0.174 NA
HETATM    5  N3  UNL     1      20.872   1.936  49.299  1.00  0.00    -0.308 N 
HETATM    6  C3  UNL     1      21.230   3.300  49.016  1.00  0.00     0.188 C 
HETATM    7  C4  UNL     1      22.281   3.808  49.942  1.00  0.00     0.113 C 
HETATM    8  N4  UNL     1      23.106   2.864  49.914  1.00  0.00    -0.246 NA
HETATM    9  C5  UNL     1      24.319   2.741  50.587  1.00  0.00     0.129 C 
HETATM   10  C13 UNL     1      24.594   1.929  51.556  1.00  0.00     0.079 C 
HETATM   11  C14 UNL     1      23.605   1.038  52.061  1.00  0.00     0.034 C 
HETATM   12  C15 UNL     1      23.928   0.199  53.054  1.00  0.00     0.003 C 
HETATM   13  H5  UNL     1      20.971   1.131  48.630  1.00  0.00     0.182 HD
ENDROOT
BRANCH   9  14
HETATM   14  N5  UNL     1      25.051   3.722  49.954  1.00  0.00    -0.341 N 
HETATM   15  H9  UNL     1      24.299   4.431  50.251  1.00  0.00     0.167 HD
BRANCH  14  16
HETATM   16  C6  UNL     1      25.799   4.695  49.313  1.00  0.00     0.034 A 
HETATM   17  C7  UNL     1      27.151   4.334  49.130  1.00  0.00     0.029 A 
HETATM   18  C8  UNL     1      28.058   5.185  48.506  1.00  0.00     0.003 A 
HETATM   19  C9  UNL     1      27.477   6.363  48.111  1.00  0.00     0.016 A 
HETATM   20  C10 UNL     1      26.174   6.785  48.255  1.00  0.00     0.050 A 
HETATM   21  C12 UNL     1      25.338   5.906  48.874  1.00  0.00     0.045 A 
BRANCH  20  22
HETATM   22  C11 UNL     1      25.831   8.111  47.733  1.00  0.00     0.417 C 
HETATM   23  F1  UNL     1      24.872   8.786  48.422  1.00  0.00    -0.166 F 
HETATM   24  F2  UNL     1      26.960   8.916  47.543  1.00  0.00    -0.166 F 
HETATM   25  F3  UNL     1      25.334   7.929  46.443  1.00  0.00    -0.166 F 
ENDBRANCH  20  22
ENDBRANCH  14  16
ENDBRANCH   9  14
BRANCH  12  26
HETATM   26  C16 UNL     1      25.181  -0.102  53.798  1.00  0.00     0.033 C 
BRANCH  26  27
HETATM   27  C17 UNL     1      26.092  -0.840  52.844  1.00  0.00     0.038 C 
BRANCH  27  28
HETATM   28  C18 UNL     1      27.530  -0.678  53.156  1.00  0.00    -0.076 A 
HETATM   29  C19 UNL     1      28.035   0.501  53.507  1.00  0.00     0.003 A 
HETATM   30  C20 UNL     1      29.451   0.453  53.775  1.00  0.00    -0.003 A 
HETATM   31  C21 UNL     1      29.830  -0.790  53.586  1.00  0.00    -0.022 A 
HETATM   32  C22 UNL     1      28.654  -1.617  53.182  1.00  0.00     0.061 A 
ENDBRANCH  27  28
ENDBRANCH  26  27
ENDBRANCH  12  26
TORSDOF 6
ENDMDL
MODEL 5
REMARK VINA RESULT:      -8.8      1.883      2.286
REMARK  6 active torsions:
REMARK  status: ('A' for Active; 'I' for Inactive)
REMARK    1  A    between atoms: C5_9  and  N5_10 
REMARK    2  A    between atoms: N5_10  and  C6_11 
REMARK    3  A    between atoms: C10_15  and  C11_16 
REMARK    4  A    between atoms: C15_23  and  C16_24 
REMARK    5  A    between atoms: C16_24  and  C17_25 
REMARK    6  A    between atoms: C17_25  and  C18_26 
ROOT
HETATM    1  C1  UNL     1      23.791   4.211  52.925  1.00  0.00     0.157 C 
HETATM    2  N1  UNL     1      23.495   3.499  51.706  1.00  0.00    -0.345 N 
HETATM    3  C2  UNL     1      22.168   3.966  51.668  1.00  0.00     0.231 C 
HETATM    4  N2  UNL     1      21.568   4.949  51.134  1.00  0.00    -0.174 NA
HETATM    5  N3  UNL     1      22.291   5.855  50.371  1.00  0.00    -0.308 N 
HETATM    6  C3  UNL     1      23.261   6.896  50.168  1.00  0.00     0.188 C 
HETATM    7  C4  UNL     1      24.630   6.476  50.580  1.00  0.00     0.113 C 
HETATM    8  N4  UNL     1      24.712   5.348  50.037  1.00  0.00    -0.246 NA
HETATM    9  C5  UNL     1      25.768   4.442  50.057  1.00  0.00     0.129 C 
HETATM   10  C13 UNL     1      25.800   3.297  50.659  1.00  0.00     0.079 C 
HETATM   11  C14 UNL     1      24.684   2.841  51.416  1.00  0.00     0.034 C 
HETATM   12  C15 UNL     1      24.745   1.643  52.013  1.00  0.00     0.003 C 
HETATM   13  H5  UNL     1      21.707   5.413  49.616  1.00  0.00     0.182 HD
ENDROOT
BRANCH   9  14
HETATM   14  N5  UNL     1      26.702   5.135  49.318  1.00  0.00    -0.341 N 
HETATM   15  H9  UNL     1      27.348   5.118  50.178  1.00  0.00     0.167 HD
BRANCH  14  16
HETATM   16  C6  UNL     1      27.629   5.831  48.563  1.00  0.00     0.034 A 
HETATM   17  C7  UNL     1      27.096   6.980  47.940  1.00  0.00     0.029 A 
HETATM   18  C8  UNL     1      27.876   7.807  47.138  1.00  0.00     0.003 A 
HETATM   19  C9  UNL     1      29.172   7.369  47.048  1.00  0.00     0.016 A 
HETATM   20  C10 UNL     1      29.763   6.266  47.621  1.00  0.00     0.050 A 
HETATM   21  C12 UNL     1      28.945   5.498  48.394  1.00  0.00     0.045 A 
BRANCH  20  22
HETATM   22  C11 UNL     1      31.185   6.039  47.347  1.00  0.00     0.417 C 
HETATM   23  F1  UNL     1      31.583   6.271  46.067  1.00  0.00    -0.166 F 
HETATM   24  F2  UNL     1      32.014   6.713  48.251  1.00  0.00    -0.166 F 
HETATM   25  F3  UNL     1      31.443   4.693  47.602  1.00  0.00    -0.166 F 
ENDBRANCH  20  22
ENDBRANCH  14  16
ENDBRANCH   9  14
BRANCH  12  26
HETATM   26  C16 UNL     1      25.750   0.547  52.051  1.00  0.00     0.033 C 
BRANCH  26  27
HETATM   27  C17 UNL     1      26.379   0.576  53.425  1.00  0.00     0.038 C 
BRANCH  27  28
HETATM   28  C18 UNL     1      27.699  -0.092  53.484  1.00  0.00    -0.076 A 
HETATM   29  C19 UNL     1      27.863  -1.343  53.065  1.00  0.00     0.003 A 
HETATM   30  C20 UNL     1      29.220  -1.813  53.200  1.00  0.00    -0.003 A 
HETATM   31  C21 UNL     1      29.913  -0.823  53.714  1.00  0.00    -0.022 A 
HETATM   32  C22 UNL     1      29.020   0.353  53.937  1.00  0.00     0.061 A 
ENDBRANCH  27  28
ENDBRANCH  26  27
ENDBRANCH  12  26
TORSDOF 6
ENDMDL
MODEL 6
REMARK VINA RESULT:      -8.8      6.322      9.109
REMARK  6 active torsions:
REMARK  status: ('A' for Active; 'I' for Inactive)
REMARK    1  A    between atoms: C5_9  and  N5_10 
REMARK    2  A    between atoms: N5_10  and  C6_11 
REMARK    3  A    between atoms: C10_15  and  C11_16 
REMARK    4  A    between atoms: C15_23  and  C16_24 
REMARK    5  A    between atoms: C16_24  and  C17_25 
REMARK    6  A    between atoms: C17_25  and  C18_26 
ROOT
HETATM    1  C1  UNL     1      23.787   2.284  51.122  1.00  0.00     0.157 C 
HETATM    2  N1  UNL     1      23.573   2.424  52.541  1.00  0.00    -0.345 N 
HETATM    3  C2  UNL     1      23.529   3.830  52.470  1.00  0.00     0.231 C 
HETATM    4  N2  UNL     1      22.616   4.702  52.336  1.00  0.00    -0.174 NA
HETATM    5  N3  UNL     1      21.295   4.293  52.228  1.00  0.00    -0.308 N 
HETATM    6  C3  UNL     1      20.182   3.659  51.573  1.00  0.00     0.188 C 
HETATM    7  C4  UNL     1      20.427   2.211  51.325  1.00  0.00     0.113 C 
HETATM    8  N4  UNL     1      20.864   1.844  52.443  1.00  0.00    -0.246 NA
HETATM    9  C5  UNL     1      21.278   0.579  52.848  1.00  0.00     0.129 C 
HETATM   10  C13 UNL     1      22.486   0.203  53.119  1.00  0.00     0.079 C 
HETATM   11  C14 UNL     1      23.574   1.114  53.003  1.00  0.00     0.034 C 
HETATM   12  C15 UNL     1      24.810   0.697  53.307  1.00  0.00     0.003 C 
HETATM   13  H5  UNL     1      21.258   4.765  53.168  1.00  0.00     0.182 HD
ENDROOT
BRANCH   9  14
HETATM   14  N5  UNL     1      20.074  -0.093  52.826  1.00  0.00    -0.341 N 
HETATM   15  H9  UNL     1      20.034   0.009  53.896  1.00  0.00     0.167 HD
BRANCH  14  16
HETATM   16  C6  UNL     1      18.867  -0.769  52.786  1.00  0.00     0.034 A 
HETATM   17  C7  UNL     1      18.835  -1.910  53.615  1.00  0.00     0.029 A 
HETATM   18  C8  UNL     1      17.706  -2.718  53.706  1.00  0.00     0.003 A 
HETATM   19  C9  UNL     1      16.680  -2.266  52.916  1.00  0.00     0.016 A 
HETATM   20  C10 UNL     1      16.636  -1.170  52.085  1.00  0.00     0.050 A 
HETATM   21  C12 UNL     1      17.774  -0.421  52.041  1.00  0.00     0.045 A 
BRANCH  20  22
HETATM   22  C11 UNL     1      15.392  -0.927  51.349  1.00  0.00     0.417 C 
HETATM   23  F1  UNL     1      15.427   0.095  50.451  1.00  0.00    -0.166 F 
HETATM   24  F2  UNL     1      14.892  -2.091  50.753  1.00  0.00    -0.166 F 
HETATM   25  F3  UNL     1      14.418  -0.593  52.288  1.00  0.00    -0.166 F 
ENDBRANCH  20  22
ENDBRANCH  14  16
ENDBRANCH   9  14
BRANCH  12  26
HETATM   26  C16 UNL     1      25.383  -0.573  53.827  1.00  0.00     0.033 C 
BRANCH  26  27
HETATM   27  C17 UNL     1      26.339  -1.087  52.775  1.00  0.00     0.038 C 
BRANCH  27  28
HETATM   28  C18 UNL     1      27.764  -0.883  53.122  1.00  0.00    -0.076 A 
HETATM   29  C19 UNL     1      28.236   0.318  53.439  1.00  0.00     0.003 A 
HETATM   30  C20 UNL     1      29.644   0.310  53.750  1.00  0.00    -0.003 A 
HETATM   31  C21 UNL     1      30.052  -0.932  53.624  1.00  0.00    -0.022 A 
HETATM   32  C22 UNL     1      28.904  -1.799  53.220  1.00  0.00     0.061 A 
ENDBRANCH  27  28
ENDBRANCH  26  27
ENDBRANCH  12  26
TORSDOF 6
ENDMDL
MODEL 7
REMARK VINA RESULT:      -8.7      5.189      8.949
REMARK  6 active torsions:
REMARK  status: ('A' for Active; 'I' for Inactive)
REMARK    1  A    between atoms: C5_9  and  N5_10 
REMARK    2  A    between atoms: N5_10  and  C6_11 
REMARK    3  A    between atoms: C10_15  and  C11_16 
REMARK    4  A    between atoms: C15_23  and  C16_24 
REMARK    5  A    between atoms: C16_24  and  C17_25 
REMARK    6  A    between atoms: C17_25  and  C18_26 
ROOT
HETATM    1  C1  UNL     1      26.225   2.165  53.904  1.00  0.00     0.157 C 
HETATM    2  N1  UNL     1      26.352   1.321  52.742  1.00  0.00    -0.345 N 
HETATM    3  C2  UNL     1      27.230   0.433  53.391  1.00  0.00     0.231 C 
HETATM    4  N2  UNL     1      27.105  -0.645  54.051  1.00  0.00    -0.174 NA
HETATM    5  N3  UNL     1      25.840  -1.183  54.242  1.00  0.00    -0.308 N 
HETATM    6  C3  UNL     1      24.509  -1.206  54.785  1.00  0.00     0.188 C 
HETATM    7  C4  UNL     1      23.708  -0.023  54.362  1.00  0.00     0.113 C 
HETATM    8  N4  UNL     1      23.945   0.002  53.130  1.00  0.00    -0.246 NA
HETATM    9  C5  UNL     1      23.479   0.891  52.166  1.00  0.00     0.129 C 
HETATM   10  C13 UNL     1      24.168   1.783  51.531  1.00  0.00     0.079 C 
HETATM   11  C14 UNL     1      25.558   1.950  51.792  1.00  0.00     0.034 C 
HETATM   12  C15 UNL     1      26.245   2.872  51.104  1.00  0.00     0.003 C 
HETATM   13  H5  UNL     1      26.250  -1.915  53.608  1.00  0.00     0.182 HD
ENDROOT
BRANCH   9  14
HETATM   14  N5  UNL     1      22.142   0.558  52.150  1.00  0.00    -0.341 N 
HETATM   15  H9  UNL     1      22.356  -0.208  52.874  1.00  0.00     0.167 HD
BRANCH  14  16
HETATM   16  C6  UNL     1      20.796   0.236  52.121  1.00  0.00     0.034 A 
HETATM   17  C7  UNL     1      20.370  -0.497  53.249  1.00  0.00     0.029 A 
HETATM   18  C8  UNL     1      19.050  -0.912  53.398  1.00  0.00     0.003 A 
HETATM   19  C9  UNL     1      18.263  -0.523  52.344  1.00  0.00     0.016 A 
HETATM   20  C10 UNL     1      18.604   0.188  51.215  1.00  0.00     0.050 A 
HETATM   21  C12 UNL     1      19.910   0.564  51.132  1.00  0.00     0.045 A 
BRANCH  20  22
HETATM   22  C11 UNL     1      17.543   0.463  50.242  1.00  0.00     0.417 C 
HETATM   23  F1  UNL     1      17.176  -0.587  49.458  1.00  0.00    -0.166 F 
HETATM   24  F2  UNL     1      16.419   1.053  50.833  1.00  0.00    -0.166 F 
HETATM   25  F3  UNL     1      18.020   1.449  49.381  1.00  0.00    -0.166 F 
ENDBRANCH  20  22
ENDBRANCH  14  16
ENDBRANCH   9  14
BRANCH  12  26
HETATM   26  C16 UNL     1      25.910   3.817  50.005  1.00  0.00     0.033 C 
BRANCH  26  27
HETATM   27  C17 UNL     1      27.048   3.759  49.013  1.00  0.00     0.038 C 
BRANCH  27  28
HETATM   28  C18 UNL     1      27.556   5.092  48.618  1.00  0.00    -0.076 A 
HETATM   29  C19 UNL     1      26.749   6.144  48.532  1.00  0.00     0.003 A 
HETATM   30  C20 UNL     1      27.432   7.351  48.137  1.00  0.00    -0.003 A 
HETATM   31  C21 UNL     1      28.697   7.036  47.978  1.00  0.00    -0.022 A 
HETATM   32  C22 UNL     1      28.892   5.584  48.269  1.00  0.00     0.061 A 
ENDBRANCH  27  28
ENDBRANCH  26  27
ENDBRANCH  12  26
TORSDOF 6
ENDMDL
MODEL 8
REMARK VINA RESULT:      -8.7      3.161      6.027
REMARK  6 active torsions:
REMARK  status: ('A' for Active; 'I' for Inactive)
REMARK    1  A    between atoms: C5_9  and  N5_10 
REMARK    2  A    between atoms: N5_10  and  C6_11 
REMARK    3  A    between atoms: C10_15  and  C11_16 
REMARK    4  A    between atoms: C15_23  and  C16_24 
REMARK    5  A    between atoms: C16_24  and  C17_25 
REMARK    6  A    between atoms: C17_25  and  C18_26 
ROOT
HETATM    1  C1  UNL     1      25.899  -0.985  53.012  1.00  0.00     0.157 C 
HETATM    2  N1  UNL     1      25.211  -0.016  53.828  1.00  0.00    -0.345 N 
HETATM    3  C2  UNL     1      26.067  -0.223  54.926  1.00  0.00     0.231 C 
HETATM    4  N2  UNL     1      27.138   0.309  55.353  1.00  0.00    -0.174 NA
HETATM    5  N3  UNL     1      27.697   1.369  54.653  1.00  0.00    -0.308 N 
HETATM    6  C3  UNL     1      28.357   1.978  53.529  1.00  0.00     0.188 C 
HETATM    7  C4  UNL     1      27.565   1.845  52.274  1.00  0.00     0.113 C 
HETATM    8  N4  UNL     1      26.425   2.191  52.669  1.00  0.00    -0.246 NA
HETATM    9  C5  UNL     1      25.237   2.273  51.949  1.00  0.00     0.129 C 
HETATM   10  C13 UNL     1      24.199   1.510  52.068  1.00  0.00     0.079 C 
HETATM   11  C14 UNL     1      24.188   0.437  53.005  1.00  0.00     0.034 C 
HETATM   12  C15 UNL     1      23.090  -0.323  53.114  1.00  0.00     0.003 C 
HETATM   13  H5  UNL     1      27.397   1.872  55.527  1.00  0.00     0.182 HD
ENDROOT
BRANCH   9  14
HETATM   14  N5  UNL     1      25.531   3.324  51.108  1.00  0.00    -0.341 N 
HETATM   15  H9  UNL     1      25.768   2.606  50.343  1.00  0.00     0.167 HD
BRANCH  14  16
HETATM   16  C6  UNL     1      25.823   4.392  50.277  1.00  0.00     0.034 A 
HETATM   17  C7  UNL     1      26.947   4.171  49.453  1.00  0.00     0.029 A 
HETATM   18  C8  UNL     1      27.395   5.131  48.551  1.00  0.00     0.003 A 
HETATM   19  C9  UNL     1      26.623   6.264  48.575  1.00  0.00     0.016 A 
HETATM   20  C10 UNL     1      25.519   6.553  49.345  1.00  0.00     0.050 A 
HETATM   21  C12 UNL     1      25.133   5.571  50.207  1.00  0.00     0.045 A 
BRANCH  20  22
HETATM   22  C11 UNL     1      24.885   7.861  49.158  1.00  0.00     0.417 C 
HETATM   23  F1  UNL     1      25.599   8.764  48.432  1.00  0.00    -0.166 F 
HETATM   24  F2  UNL     1      23.579   7.754  48.666  1.00  0.00    -0.166 F 
HETATM   25  F3  UNL     1      24.716   8.420  50.424  1.00  0.00    -0.166 F 
ENDBRANCH  20  22
ENDBRANCH  14  16
ENDBRANCH   9  14
BRANCH  12  26
HETATM   26  C16 UNL     1      21.742  -0.302  52.488  1.00  0.00     0.033 C 
BRANCH  26  27
HETATM   27  C17 UNL     1      20.967   0.814  53.150  1.00  0.00     0.038 C 
BRANCH  27  28
HETATM   28  C18 UNL     1      20.427   1.807  52.193  1.00  0.00    -0.076 A 
HETATM   29  C19 UNL     1      20.501   3.113  52.433  1.00  0.00     0.003 A 
HETATM   30  C20 UNL     1      19.925   3.915  51.382  1.00  0.00    -0.003 A 
HETATM   31  C21 UNL     1      19.486   3.081  50.467  1.00  0.00    -0.022 A 
HETATM   32  C22 UNL     1      19.765   1.677  50.892  1.00  0.00     0.061 A 
ENDBRANCH  27  28
ENDBRANCH  26  27
ENDBRANCH  12  26
TORSDOF 6
ENDMDL
MODEL 9
REMARK VINA RESULT:      -8.5      4.466      7.874
REMARK  6 active torsions:
REMARK  status: ('A' for Active; 'I' for Inactive)
REMARK    1  A    between atoms: C5_9  and  N5_10 
REMARK    2  A    between atoms: N5_10  and  C6_11 
REMARK    3  A    between atoms: C10_15  and  C11_16 
REMARK    4  A    between atoms: C15_23  and  C16_24 
REMARK    5  A    between atoms: C16_24  and  C17_25 
REMARK    6  A    between atoms: C17_25  and  C18_26 
ROOT
HETATM    1  C1  UNL     1      26.946   7.990  47.580  1.00  0.00     0.157 C 
HETATM    2  N1  UNL     1      27.536   7.596  48.835  1.00  0.00    -0.345 N 
HETATM    3  C2  UNL     1      27.322   8.860  49.417  1.00  0.00     0.231 C 
HETATM    4  N2  UNL     1      26.406   9.393  50.116  1.00  0.00    -0.174 NA
HETATM    5  N3  UNL     1      25.291   8.643  50.462  1.00  0.00    -0.308 N 
HETATM    6  C3  UNL     1      24.070   7.933  50.191  1.00  0.00     0.188 C 
HETATM    7  C4  UNL     1      24.279   6.795  49.251  1.00  0.00     0.113 C 
HETATM    8  N4  UNL     1      25.292   6.250  49.752  1.00  0.00    -0.246 NA
HETATM    9  C5  UNL     1      25.982   5.121  49.319  1.00  0.00     0.129 C 
HETATM   10  C13 UNL     1      27.170   5.083  48.807  1.00  0.00     0.079 C 
HETATM   11  C14 UNL     1      27.919   6.279  48.617  1.00  0.00     0.034 C 
HETATM   12  C15 UNL     1      29.152   6.201  48.099  1.00  0.00     0.003 C 
HETATM   13  H5  UNL     1      25.731   8.753  51.411  1.00  0.00     0.182 HD
ENDROOT
BRANCH   9  14
HETATM   14  N5  UNL     1      25.038   4.147  49.561  1.00  0.00    -0.341 N 
HETATM   15  H9  UNL     1      25.822   3.414  49.493  1.00  0.00     0.167 HD
BRANCH  14  16
HETATM   16  C6  UNL     1      24.077   3.182  49.805  1.00  0.00     0.034 A 
HETATM   17  C7  UNL     1      23.188   2.989  48.725  1.00  0.00     0.029 A 
HETATM   18  C8  UNL     1      22.154   2.060  48.784  1.00  0.00     0.003 A 
HETATM   19  C9  UNL     1      22.126   1.390  49.981  1.00  0.00     0.016 A 
HETATM   20  C10 UNL     1      22.952   1.523  51.075  1.00  0.00     0.050 A 
HETATM   21  C12 UNL     1      23.944   2.449  50.952  1.00  0.00     0.045 A 
BRANCH  20  22
HETATM   22  C11 UNL     1      22.684   0.666  52.234  1.00  0.00     0.417 C 
HETATM   23  F1  UNL     1      21.817  -0.361  52.021  1.00  0.00    -0.166 F 
HETATM   24  F2  UNL     1      23.859   0.203  52.836  1.00  0.00    -0.166 F 
HETATM   25  F3  UNL     1      22.106   1.471  53.214  1.00  0.00    -0.166 F 
ENDBRANCH  20  22
ENDBRANCH  14  16
ENDBRANCH   9  14
BRANCH  12  26
HETATM   26  C16 UNL     1      30.038   5.082  47.680  1.00  0.00     0.033 C 
BRANCH  26  27
HETATM   27  C17 UNL     1      31.430   5.653  47.539  1.00  0.00     0.038 C 
BRANCH  27  28
HETATM   28  C18 UNL     1      32.486   4.620  47.449  1.00  0.00    -0.076 A 
HETATM   29  C19 UNL     1      32.236   3.415  46.946  1.00  0.00     0.003 A 
HETATM   30  C20 UNL     1      33.393   2.553  46.940  1.00  0.00    -0.003 A 
HETATM   31  C21 UNL     1      34.385   3.247  47.450  1.00  0.00    -0.022 A 
HETATM   32  C22 UNL     1      33.905   4.614  47.814  1.00  0.00     0.061 A 
ENDBRANCH  27  28
ENDBRANCH  26  27
ENDBRANCH  12  26
TORSDOF 6
ENDMDL
