MODEL 1
REMARK VINA RESULT:      -7.5      0.000      0.000
REMARK  4 active torsions:
REMARK  status: ('A' for Active; 'I' for Inactive)
REMARK    1  A    between atoms: O1_2  and  C2_3 
REMARK    2  A    between atoms: C5_6  and  C6_7 
REMARK    3  A    between atoms: N1_8  and  N2_9 
REMARK    4  A    between atoms: C10_14  and  O2_15 
ROOT
HETATM    1  N2  UNL     1      27.493   2.057  52.603  1.00  0.00    -0.236 N 
HETATM    2  C7  UNL     1      26.879   0.784  52.947  1.00  0.00     0.035 C 
HETATM    3  C8  UNL     1      26.807   0.381  54.239  1.00  0.00     0.021 C 
HETATM    4  C9  UNL     1      28.057  -0.452  54.268  1.00  0.00     0.120 C 
HETATM    5  S1  UNL     1      29.409   0.705  53.813  1.00  0.00    -0.100 SA
HETATM    6  C10 UNL     1      28.595   2.334  53.548  1.00  0.00     0.308 C 
HETATM    7  C11 UNL     1      27.882  -1.530  53.256  1.00  0.00     0.026 C 
HETATM    8 CL1  UNL     1      29.008  -2.890  53.216  1.00  0.00    -0.088 Cl
HETATM    9  C12 UNL     1      26.896  -1.536  52.348  1.00  0.00     0.000 C 
HETATM   10  C13 UNL     1      26.310  -0.199  51.942  1.00  0.00     0.087 C 
ENDROOT
BRANCH   1  11
HETATM   11  N1  UNL     1      26.872   2.657  51.475  1.00  0.00    -0.181 NA
HETATM   12  C6  UNL     1      25.603   2.947  51.550  1.00  0.00     0.150 C 
BRANCH  12  13
HETATM   13  C5  UNL     1      24.862   3.563  50.459  1.00  0.00    -0.017 A 
HETATM   14  C4  UNL     1      25.241   4.784  49.898  1.00  0.00     0.015 A 
HETATM   15  C3  UNL     1      24.506   5.331  48.863  1.00  0.00     0.037 A 
HETATM   16  C2  UNL     1      23.377   4.680  48.359  1.00  0.00     0.068 A 
HETATM   17  C15 UNL     1      23.008   3.476  48.917  1.00  0.00     0.037 A 
HETATM   18  C14 UNL     1      23.751   2.949  49.945  1.00  0.00     0.015 A 
BRANCH  16  19
HETATM   19  O1  UNL     1      22.784   5.393  47.326  1.00  0.00    -0.356 OA
HETATM   20  C1  UNL     1      21.988   4.731  46.363  1.00  0.00     0.210 C 
ENDBRANCH  16  19
ENDBRANCH  12  13
ENDBRANCH   1  11
BRANCH   6  21
HETATM   21  O2  UNL     1      29.450   3.256  52.990  1.00  0.00    -0.366 OA
HETATM   22  H10 UNL     1      29.582   3.048  52.029  1.00  0.00     0.213 HD
ENDBRANCH   6  21
TORSDOF 4
ENDMDL
MODEL 2
REMARK VINA RESULT:      -7.4      5.396      8.161
REMARK  4 active torsions:
REMARK  status: ('A' for Active; 'I' for Inactive)
REMARK    1  A    between atoms: O1_2  and  C2_3 
REMARK    2  A    between atoms: C5_6  and  C6_7 
REMARK    3  A    between atoms: N1_8  and  N2_9 
REMARK    4  A    between atoms: C10_14  and  O2_15 
ROOT
HETATM    1  N2  UNL     1      21.840  -0.117  53.350  1.00  0.00    -0.236 N 
HETATM    2  C7  UNL     1      21.343   0.836  52.371  1.00  0.00     0.035 C 
HETATM    3  C8  UNL     1      20.423   1.768  52.721  1.00  0.00     0.021 C 
HETATM    4  C9  UNL     1      19.193   1.014  52.302  1.00  0.00     0.120 C 
HETATM    5  S1  UNL     1      19.237  -0.544  53.273  1.00  0.00    -0.100 SA
HETATM    6  C10 UNL     1      20.758  -0.439  54.303  1.00  0.00     0.308 C 
HETATM    7  C11 UNL     1      19.317   0.763  50.840  1.00  0.00     0.026 C 
HETATM    8 CL1  UNL     1      17.922   0.176  49.928  1.00  0.00    -0.088 Cl
HETATM    9  C12 UNL     1      20.449   0.960  50.150  1.00  0.00     0.000 C 
HETATM   10  C13 UNL     1      21.756   0.869  50.911  1.00  0.00     0.087 C 
ENDROOT
BRANCH   1  11
HETATM   11  N1  UNL     1      23.197  -0.464  53.111  1.00  0.00    -0.181 NA
HETATM   12  C6  UNL     1      24.103  -0.021  53.938  1.00  0.00     0.150 C 
BRANCH  12  13
HETATM   13  C5  UNL     1      25.521  -0.312  53.794  1.00  0.00    -0.017 A 
HETATM   14  C4  UNL     1      26.486   0.256  54.628  1.00  0.00     0.015 A 
HETATM   15  C3  UNL     1      27.823  -0.049  54.453  1.00  0.00     0.037 A 
HETATM   16  C2  UNL     1      28.235  -0.926  53.447  1.00  0.00     0.068 A 
HETATM   17  C15 UNL     1      27.278  -1.483  52.627  1.00  0.00     0.037 A 
HETATM   18  C14 UNL     1      25.955  -1.167  52.817  1.00  0.00     0.015 A 
BRANCH  16  19
HETATM   19  O1  UNL     1      29.612  -1.098  53.440  1.00  0.00    -0.356 OA
HETATM   20  C1  UNL     1      30.475   0.017  53.549  1.00  0.00     0.210 C 
ENDBRANCH  16  19
ENDBRANCH  12  13
ENDBRANCH   1  11
BRANCH   6  21
HETATM   21  O2  UNL     1      21.044  -1.631  54.928  1.00  0.00    -0.366 OA
HETATM   22  H10 UNL     1      20.222  -2.185  54.977  1.00  0.00     0.213 HD
ENDBRANCH   6  21
TORSDOF 4
ENDMDL
MODEL 3
REMARK VINA RESULT:      -7.3      4.296      5.675
REMARK  4 active torsions:
REMARK  status: ('A' for Active; 'I' for Inactive)
REMARK    1  A    between atoms: O1_2  and  C2_3 
REMARK    2  A    between atoms: C5_6  and  C6_7 
REMARK    3  A    between atoms: N1_8  and  N2_9 
REMARK    4  A    between atoms: C10_14  and  O2_15 
ROOT
HETATM    1  N2  UNL     1      22.379   2.933  51.147  1.00  0.00    -0.236 N 
HETATM    2  C7  UNL     1      22.661   1.528  51.394  1.00  0.00     0.035 C 
HETATM    3  C8  UNL     1      21.775   0.571  51.023  1.00  0.00     0.021 C 
HETATM    4  C9  UNL     1      21.050   0.440  52.332  1.00  0.00     0.120 C 
HETATM    5  S1  UNL     1      20.391   2.119  52.680  1.00  0.00    -0.100 SA
HETATM    6  C10 UNL     1      20.923   3.160  51.259  1.00  0.00     0.308 C 
HETATM    7  C11 UNL     1      22.056   0.015  53.344  1.00  0.00     0.026 C 
HETATM    8 CL1  UNL     1      21.522  -0.543  54.933  1.00  0.00    -0.088 Cl
HETATM    9  C12 UNL     1      23.377   0.027  53.120  1.00  0.00     0.000 C 
HETATM   10  C13 UNL     1      23.904   1.007  52.092  1.00  0.00     0.087 C 
ENDROOT
BRANCH   1  11
HETATM   11  N1  UNL     1      23.562   3.672  50.878  1.00  0.00    -0.181 NA
HETATM   12  C6  UNL     1      23.959   3.773  49.640  1.00  0.00     0.150 C 
BRANCH  12  13
HETATM   13  C5  UNL     1      25.154   4.504  49.245  1.00  0.00    -0.017 A 
HETATM   14  C4  UNL     1      26.421   3.918  49.252  1.00  0.00     0.015 A 
HETATM   15  C3  UNL     1      27.528   4.653  48.870  1.00  0.00     0.037 A 
HETATM   16  C2  UNL     1      27.404   5.985  48.470  1.00  0.00     0.068 A 
HETATM   17  C15 UNL     1      26.151   6.557  48.465  1.00  0.00     0.037 A 
HETATM   18  C14 UNL     1      25.064   5.811  48.849  1.00  0.00     0.015 A 
BRANCH  16  19
HETATM   19  O1  UNL     1      28.630   6.540  48.127  1.00  0.00    -0.356 OA
HETATM   20  C1  UNL     1      29.796   5.740  48.097  1.00  0.00     0.210 C 
ENDBRANCH  16  19
ENDBRANCH  12  13
ENDBRANCH   1  11
BRANCH   6  21
HETATM   21  O2  UNL     1      20.689   4.498  51.482  1.00  0.00    -0.366 OA
HETATM   22  H10 UNL     1      20.830   4.704  52.441  1.00  0.00     0.213 HD
ENDBRANCH   6  21
TORSDOF 4
ENDMDL
MODEL 4
REMARK VINA RESULT:      -7.1      4.052      7.661
REMARK  4 active torsions:
REMARK  status: ('A' for Active; 'I' for Inactive)
REMARK    1  A    between atoms: O1_2  and  C2_3 
REMARK    2  A    between atoms: C5_6  and  C6_7 
REMARK    3  A    between atoms: N1_8  and  N2_9 
REMARK    4  A    between atoms: C10_14  and  O2_15 
ROOT
HETATM    1  N2  UNL     1      23.962   3.931  51.058  1.00  0.00    -0.236 N 
HETATM    2  C7  UNL     1      23.272   3.453  49.871  1.00  0.00     0.035 C 
HETATM    3  C8  UNL     1      23.147   4.247  48.780  1.00  0.00     0.021 C 
HETATM    4  C9  UNL     1      21.789   4.810  49.086  1.00  0.00     0.120 C 
HETATM    5  S1  UNL     1      21.973   5.631  50.719  1.00  0.00    -0.100 SA
HETATM    6  C10 UNL     1      23.732   5.383  51.198  1.00  0.00     0.308 C 
HETATM    7  C11 UNL     1      20.846   3.659  49.145  1.00  0.00     0.026 C 
HETATM    8 CL1  UNL     1      19.104   3.951  49.175  1.00  0.00    -0.088 Cl
HETATM    9  C12 UNL     1      21.245   2.380  49.176  1.00  0.00     0.000 C 
HETATM   10  C13 UNL     1      22.619   2.089  49.742  1.00  0.00     0.087 C 
ENDROOT
BRANCH   1  11
HETATM   11  N1  UNL     1      24.642   2.882  51.734  1.00  0.00    -0.181 NA
HETATM   12  C6  UNL     1      25.917   2.726  51.506  1.00  0.00     0.150 C 
BRANCH  12  13
HETATM   13  C5  UNL     1      26.717   1.688  52.140  1.00  0.00    -0.017 A 
HETATM   14  C4  UNL     1      26.403   0.333  52.026  1.00  0.00     0.015 A 
HETATM   15  C3  UNL     1      27.192  -0.617  52.647  1.00  0.00     0.037 A 
HETATM   16  C2  UNL     1      28.311  -0.246  53.396  1.00  0.00     0.068 A 
HETATM   17  C15 UNL     1      28.615   1.093  53.505  1.00  0.00     0.037 A 
HETATM   18  C14 UNL     1      27.819   2.022  52.880  1.00  0.00     0.015 A 
BRANCH  16  19
HETATM   19  O1  UNL     1      28.964  -1.347  53.933  1.00  0.00    -0.356 OA
HETATM   20  C1  UNL     1      29.054  -2.554  53.203  1.00  0.00     0.210 C 
ENDBRANCH  16  19
ENDBRANCH  12  13
ENDBRANCH   1  11
BRANCH   6  21
HETATM   21  O2  UNL     1      23.971   5.757  52.501  1.00  0.00    -0.366 OA
HETATM   22  H10 UNL     1      24.339   6.678  52.520  1.00  0.00     0.213 HD
ENDBRANCH   6  21
TORSDOF 4
ENDMDL
MODEL 5
REMARK VINA RESULT:      -7.1      3.320      4.359
REMARK  4 active torsions:
REMARK  status: ('A' for Active; 'I' for Inactive)
REMARK    1  A    between atoms: O1_2  and  C2_3 
REMARK    2  A    between atoms: C5_6  and  C6_7 
REMARK    3  A    between atoms: N1_8  and  N2_9 
REMARK    4  A    between atoms: C10_14  and  O2_15 
ROOT
HETATM    1  N2  UNL     1      25.529   2.350  51.233  1.00  0.00    -0.236 N 
HETATM    2  C7  UNL     1      26.534   1.508  51.863  1.00  0.00     0.035 C 
HETATM    3  C8  UNL     1      26.461   0.158  51.766  1.00  0.00     0.021 C 
HETATM    4  C9  UNL     1      25.735  -0.105  53.055  1.00  0.00     0.120 C 
HETATM    5  S1  UNL     1      24.167   0.842  52.917  1.00  0.00    -0.100 SA
HETATM    6  C10 UNL     1      24.226   1.654  51.267  1.00  0.00     0.308 C 
HETATM    7  C11 UNL     1      26.601   0.407  54.152  1.00  0.00     0.026 C 
HETATM    8 CL1  UNL     1      26.228  -0.002  55.829  1.00  0.00    -0.088 Cl
HETATM    9  C12 UNL     1      27.677   1.179  53.944  1.00  0.00     0.000 C 
HETATM   10  C13 UNL     1      27.699   2.024  52.687  1.00  0.00     0.087 C 
ENDROOT
BRANCH   1  11
HETATM   11  N1  UNL     1      26.077   3.579  50.778  1.00  0.00    -0.181 NA
HETATM   12  C6  UNL     1      26.280   3.728  49.498  1.00  0.00     0.150 C 
BRANCH  12  13
HETATM   13  C5  UNL     1      26.835   4.942  48.918  1.00  0.00    -0.017 A 
HETATM   14  C4  UNL     1      28.178   5.044  48.550  1.00  0.00     0.015 A 
HETATM   15  C3  UNL     1      28.661   6.218  48.003  1.00  0.00     0.037 A 
HETATM   16  C2  UNL     1      27.823   7.319  47.806  1.00  0.00     0.068 A 
HETATM   17  C15 UNL     1      26.499   7.211  48.171  1.00  0.00     0.037 A 
HETATM   18  C14 UNL     1      26.039   6.037  48.713  1.00  0.00     0.015 A 
BRANCH  16  19
HETATM   19  O1  UNL     1      28.500   8.394  47.247  1.00  0.00    -0.356 OA
HETATM   20  C1  UNL     1      29.843   8.658  47.603  1.00  0.00     0.210 C 
ENDBRANCH  16  19
ENDBRANCH  12  13
ENDBRANCH   1  11
BRANCH   6  21
HETATM   21  O2  UNL     1      23.216   2.575  51.107  1.00  0.00    -0.366 OA
HETATM   22  H10 UNL     1      23.320   3.301  51.775  1.00  0.00     0.213 HD
ENDBRANCH   6  21
TORSDOF 4
ENDMDL
MODEL 6
REMARK VINA RESULT:      -6.9      7.036      9.451
REMARK  4 active torsions:
REMARK  status: ('A' for Active; 'I' for Inactive)
REMARK    1  A    between atoms: O1_2  and  C2_3 
REMARK    2  A    between atoms: C5_6  and  C6_7 
REMARK    3  A    between atoms: N1_8  and  N2_9 
REMARK    4  A    between atoms: C10_14  and  O2_15 
ROOT
HETATM    1  N2  UNL     1      19.047   1.274  51.955  1.00  0.00    -0.236 N 
HETATM    2  C7  UNL     1      18.232   0.095  51.711  1.00  0.00     0.035 C 
HETATM    3  C8  UNL     1      17.520  -0.025  50.563  1.00  0.00     0.021 C 
HETATM    4  C9  UNL     1      16.214   0.515  51.071  1.00  0.00     0.120 C 
HETATM    5  S1  UNL     1      16.598   2.212  51.659  1.00  0.00    -0.100 SA
HETATM    6  C10 UNL     1      18.395   2.448  51.340  1.00  0.00     0.308 C 
HETATM    7  C11 UNL     1      15.780  -0.375  52.183  1.00  0.00     0.026 C 
HETATM    8 CL1  UNL     1      14.139  -0.244  52.824  1.00  0.00    -0.088 Cl
HETATM    9  C12 UNL     1      16.576  -1.296  52.744  1.00  0.00     0.000 C 
HETATM   10  C13 UNL     1      18.071  -1.060  52.681  1.00  0.00     0.087 C 
ENDROOT
BRANCH   1  11
HETATM   11  N1  UNL     1      20.212   0.966  52.707  1.00  0.00    -0.181 NA
HETATM   12  C6  UNL     1      21.306   0.675  52.059  1.00  0.00     0.150 C 
BRANCH  12  13
HETATM   13  C5  UNL     1      22.559   0.344  52.722  1.00  0.00    -0.017 A 
HETATM   14  C4  UNL     1      22.621  -0.546  53.795  1.00  0.00     0.015 A 
HETATM   15  C3  UNL     1      23.834  -0.829  54.394  1.00  0.00     0.037 A 
HETATM   16  C2  UNL     1      25.015  -0.236  53.942  1.00  0.00     0.068 A 
HETATM   17  C15 UNL     1      24.948   0.641  52.883  1.00  0.00     0.037 A 
HETATM   18  C14 UNL     1      23.733   0.910  52.301  1.00  0.00     0.015 A 
BRANCH  16  19
HETATM   19  O1  UNL     1      26.118  -0.653  54.675  1.00  0.00    -0.356 OA
HETATM   20  C1  UNL     1      27.253   0.183  54.800  1.00  0.00     0.210 C 
ENDBRANCH  16  19
ENDBRANCH  12  13
ENDBRANCH   1  11
BRANCH   6  21
HETATM   21  O2  UNL     1      18.879   3.595  51.926  1.00  0.00    -0.366 OA
HETATM   22  H10 UNL     1      18.552   3.653  52.860  1.00  0.00     0.213 HD
ENDBRANCH   6  21
TORSDOF 4
ENDMDL
MODEL 7
REMARK VINA RESULT:      -6.9      4.396      7.953
REMARK  4 active torsions:
REMARK  status: ('A' for Active; 'I' for Inactive)
REMARK    1  A    between atoms: O1_2  and  C2_3 
REMARK    2  A    between atoms: C5_6  and  C6_7 
REMARK    3  A    between atoms: N1_8  and  N2_9 
REMARK    4  A    between atoms: C10_14  and  O2_15 
ROOT
HETATM    1  N2  UNL     1      23.531   4.349  51.556  1.00  0.00    -0.236 N 
HETATM    2  C7  UNL     1      24.212   5.408  50.829  1.00  0.00     0.035 C 
HETATM    3  C8  UNL     1      24.030   6.707  51.173  1.00  0.00     0.021 C 
HETATM    4  C9  UNL     1      22.934   7.029  50.197  1.00  0.00     0.120 C 
HETATM    5  S1  UNL     1      21.585   5.847  50.593  1.00  0.00    -0.100 SA
HETATM    6  C10 UNL     1      22.210   4.839  51.999  1.00  0.00     0.308 C 
HETATM    7  C11 UNL     1      23.489   6.805  48.833  1.00  0.00     0.026 C 
HETATM    8 CL1  UNL     1      22.599   7.374  47.418  1.00  0.00    -0.088 Cl
HETATM    9  C12 UNL     1      24.653   6.182  48.604  1.00  0.00     0.000 C 
HETATM   10  C13 UNL     1      25.132   5.188  49.643  1.00  0.00     0.087 C 
ENDROOT
BRANCH   1  11
HETATM   11  N1  UNL     1      24.315   3.166  51.626  1.00  0.00    -0.181 NA
HETATM   12  C6  UNL     1      24.833   2.836  52.776  1.00  0.00     0.150 C 
BRANCH  12  13
HETATM   13  C5  UNL     1      25.651   1.647  52.968  1.00  0.00    -0.017 A 
HETATM   14  C4  UNL     1      25.960   0.779  51.919  1.00  0.00     0.015 A 
HETATM   15  C3  UNL     1      26.741  -0.338  52.149  1.00  0.00     0.037 A 
HETATM   16  C2  UNL     1      27.235  -0.621  53.424  1.00  0.00     0.068 A 
HETATM   17  C15 UNL     1      26.927   0.239  54.455  1.00  0.00     0.037 A 
HETATM   18  C14 UNL     1      26.150   1.344  54.207  1.00  0.00     0.015 A 
BRANCH  16  19
HETATM   19  O1  UNL     1      27.993  -1.783  53.442  1.00  0.00    -0.356 OA
HETATM   20  C1  UNL     1      29.404  -1.720  53.364  1.00  0.00     0.210 C 
ENDBRANCH  16  19
ENDBRANCH  12  13
ENDBRANCH   1  11
BRANCH   6  21
HETATM   21  O2  UNL     1      21.394   3.764  52.268  1.00  0.00    -0.366 OA
HETATM   22  H10 UNL     1      21.947   2.951  52.392  1.00  0.00     0.213 HD
ENDBRANCH   6  21
TORSDOF 4
ENDMDL
MODEL 8
REMARK VINA RESULT:      -6.7      4.653      5.474
REMARK  4 active torsions:
REMARK  status: ('A' for Active; 'I' for Inactive)
REMARK    1  A    between atoms: O1_2  and  C2_3 
REMARK    2  A    between atoms: C5_6  and  C6_7 
REMARK    3  A    between atoms: N1_8  and  N2_9 
REMARK    4  A    between atoms: C10_14  and  O2_15 
ROOT
HETATM    1  N2  UNL     1      24.178   1.743  51.923  1.00  0.00    -0.236 N 
HETATM    2  C7  UNL     1      24.841   1.325  53.148  1.00  0.00     0.035 C 
HETATM    3  C8  UNL     1      25.551   2.214  53.885  1.00  0.00     0.021 C 
HETATM    4  C9  UNL     1      26.906   1.931  53.303  1.00  0.00     0.120 C 
HETATM    5  S1  UNL     1      26.731   2.266  51.506  1.00  0.00    -0.100 SA
HETATM    6  C10 UNL     1      24.984   2.796  51.273  1.00  0.00     0.308 C 
HETATM    7  C11 UNL     1      27.205   0.499  53.577  1.00  0.00     0.026 C 
HETATM    8 CL1  UNL     1      28.838  -0.124  53.319  1.00  0.00    -0.088 Cl
HETATM    9  C12 UNL     1      26.289  -0.374  54.020  1.00  0.00     0.000 C 
HETATM   10  C13 UNL     1      24.837  -0.091  53.692  1.00  0.00     0.087 C 
ENDROOT
BRANCH   1  11
HETATM   11  N1  UNL     1      22.970   1.028  51.703  1.00  0.00    -0.181 NA
HETATM   12  C6  UNL     1      21.851   1.573  52.090  1.00  0.00     0.150 C 
BRANCH  12  13
HETATM   13  C5  UNL     1      20.554   0.935  51.917  1.00  0.00    -0.017 A 
HETATM   14  C4  UNL     1      19.986   0.125  52.902  1.00  0.00     0.015 A 
HETATM   15  C3  UNL     1      18.751  -0.461  52.692  1.00  0.00     0.037 A 
HETATM   16  C2  UNL     1      18.051  -0.257  51.501  1.00  0.00     0.068 A 
HETATM   17  C15 UNL     1      18.616   0.543  50.533  1.00  0.00     0.037 A 
HETATM   18  C14 UNL     1      19.844   1.116  50.760  1.00  0.00     0.015 A 
BRANCH  16  19
HETATM   19  O1  UNL     1      16.837  -0.931  51.491  1.00  0.00    -0.356 OA
HETATM   20  C1  UNL     1      15.922  -0.776  52.558  1.00  0.00     0.210 C 
ENDBRANCH  16  19
ENDBRANCH  12  13
ENDBRANCH   1  11
BRANCH   6  21
HETATM   21  O2  UNL     1      24.640   2.875  49.943  1.00  0.00    -0.366 OA
HETATM   22  H10 UNL     1      23.933   3.560  49.823  1.00  0.00     0.213 HD
ENDBRANCH   6  21
TORSDOF 4
ENDMDL
MODEL 9
REMARK VINA RESULT:      -6.6      4.505      8.068
REMARK  4 active torsions:
REMARK  status: ('A' for Active; 'I' for Inactive)
REMARK    1  A    between atoms: O1_2  and  C2_3 
REMARK    2  A    between atoms: C5_6  and  C6_7 
REMARK    3  A    between atoms: N1_8  and  N2_9 
REMARK    4  A    between atoms: C10_14  and  O2_15 
ROOT
HETATM    1  N2  UNL     1      22.588   2.326  51.066  1.00  0.00    -0.236 N 
HETATM    2  C7  UNL     1      22.302   3.600  51.706  1.00  0.00     0.035 C 
HETATM    3  C8  UNL     1      21.038   3.914  52.081  1.00  0.00     0.021 C 
HETATM    4  C9  UNL     1      20.640   4.681  50.851  1.00  0.00     0.120 C 
HETATM    5  S1  UNL     1      20.845   3.493  49.465  1.00  0.00    -0.100 SA
HETATM    6  C10 UNL     1      21.430   1.930  50.239  1.00  0.00     0.308 C 
HETATM    7  C11 UNL     1      21.574   5.835  50.740  1.00  0.00     0.026 C 
HETATM    8 CL1  UNL     1      21.229   7.137  49.597  1.00  0.00    -0.088 Cl
HETATM    9  C12 UNL     1      22.690   5.954  51.472  1.00  0.00     0.000 C 
HETATM   10  C13 UNL     1      23.332   4.679  51.981  1.00  0.00     0.087 C 
ENDROOT
BRANCH   1  11
HETATM   11  N1  UNL     1      23.878   1.839  51.409  1.00  0.00    -0.181 NA
HETATM   12  C6  UNL     1      24.026   1.237  52.556  1.00  0.00     0.150 C 
BRANCH  12  13
HETATM   13  C5  UNL     1      25.298   0.697  53.013  1.00  0.00    -0.017 A 
HETATM   14  C4  UNL     1      25.937   1.168  54.162  1.00  0.00     0.015 A 
HETATM   15  C3  UNL     1      27.145   0.625  54.556  1.00  0.00     0.037 A 
HETATM   16  C2  UNL     1      27.749  -0.398  53.822  1.00  0.00     0.068 A 
HETATM   17  C15 UNL     1      27.114  -0.858  52.689  1.00  0.00     0.037 A 
HETATM   18  C14 UNL     1      25.914  -0.306  52.314  1.00  0.00     0.015 A 
BRANCH  16  19
HETATM   19  O1  UNL     1      28.952  -0.802  54.385  1.00  0.00    -0.356 OA
HETATM   20  C1  UNL     1      30.141  -0.790  53.620  1.00  0.00     0.210 C 
ENDBRANCH  16  19
ENDBRANCH  12  13
ENDBRANCH   1  11
BRANCH   6  21
HETATM   21  O2  UNL     1      21.836   1.008  49.302  1.00  0.00    -0.366 OA
HETATM   22  H10 UNL     1      21.922   1.450  48.418  1.00  0.00     0.213 HD
ENDBRANCH   6  21
TORSDOF 4
ENDMDL
