MODEL 1
REMARK VINA RESULT:      -8.7      0.000      0.000
REMARK  1 active torsions:
REMARK  status: ('A' for Active; 'I' for Inactive)
REMARK    1  A    between atoms: N4_16  and  C11_17 
ROOT
HETATM    1  C1  UNL     1      20.574   3.257  52.235  1.00  0.00     0.203 C 
HETATM    2  N1  UNL     1      21.618   2.275  52.405  1.00  0.00    -0.207 N 
HETATM    3  N2  UNL     1      22.914   2.847  52.536  1.00  0.00    -0.129 NA
HETATM    4  C2  UNL     1      23.940   2.101  52.716  1.00  0.00     0.214 A 
HETATM    5  O1  UNL     1      25.258   2.614  52.854  1.00  0.00    -0.322 OA
HETATM    6  C3  UNL     1      26.531   2.160  52.590  1.00  0.00     0.162 C 
HETATM    7  C4  UNL     1      27.379   1.745  53.759  1.00  0.00     0.048 C 
HETATM    8  C5  UNL     1      27.727   0.530  54.312  1.00  0.00     0.117 C 
HETATM    9  F1  UNL     1      28.560  -0.003  55.185  1.00  0.00    -0.206 F 
HETATM   10  C6  UNL     1      26.900  -0.633  53.759  1.00  0.00     0.067 C 
HETATM   11  C7  UNL     1      26.048  -0.093  52.844  1.00  0.00     0.015 C 
HETATM   12  C8  UNL     1      26.538   0.870  51.742  1.00  0.00     0.093 C 
HETATM   13  N3  UNL     1      24.622  -0.397  52.981  1.00  0.00    -0.355 N 
HETATM   14  C9  UNL     1      23.593   0.637  52.764  1.00  0.00     0.105 A 
HETATM   15  C10 UNL     1      22.462  -0.023  52.661  1.00  0.00     0.152 A 
HETATM   16  N4  UNL     1      21.371   0.904  52.460  1.00  0.00    -0.247 N 
HETATM   17  H9  UNL     1      24.490  -1.393  53.258  1.00  0.00     0.166 HD
ENDROOT
BRANCH  16  18
HETATM   18  C11 UNL     1      20.098   0.292  52.346  1.00  0.00     0.059 A 
HETATM   19  C12 UNL     1      19.665  -0.525  53.391  1.00  0.00     0.031 A 
HETATM   20  C13 UNL     1      18.481  -1.222  53.474  1.00  0.00     0.004 A 
HETATM   21  C14 UNL     1      17.633  -1.092  52.398  1.00  0.00     0.019 A 
HETATM   22  C15 UNL     1      17.981  -0.305  51.322  1.00  0.00     0.013 A 
HETATM   23 BR1  UNL     1      16.810  -0.121  49.828  1.00  0.00    -0.051 Br
HETATM   24  C16 UNL     1      19.185   0.357  51.321  1.00  0.00     0.050 A 
ENDBRANCH  16  18
TORSDOF 1
ENDMDL
MODEL 2
REMARK VINA RESULT:      -8.4      3.978      7.485
REMARK  1 active torsions:
REMARK  status: ('A' for Active; 'I' for Inactive)
REMARK    1  A    between atoms: N4_16  and  C11_17 
ROOT
HETATM    1  C1  UNL     1      26.383   2.930  50.319  1.00  0.00     0.203 C 
HETATM    2  N1  UNL     1      25.309   2.328  51.073  1.00  0.00    -0.207 N 
HETATM    3  N2  UNL     1      24.022   2.588  50.527  1.00  0.00    -0.129 NA
HETATM    4  C2  UNL     1      22.971   2.101  51.075  1.00  0.00     0.214 A 
HETATM    5  O1  UNL     1      21.660   2.324  50.575  1.00  0.00    -0.322 OA
HETATM    6  C3  UNL     1      20.392   2.382  51.109  1.00  0.00     0.162 C 
HETATM    7  C4  UNL     1      19.476   1.217  50.856  1.00  0.00     0.048 C 
HETATM    8  C5  UNL     1      19.073   0.130  51.604  1.00  0.00     0.117 C 
HETATM    9  F1  UNL     1      18.185  -0.845  51.607  1.00  0.00    -0.206 F 
HETATM   10  C6  UNL     1      19.900  -0.053  52.879  1.00  0.00     0.067 C 
HETATM   11  C7  UNL     1      20.809   0.961  52.892  1.00  0.00     0.015 C 
HETATM   12  C8  UNL     1      20.398   2.429  52.651  1.00  0.00     0.093 C 
HETATM   13  N3  UNL     1      22.219   0.607  53.070  1.00  0.00    -0.355 N 
HETATM   14  C9  UNL     1      23.282   1.276  52.295  1.00  0.00     0.105 A 
HETATM   15  C10 UNL     1      24.401   0.956  52.903  1.00  0.00     0.152 A 
HETATM   16  N4  UNL     1      25.521   1.551  52.211  1.00  0.00    -0.247 N 
HETATM   17  H9  UNL     1      22.314  -0.157  53.772  1.00  0.00     0.166 HD
ENDROOT
BRANCH  16  18
HETATM   18  C11 UNL     1      26.784   1.259  52.783  1.00  0.00     0.059 A 
HETATM   19  C12 UNL     1      27.488   2.301  53.390  1.00  0.00     0.031 A 
HETATM   20  C13 UNL     1      28.728   2.239  53.985  1.00  0.00     0.004 A 
HETATM   21  C14 UNL     1      29.335   1.004  53.977  1.00  0.00     0.019 A 
HETATM   22  C15 UNL     1      28.712  -0.080  53.400  1.00  0.00     0.013 A 
HETATM   23 BR1  UNL     1      29.548  -1.793  53.386  1.00  0.00    -0.051 Br
HETATM   24  C16 UNL     1      27.472   0.070  52.826  1.00  0.00     0.050 A 
ENDBRANCH  16  18
TORSDOF 1
ENDMDL
MODEL 3
REMARK VINA RESULT:      -8.0      4.150      5.257
REMARK  1 active torsions:
REMARK  status: ('A' for Active; 'I' for Inactive)
REMARK    1  A    between atoms: N4_16  and  C11_17 
ROOT
HETATM    1  C1  UNL     1      26.596   4.787  49.122  1.00  0.00     0.203 C 
HETATM    2  N1  UNL     1      26.009   3.741  49.926  1.00  0.00    -0.207 N 
HETATM    3  N2  UNL     1      26.944   3.099  50.784  1.00  0.00    -0.129 NA
HETATM    4  C2  UNL     1      26.566   2.164  51.575  1.00  0.00     0.214 A 
HETATM    5  O1  UNL     1      27.453   1.486  52.455  1.00  0.00    -0.322 OA
HETATM    6  C3  UNL     1      27.518   0.235  53.027  1.00  0.00     0.162 C 
HETATM    7  C4  UNL     1      27.182   0.118  54.487  1.00  0.00     0.048 C 
HETATM    8  C5  UNL     1      26.069  -0.297  55.188  1.00  0.00     0.117 C 
HETATM    9  F1  UNL     1      25.680  -0.617  56.407  1.00  0.00    -0.206 F 
HETATM   10  C6  UNL     1      24.836  -0.466  54.298  1.00  0.00     0.067 C 
HETATM   11  C7  UNL     1      25.233  -0.154  53.033  1.00  0.00     0.015 C 
HETATM   12  C8  UNL     1      26.510  -0.755  52.407  1.00  0.00     0.093 C 
HETATM   13  N3  UNL     1      24.446   0.839  52.299  1.00  0.00    -0.355 N 
HETATM   14  C9  UNL     1      25.095   1.869  51.465  1.00  0.00     0.105 A 
HETATM   15  C10 UNL     1      24.129   2.372  50.731  1.00  0.00     0.152 A 
HETATM   16  N4  UNL     1      24.655   3.413  49.878  1.00  0.00    -0.247 N 
HETATM   17  H9  UNL     1      23.429   0.701  52.482  1.00  0.00     0.166 HD
ENDROOT
BRANCH  16  18
HETATM   18  C11 UNL     1      23.688   4.033  49.047  1.00  0.00     0.059 A 
HETATM   19  C12 UNL     1      22.964   3.226  48.168  1.00  0.00     0.031 A 
HETATM   20  C13 UNL     1      22.000   3.622  47.269  1.00  0.00     0.004 A 
HETATM   21  C14 UNL     1      21.724   4.970  47.242  1.00  0.00     0.019 A 
HETATM   22  C15 UNL     1      22.392   5.840  48.077  1.00  0.00     0.013 A 
HETATM   23 BR1  UNL     1      22.014   7.708  48.044  1.00  0.00    -0.051 Br
HETATM   24  C16 UNL     1      23.342   5.359  48.945  1.00  0.00     0.050 A 
ENDBRANCH  16  18
TORSDOF 1
ENDMDL
MODEL 4
REMARK VINA RESULT:      -7.9      4.752      7.216
REMARK  1 active torsions:
REMARK  status: ('A' for Active; 'I' for Inactive)
REMARK    1  A    between atoms: N4_16  and  C11_17 
ROOT
HETATM    1  C1  UNL     1      23.430   4.822  48.955  1.00  0.00     0.203 C 
HETATM    2  N1  UNL     1      24.426   4.085  49.696  1.00  0.00    -0.207 N 
HETATM    3  N2  UNL     1      23.885   3.008  50.451  1.00  0.00    -0.129 NA
HETATM    4  C2  UNL     1      24.651   2.249  51.143  1.00  0.00     0.214 A 
HETATM    5  O1  UNL     1      24.169   1.158  51.916  1.00  0.00    -0.322 OA
HETATM    6  C3  UNL     1      24.569   0.497  53.057  1.00  0.00     0.162 C 
HETATM    7  C4  UNL     1      25.181  -0.866  52.894  1.00  0.00     0.048 C 
HETATM    8  C5  UNL     1      26.473  -1.348  52.905  1.00  0.00     0.117 C 
HETATM    9  F1  UNL     1      27.150  -2.479  52.952  1.00  0.00    -0.206 F 
HETATM   10  C6  UNL     1      27.523  -0.235  52.849  1.00  0.00     0.067 C 
HETATM   11  C7  UNL     1      26.832   0.938  52.816  1.00  0.00     0.015 C 
HETATM   12  C8  UNL     1      25.691   1.241  53.811  1.00  0.00     0.093 C 
HETATM   13  N3  UNL     1      27.157   1.888  51.750  1.00  0.00    -0.355 N 
HETATM   14  C9  UNL     1      26.100   2.640  51.045  1.00  0.00     0.105 A 
HETATM   15  C10 UNL     1      26.733   3.593  50.399  1.00  0.00     0.152 A 
HETATM   16  N4  UNL     1      25.787   4.390  49.653  1.00  0.00    -0.247 N 
HETATM   17  H9  UNL     1      28.185   1.911  51.587  1.00  0.00     0.166 HD
ENDROOT
BRANCH  16  18
HETATM   18  C11 UNL     1      26.369   5.445  48.908  1.00  0.00     0.059 A 
HETATM   19  C12 UNL     1      27.729   5.361  48.602  1.00  0.00     0.031 A 
HETATM   20  C13 UNL     1      28.490   6.276  47.911  1.00  0.00     0.004 A 
HETATM   21  C14 UNL     1      27.826   7.398  47.473  1.00  0.00     0.019 A 
HETATM   22  C15 UNL     1      26.482   7.563  47.730  1.00  0.00     0.013 A 
HETATM   23 BR1  UNL     1      25.556   9.117  47.126  1.00  0.00    -0.051 Br
HETATM   24  C16 UNL     1      25.797   6.599  48.429  1.00  0.00     0.050 A 
ENDBRANCH  16  18
TORSDOF 1
ENDMDL
MODEL 5
REMARK VINA RESULT:      -7.8      4.427      7.651
REMARK  1 active torsions:
REMARK  status: ('A' for Active; 'I' for Inactive)
REMARK    1  A    between atoms: N4_16  and  C11_17 
ROOT
HETATM    1  C1  UNL     1      24.289  -0.740  54.384  1.00  0.00     0.203 C 
HETATM    2  N1  UNL     1      24.042   0.098  53.235  1.00  0.00    -0.207 N 
HETATM    3  N2  UNL     1      22.677   0.119  52.835  1.00  0.00    -0.129 NA
HETATM    4  C2  UNL     1      22.301   0.838  51.842  1.00  0.00     0.214 A 
HETATM    5  O1  UNL     1      20.953   0.900  51.397  1.00  0.00    -0.322 OA
HETATM    6  C3  UNL     1      20.314   1.135  50.200  1.00  0.00     0.162 C 
HETATM    7  C4  UNL     1      19.645   2.469  50.017  1.00  0.00     0.048 C 
HETATM    8  C5  UNL     1      19.982   3.632  49.357  1.00  0.00     0.117 C 
HETATM    9  F1  UNL     1      19.465   4.779  48.963  1.00  0.00    -0.206 F 
HETATM   10  C6  UNL     1      21.442   3.652  48.898  1.00  0.00     0.067 C 
HETATM   11  C7  UNL     1      21.980   2.462  49.287  1.00  0.00     0.015 C 
HETATM   12  C8  UNL     1      21.280   1.117  48.997  1.00  0.00     0.093 C 
HETATM   13  N3  UNL     1      23.222   2.499  50.063  1.00  0.00    -0.355 N 
HETATM   14  C9  UNL     1      23.436   1.597  51.210  1.00  0.00     0.105 A 
HETATM   15  C10 UNL     1      24.721   1.672  51.468  1.00  0.00     0.152 A 
HETATM   16  N4  UNL     1      25.044   0.831  52.598  1.00  0.00    -0.247 N 
HETATM   17  H9  UNL     1      23.858   3.236  49.692  1.00  0.00     0.166 HD
ENDROOT
BRANCH  16  18
HETATM   18  C11 UNL     1      26.411   0.847  52.968  1.00  0.00     0.059 A 
HETATM   19  C12 UNL     1      26.979   2.070  53.332  1.00  0.00     0.031 A 
HETATM   20  C13 UNL     1      28.283   2.310  53.704  1.00  0.00     0.004 A 
HETATM   21  C14 UNL     1      29.113   1.213  53.718  1.00  0.00     0.019 A 
HETATM   22  C15 UNL     1      28.636  -0.033  53.374  1.00  0.00     0.013 A 
HETATM   23 BR1  UNL     1      29.782  -1.556  53.391  1.00  0.00    -0.051 Br
HETATM   24  C16 UNL     1      27.319  -0.184  53.013  1.00  0.00     0.050 A 
ENDBRANCH  16  18
TORSDOF 1
ENDMDL
MODEL 6
REMARK VINA RESULT:      -7.8      5.663      6.899
REMARK  1 active torsions:
REMARK  status: ('A' for Active; 'I' for Inactive)
REMARK    1  A    between atoms: N4_16  and  C11_17 
ROOT
HETATM    1  C1  UNL     1      22.982   6.069  51.408  1.00  0.00     0.203 C 
HETATM    2  N1  UNL     1      24.190   5.824  50.658  1.00  0.00    -0.207 N 
HETATM    3  N2  UNL     1      24.969   6.995  50.445  1.00  0.00    -0.129 NA
HETATM    4  C2  UNL     1      26.082   6.930  49.813  1.00  0.00     0.214 A 
HETATM    5  O1  UNL     1      26.904   8.064  49.570  1.00  0.00    -0.322 OA
HETATM    6  C3  UNL     1      27.815   8.440  48.608  1.00  0.00     0.162 C 
HETATM    7  C4  UNL     1      29.272   8.404  48.977  1.00  0.00     0.048 C 
HETATM    8  C5  UNL     1      30.305   7.525  48.730  1.00  0.00     0.117 C 
HETATM    9  F1  UNL     1      31.617   7.427  48.820  1.00  0.00    -0.206 F 
HETATM   10  C6  UNL     1      29.825   6.194  48.148  1.00  0.00     0.067 C 
HETATM   11  C7  UNL     1      28.472   6.293  48.035  1.00  0.00     0.015 C 
HETATM   12  C8  UNL     1      27.795   7.513  47.375  1.00  0.00     0.093 C 
HETATM   13  N3  UNL     1      27.661   5.229  48.633  1.00  0.00    -0.355 N 
HETATM   14  C9  UNL     1      26.415   5.533  49.363  1.00  0.00     0.105 A 
HETATM   15  C10 UNL     1      25.802   4.378  49.487  1.00  0.00     0.152 A 
HETATM   16  N4  UNL     1      24.564   4.557  50.210  1.00  0.00    -0.247 N 
HETATM   17  H9  UNL     1      28.107   4.302  48.473  1.00  0.00     0.166 HD
ENDROOT
BRANCH  16  18
HETATM   18  C11 UNL     1      23.825   3.364  50.408  1.00  0.00     0.059 A 
HETATM   19  C12 UNL     1      22.940   2.964  49.405  1.00  0.00     0.031 A 
HETATM   20  C13 UNL     1      22.121   1.858  49.403  1.00  0.00     0.004 A 
HETATM   21  C14 UNL     1      22.188   1.061  50.522  1.00  0.00     0.019 A 
HETATM   22  C15 UNL     1      23.034   1.381  51.562  1.00  0.00     0.013 A 
HETATM   23 BR1  UNL     1      23.131   0.281  53.115  1.00  0.00    -0.051 Br
HETATM   24  C16 UNL     1      23.819   2.506  51.482  1.00  0.00     0.050 A 
ENDBRANCH  16  18
TORSDOF 1
ENDMDL
MODEL 7
REMARK VINA RESULT:      -7.7      4.642      7.507
REMARK  1 active torsions:
REMARK  status: ('A' for Active; 'I' for Inactive)
REMARK    1  A    between atoms: N4_16  and  C11_17 
ROOT
HETATM    1  C1  UNL     1      24.151  -0.367  53.890  1.00  0.00     0.203 C 
HETATM    2  N1  UNL     1      24.301   0.849  53.126  1.00  0.00    -0.207 N 
HETATM    3  N2  UNL     1      23.060   1.439  52.756  1.00  0.00    -0.129 NA
HETATM    4  C2  UNL     1      23.033   2.536  52.094  1.00  0.00     0.214 A 
HETATM    5  O1  UNL     1      21.826   3.173  51.698  1.00  0.00    -0.322 OA
HETATM    6  C3  UNL     1      21.433   3.997  50.667  1.00  0.00     0.162 C 
HETATM    7  C4  UNL     1      21.213   5.450  50.982  1.00  0.00     0.048 C 
HETATM    8  C5  UNL     1      21.953   6.598  50.795  1.00  0.00     0.117 C 
HETATM    9  F1  UNL     1      21.847   7.912  50.846  1.00  0.00    -0.206 F 
HETATM   10  C6  UNL     1      23.399   6.312  50.381  1.00  0.00     0.067 C 
HETATM   11  C7  UNL     1      23.512   4.956  50.309  1.00  0.00     0.015 C 
HETATM   12  C8  UNL     1      22.488   4.091  49.545  1.00  0.00     0.093 C 
HETATM   13  N3  UNL     1      24.608   4.326  51.050  1.00  0.00    -0.355 N 
HETATM   14  C9  UNL     1      24.408   3.064  51.789  1.00  0.00     0.105 A 
HETATM   15  C10 UNL     1      25.619   2.634  52.062  1.00  0.00     0.152 A 
HETATM   16  N4  UNL     1      25.542   1.398  52.807  1.00  0.00    -0.247 N 
HETATM   17  H9  UNL     1      25.472   4.903  50.977  1.00  0.00     0.166 HD
ENDROOT
BRANCH  16  18
HETATM   18  C11 UNL     1      26.799   0.851  53.163  1.00  0.00     0.059 A 
HETATM   19  C12 UNL     1      27.748   1.700  53.736  1.00  0.00     0.031 A 
HETATM   20  C13 UNL     1      29.026   1.381  54.135  1.00  0.00     0.004 A 
HETATM   21  C14 UNL     1      29.403   0.071  53.945  1.00  0.00     0.019 A 
HETATM   22  C15 UNL     1      28.529  -0.836  53.385  1.00  0.00     0.013 A 
HETATM   23 BR1  UNL     1      29.046  -2.652  53.119  1.00  0.00    -0.051 Br
HETATM   24  C16 UNL     1      27.270  -0.432  53.014  1.00  0.00     0.050 A 
ENDBRANCH  16  18
TORSDOF 1
ENDMDL
MODEL 8
REMARK VINA RESULT:      -7.7      3.278      4.964
REMARK  1 active torsions:
REMARK  status: ('A' for Active; 'I' for Inactive)
REMARK    1  A    between atoms: N4_16  and  C11_17 
ROOT
HETATM    1  C1  UNL     1      21.489   2.000  50.600  1.00  0.00     0.203 C 
HETATM    2  N1  UNL     1      22.815   2.172  51.145  1.00  0.00    -0.207 N 
HETATM    3  N2  UNL     1      23.334   0.991  51.745  1.00  0.00    -0.129 NA
HETATM    4  C2  UNL     1      24.511   0.983  52.254  1.00  0.00     0.214 A 
HETATM    5  O1  UNL     1      25.084  -0.165  52.865  1.00  0.00    -0.322 OA
HETATM    6  C3  UNL     1      26.013  -0.401  53.854  1.00  0.00     0.162 C 
HETATM    7  C4  UNL     1      27.375  -0.876  53.431  1.00  0.00     0.048 C 
HETATM    8  C5  UNL     1      28.602  -0.266  53.281  1.00  0.00     0.117 C 
HETATM    9  F1  UNL     1      29.878  -0.549  53.100  1.00  0.00    -0.206 F 
HETATM   10  C6  UNL     1      28.518   1.261  53.343  1.00  0.00     0.067 C 
HETATM   11  C7  UNL     1      27.206   1.562  53.548  1.00  0.00     0.015 C 
HETATM   12  C8  UNL     1      26.372   0.872  54.649  1.00  0.00     0.093 C 
HETATM   13  N3  UNL     1      26.578   2.519  52.634  1.00  0.00    -0.355 N 
HETATM   14  C9  UNL     1      25.206   2.312  52.131  1.00  0.00     0.105 A 
HETATM   15  C10 UNL     1      24.855   3.466  51.611  1.00  0.00     0.152 A 
HETATM   16  N4  UNL     1      23.520   3.372  51.067  1.00  0.00    -0.247 N 
HETATM   17  H9  UNL     1      27.237   3.294  52.413  1.00  0.00     0.166 HD
ENDROOT
BRANCH  16  18
HETATM   18  C11 UNL     1      23.046   4.566  50.471  1.00  0.00     0.059 A 
HETATM   19  C12 UNL     1      22.433   5.513  51.293  1.00  0.00     0.031 A 
HETATM   20  C13 UNL     1      21.891   6.722  50.919  1.00  0.00     0.004 A 
HETATM   21  C14 UNL     1      21.968   7.024  49.579  1.00  0.00     0.019 A 
HETATM   22  C15 UNL     1      22.557   6.146  48.695  1.00  0.00     0.013 A 
HETATM   23 BR1  UNL     1      22.667   6.559  46.837  1.00  0.00    -0.051 Br
HETATM   24  C16 UNL     1      23.073   4.958  49.154  1.00  0.00     0.050 A 
ENDBRANCH  16  18
TORSDOF 1
ENDMDL
MODEL 9
REMARK VINA RESULT:      -7.4      2.901      4.230
REMARK  1 active torsions:
REMARK  status: ('A' for Active; 'I' for Inactive)
REMARK    1  A    between atoms: N4_16  and  C11_17 
ROOT
HETATM    1  C1  UNL     1      21.343   0.474  51.251  1.00  0.00     0.203 C 
HETATM    2  N1  UNL     1      22.663   1.011  51.486  1.00  0.00    -0.207 N 
HETATM    3  N2  UNL     1      23.405   0.279  52.454  1.00  0.00    -0.129 NA
HETATM    4  C2  UNL     1      24.602   0.623  52.753  1.00  0.00     0.214 A 
HETATM    5  O1  UNL     1      25.393  -0.069  53.710  1.00  0.00    -0.322 OA
HETATM    6  C3  UNL     1      26.419   0.256  54.569  1.00  0.00     0.162 C 
HETATM    7  C4  UNL     1      27.803  -0.205  54.208  1.00  0.00     0.048 C 
HETATM    8  C5  UNL     1      28.905   0.406  53.647  1.00  0.00     0.117 C 
HETATM    9  F1  UNL     1      30.191   0.212  53.432  1.00  0.00    -0.206 F 
HETATM   10  C6  UNL     1      28.587   1.785  53.065  1.00  0.00     0.067 C 
HETATM   11  C7  UNL     1      27.263   2.001  53.299  1.00  0.00     0.015 C 
HETATM   12  C8  UNL     1      26.633   1.780  54.690  1.00  0.00     0.093 C 
HETATM   13  N3  UNL     1      26.426   2.384  52.159  1.00  0.00    -0.355 N 
HETATM   14  C9  UNL     1      25.070   1.829  51.983  1.00  0.00     0.105 A 
HETATM   15  C10 UNL     1      24.504   2.591  51.075  1.00  0.00     0.152 A 
HETATM   16  N4  UNL     1      23.163   2.123  50.810  1.00  0.00    -0.247 N 
HETATM   17  H9  UNL     1      26.937   3.049  51.542  1.00  0.00     0.166 HD
ENDROOT
BRANCH  16  18
HETATM   18  C11 UNL     1      22.464   2.874  49.833  1.00  0.00     0.059 A 
HETATM   19  C12 UNL     1      22.659   2.548  48.489  1.00  0.00     0.031 A 
HETATM   20  C13 UNL     1      22.097   3.156  47.390  1.00  0.00     0.004 A 
HETATM   21  C14 UNL     1      21.247   4.205  47.655  1.00  0.00     0.019 A 
HETATM   22  C15 UNL     1      20.997   4.595  48.953  1.00  0.00     0.013 A 
HETATM   23 BR1  UNL     1      19.820   6.047  49.326  1.00  0.00    -0.051 Br
HETATM   24  C16 UNL     1      21.601   3.932  49.993  1.00  0.00     0.050 A 
ENDBRANCH  16  18
TORSDOF 1
ENDMDL
